MODEL 1
REMARK VINA RESULT:      -8.0      0.000      0.000
REMARK  Name = 
REMARK  4 active torsions:
REMARK  status: ('A' for Active; 'I' for Inactive)
REMARK    1  A    between atoms: C_6  and  C_7
REMARK    2  A    between atoms: C_7  and  C_8
REMARK    3  A    between atoms: C_11  and  O_12
REMARK    4  A    between atoms: O_12  and  C_13
REMARK                            x       y       z     vdW  Elec       q    Type
REMARK                         _______ _______ _______ _____ _____    ______ ____
ROOT
ATOM      1  C   UNL     1       1.375   9.412  18.844  0.00  0.00    +0.000 A 
ATOM      2  C   UNL     1       2.091   8.721  17.856  0.00  0.00    +0.000 A 
ATOM      3  C   UNL     1       2.665   7.476  18.120  0.00  0.00    +0.000 A 
ATOM      4  C   UNL     1       2.571   6.922  19.392  0.00  0.00    +0.000 A 
ATOM      5  C   UNL     1       1.836   7.581  20.380  0.00  0.00    +0.000 A 
ATOM      6  C   UNL     1       1.258   8.826  20.113  0.00  0.00    +0.000 A 
ENDROOT
BRANCH   1   7
ATOM      7  C   UNL     1       0.788  10.781  18.578  0.00  0.00    +0.000 C 
BRANCH   7  13
ATOM      8  O   UNL     1      -2.875  10.922  15.561  0.00  0.00    +0.000 OA
ATOM      9  C   UNL     1      -2.268  11.090  16.604  0.00  0.00    +0.000 C 
ATOM     10  N   UNL     1      -1.930  12.282  17.137  0.00  0.00    +0.000 N 
ATOM     11  C   UNL     1      -1.140  12.306  18.244  0.00  0.00    +0.000 C 
ATOM     12  O   UNL     1      -0.771  13.346  18.773  0.00  0.00    +0.000 OA
ATOM     13  C   UNL     1      -0.738  10.914  18.706  0.00  0.00    +0.000 C 
ATOM     14  S   UNL     1      -1.702   9.797  17.619  0.00  0.00    +0.000 S 
ATOM     15  H   UNL     1      -2.215  13.137  16.688  0.00  0.00    +0.000 HD
ENDBRANCH   7  13
ENDBRANCH   1   7
BRANCH   4  16
ATOM     16  O   UNL     1       3.208   5.717  19.577  0.00  0.00    +0.000 OA
BRANCH  16  17
ATOM     17  C   UNL     1       2.508   4.548  19.360  0.00  0.00    +0.000 A 
ATOM     18  C   UNL     1       1.552   4.062  20.262  0.00  0.00    +0.000 A 
ATOM     19  C   UNL     1       0.822   2.910  19.964  0.00  0.00    +0.000 A 
ATOM     20  C   UNL     1       1.082   2.205  18.791  0.00  0.00    +0.000 A 
ATOM     21  C   UNL     1       2.089   2.638  17.926  0.00  0.00    +0.000 A 
ATOM     22  C   UNL     1       2.805   3.804  18.212  0.00  0.00    +0.000 A 
ATOM     23 CL   UNL     1       4.050   4.289  17.117  0.00  0.00    +0.000 Cl
ENDBRANCH  16  17
ENDBRANCH   4  16
TORSDOF 4
ENDMDL
MODEL 2
REMARK VINA RESULT:      -8.0      0.445      1.117
REMARK  Name = 
REMARK  4 active torsions:
REMARK  status: ('A' for Active; 'I' for Inactive)
REMARK    1  A    between atoms: C_6  and  C_7
REMARK    2  A    between atoms: C_7  and  C_8
REMARK    3  A    between atoms: C_11  and  O_12
REMARK    4  A    between atoms: O_12  and  C_13
REMARK                            x       y       z     vdW  Elec       q    Type
REMARK                         _______ _______ _______ _____ _____    ______ ____
ROOT
ATOM      1  C   UNL     1       1.094   9.519  18.985  0.00  0.00    +0.000 A 
ATOM      2  C   UNL     1       1.109   8.882  20.233  0.00  0.00    +0.000 A 
ATOM      3  C   UNL     1       1.815   7.693  20.427  0.00  0.00    +0.000 A 
ATOM      4  C   UNL     1       2.479   7.097  19.361  0.00  0.00    +0.000 A 
ATOM      5  C   UNL     1       2.501   7.733  18.117  0.00  0.00    +0.000 A 
ATOM      6  C   UNL     1       1.797   8.925  17.927  0.00  0.00    +0.000 A 
ENDROOT
BRANCH   1   7
ATOM      7  C   UNL     1       0.295  10.784  18.756  0.00  0.00    +0.000 C 
BRANCH   7  13
ATOM      8  O   UNL     1      -3.100  11.147  15.457  0.00  0.00    +0.000 OA
ATOM      9  C   UNL     1      -2.612  11.124  16.573  0.00  0.00    +0.000 C 
ATOM     10  N   UNL     1      -2.537  12.170  17.423  0.00  0.00    +0.000 N 
ATOM     11  C   UNL     1      -1.848  12.021  18.587  0.00  0.00    +0.000 C 
ATOM     12  O   UNL     1      -1.715  12.928  19.397  0.00  0.00    +0.000 OA
ATOM     13  C   UNL     1      -1.235  10.637  18.731  0.00  0.00    +0.000 C 
ATOM     14  S   UNL     1      -1.897   9.713  17.294  0.00  0.00    +0.000 S 
ATOM     15  H   UNL     1      -2.939  13.058  17.170  0.00  0.00    +0.000 HD
ENDBRANCH   7  13
ENDBRANCH   1   7
BRANCH   4  16
ATOM     16  O   UNL     1       3.107   5.901  19.629  0.00  0.00    +0.000 OA
BRANCH  16  17
ATOM     17  C   UNL     1       2.427   4.723  19.403  0.00  0.00    +0.000 A 
ATOM     18  C   UNL     1       1.493   4.203  20.311  0.00  0.00    +0.000 A 
ATOM     19  C   UNL     1       0.783   3.042  20.004  0.00  0.00    +0.000 A 
ATOM     20  C   UNL     1       1.040   2.360  18.817  0.00  0.00    +0.000 A 
ATOM     21  C   UNL     1       2.027   2.827  17.945  0.00  0.00    +0.000 A 
ATOM     22  C   UNL     1       2.723   4.003  18.240  0.00  0.00    +0.000 A 
ATOM     23 CL   UNL     1       3.942   4.530  17.136  0.00  0.00    +0.000 Cl
ENDBRANCH  16  17
ENDBRANCH   4  16
TORSDOF 4
ENDMDL
MODEL 3
REMARK VINA RESULT:      -7.9      5.873      7.753
REMARK  Name = 
REMARK  4 active torsions:
REMARK  status: ('A' for Active; 'I' for Inactive)
REMARK    1  A    between atoms: C_6  and  C_7
REMARK    2  A    between atoms: C_7  and  C_8
REMARK    3  A    between atoms: C_11  and  O_12
REMARK    4  A    between atoms: O_12  and  C_13
REMARK                            x       y       z     vdW  Elec       q    Type
REMARK                         _______ _______ _______ _____ _____    ______ ____
ROOT
ATOM      1  C   UNL     1       4.697   5.102  18.560  0.00  0.00    +0.000 A 
ATOM      2  C   UNL     1       5.911   4.422  18.393  0.00  0.00    +0.000 A 
ATOM      3  C   UNL     1       6.714   4.647  17.273  0.00  0.00    +0.000 A 
ATOM      4  C   UNL     1       6.292   5.522  16.278  0.00  0.00    +0.000 A 
ATOM      5  C   UNL     1       5.100   6.231  16.442  0.00  0.00    +0.000 A 
ATOM      6  C   UNL     1       4.299   6.008  17.566  0.00  0.00    +0.000 A 
ENDROOT
BRANCH   1   7
ATOM      7  C   UNL     1       3.800   4.831  19.749  0.00  0.00    +0.000 C 
BRANCH   7  13
ATOM      8  O   UNL     1       0.089   2.175  18.440  0.00  0.00    +0.000 OA
ATOM      9  C   UNL     1       1.062   2.506  19.094  0.00  0.00    +0.000 C 
ATOM     10  N   UNL     1       1.047   2.898  20.385  0.00  0.00    +0.000 N 
ATOM     11  C   UNL     1       2.199   3.361  20.943  0.00  0.00    +0.000 C 
ATOM     12  O   UNL     1       2.262   3.756  22.099  0.00  0.00    +0.000 OA
ATOM     13  C   UNL     1       3.361   3.374  19.962  0.00  0.00    +0.000 C 
ATOM     14  S   UNL     1       2.685   2.547  18.473  0.00  0.00    +0.000 S 
ATOM     15  H   UNL     1       0.186   2.898  20.905  0.00  0.00    +0.000 HD
ENDBRANCH   7  13
ENDBRANCH   1   7
BRANCH   4  16
ATOM     16  O   UNL     1       7.121   5.645  15.187  0.00  0.00    +0.000 OA
BRANCH  16  17
ATOM     17  C   UNL     1       6.857   4.900  14.057  0.00  0.00    +0.000 A 
ATOM     18  C   UNL     1       5.811   3.967  13.995  0.00  0.00    +0.000 A 
ATOM     19  C   UNL     1       5.542   3.287  12.807  0.00  0.00    +0.000 A 
ATOM     20  C   UNL     1       6.350   3.489  11.690  0.00  0.00    +0.000 A 
ATOM     21  C   UNL     1       7.443   4.355  11.768  0.00  0.00    +0.000 A 
ATOM     22  C   UNL     1       7.700   5.055  12.951  0.00  0.00    +0.000 A 
ATOM     23 CL   UNL     1       9.071   6.103  12.999  0.00  0.00    +0.000 Cl
ENDBRANCH  16  17
ENDBRANCH   4  16
TORSDOF 4
ENDMDL
MODEL 4
REMARK VINA RESULT:      -7.9      4.134      7.921
REMARK  Name = 
REMARK  4 active torsions:
REMARK  status: ('A' for Active; 'I' for Inactive)
REMARK    1  A    between atoms: C_6  and  C_7
REMARK    2  A    between atoms: C_7  and  C_8
REMARK    3  A    between atoms: C_11  and  O_12
REMARK    4  A    between atoms: O_12  and  C_13
REMARK                            x       y       z     vdW  Elec       q    Type
REMARK                         _______ _______ _______ _____ _____    ______ ____
ROOT
ATOM      1  C   UNL     1       2.417   7.086  19.453  0.00  0.00    +0.000 A 
ATOM      2  C   UNL     1       2.505   7.643  18.169  0.00  0.00    +0.000 A 
ATOM      3  C   UNL     1       1.899   8.864  17.871  0.00  0.00    +0.000 A 
ATOM      4  C   UNL     1       1.154   9.527  18.840  0.00  0.00    +0.000 A 
ATOM      5  C   UNL     1       1.079   9.002  20.133  0.00  0.00    +0.000 A 
ATOM      6  C   UNL     1       1.691   7.781  20.431  0.00  0.00    +0.000 A 
ENDROOT
BRANCH   1   7
ATOM      7  C   UNL     1       3.034   5.741  19.772  0.00  0.00    +0.000 C 
BRANCH   7  13
ATOM      8  O   UNL     1       3.644   1.219  18.463  0.00  0.00    +0.000 OA
ATOM      9  C   UNL     1       3.864   2.415  18.514  0.00  0.00    +0.000 C 
ATOM     10  N   UNL     1       4.951   2.994  19.067  0.00  0.00    +0.000 N 
ATOM     11  C   UNL     1       4.995   4.351  19.161  0.00  0.00    +0.000 C 
ATOM     12  O   UNL     1       5.933   4.949  19.670  0.00  0.00    +0.000 OA
ATOM     13  C   UNL     1       3.741   5.017  18.616  0.00  0.00    +0.000 C 
ATOM     14  S   UNL     1       2.795   3.631  17.881  0.00  0.00    +0.000 S 
ATOM     15  H   UNL     1       5.688   2.426  19.450  0.00  0.00    +0.000 HD
ENDBRANCH   7  13
ENDBRANCH   1   7
BRANCH   4  16
ATOM     16  O   UNL     1       0.549  10.698  18.445  0.00  0.00    +0.000 OA
BRANCH  16  17
ATOM     17  C   UNL     1      -0.815  10.713  18.243  0.00  0.00    +0.000 A 
ATOM     18  C   UNL     1      -1.456   9.846  17.347  0.00  0.00    +0.000 A 
ATOM     19  C   UNL     1      -2.846   9.855  17.229  0.00  0.00    +0.000 A 
ATOM     20  C   UNL     1      -3.602  10.768  17.961  0.00  0.00    +0.000 A 
ATOM     21  C   UNL     1      -2.966  11.689  18.795  0.00  0.00    +0.000 A 
ATOM     22  C   UNL     1      -1.574  11.666  18.932  0.00  0.00    +0.000 A 
ATOM     23 CL   UNL     1      -0.835  12.836  19.965  0.00  0.00    +0.000 Cl
ENDBRANCH  16  17
ENDBRANCH   4  16
TORSDOF 4
ENDMDL
MODEL 5
REMARK VINA RESULT:      -7.8      4.144      7.985
REMARK  Name = 
REMARK  4 active torsions:
REMARK  status: ('A' for Active; 'I' for Inactive)
REMARK    1  A    between atoms: C_6  and  C_7
REMARK    2  A    between atoms: C_7  and  C_8
REMARK    3  A    between atoms: C_11  and  O_12
REMARK    4  A    between atoms: O_12  and  C_13
REMARK                            x       y       z     vdW  Elec       q    Type
REMARK                         _______ _______ _______ _____ _____    ______ ____
ROOT
ATOM      1  C   UNL     1       2.355   7.273  19.436  0.00  0.00    +0.000 A 
ATOM      2  C   UNL     1       1.591   7.959  20.390  0.00  0.00    +0.000 A 
ATOM      3  C   UNL     1       0.911   9.133  20.060  0.00  0.00    +0.000 A 
ATOM      4  C   UNL     1       1.024   9.666  18.782  0.00  0.00    +0.000 A 
ATOM      5  C   UNL     1       1.757   8.981  17.809  0.00  0.00    +0.000 A 
ATOM      6  C   UNL     1       2.433   7.803  18.140  0.00  0.00    +0.000 A 
ENDROOT
BRANCH   1   7
ATOM      7  C   UNL     1       3.130   6.024  19.798  0.00  0.00    +0.000 C 
BRANCH   7  13
ATOM      8  O   UNL     1       3.746   1.480  18.572  0.00  0.00    +0.000 OA
ATOM      9  C   UNL     1       3.958   2.678  18.592  0.00  0.00    +0.000 C 
ATOM     10  N   UNL     1       5.052   3.277  19.107  0.00  0.00    +0.000 N 
ATOM     11  C   UNL     1       5.088   4.636  19.171  0.00  0.00    +0.000 C 
ATOM     12  O   UNL     1       6.033   5.252  19.645  0.00  0.00    +0.000 OA
ATOM     13  C   UNL     1       3.817   5.280  18.641  0.00  0.00    +0.000 C 
ATOM     14  S   UNL     1       2.864   3.872  17.958  0.00  0.00    +0.000 S 
ATOM     15  H   UNL     1       5.803   2.723  19.485  0.00  0.00    +0.000 HD
ENDBRANCH   7  13
ENDBRANCH   1   7
BRANCH   4  16
ATOM     16  O   UNL     1       0.362  10.852  18.558  0.00  0.00    +0.000 OA
BRANCH  16  17
ATOM     17  C   UNL     1      -0.989  10.824  18.284  0.00  0.00    +0.000 A 
ATOM     18  C   UNL     1      -1.552   9.942  17.352  0.00  0.00    +0.000 A 
ATOM     19  C   UNL     1      -2.934   9.906  17.160  0.00  0.00    +0.000 A 
ATOM     20  C   UNL     1      -3.757  10.790  17.854  0.00  0.00    +0.000 A 
ATOM     21  C   UNL     1      -3.196  11.727  18.724  0.00  0.00    +0.000 A 
ATOM     22  C   UNL     1      -1.814  11.749  18.935  0.00  0.00    +0.000 A 
ATOM     23 CL   UNL     1      -1.169  12.936  20.011  0.00  0.00    +0.000 Cl
ENDBRANCH  16  17
ENDBRANCH   4  16
TORSDOF 4
ENDMDL
MODEL 6
REMARK VINA RESULT:      -7.7      0.964      1.567
REMARK  Name = 
REMARK  4 active torsions:
REMARK  status: ('A' for Active; 'I' for Inactive)
REMARK    1  A    between atoms: C_6  and  C_7
REMARK    2  A    between atoms: C_7  and  C_8
REMARK    3  A    between atoms: C_11  and  O_12
REMARK    4  A    between atoms: O_12  and  C_13
REMARK                            x       y       z     vdW  Elec       q    Type
REMARK                         _______ _______ _______ _____ _____    ______ ____
ROOT
ATOM      1  C   UNL     1       1.243   9.547  18.962  0.00  0.00    +0.000 A 
ATOM      2  C   UNL     1       1.234   8.748  20.113  0.00  0.00    +0.000 A 
ATOM      3  C   UNL     1       1.929   7.538  20.156  0.00  0.00    +0.000 A 
ATOM      4  C   UNL     1       2.606   7.085  19.029  0.00  0.00    +0.000 A 
ATOM      5  C   UNL     1       2.652   7.882  17.883  0.00  0.00    +0.000 A 
ATOM      6  C   UNL     1       1.958   9.095  17.844  0.00  0.00    +0.000 A 
ENDROOT
BRANCH   1   7
ATOM      7  C   UNL     1       0.456  10.838  18.894  0.00  0.00    +0.000 C 
BRANCH   7  13
ATOM      8  O   UNL     1      -2.963  11.182  15.618  0.00  0.00    +0.000 OA
ATOM      9  C   UNL     1      -2.466  11.174  16.729  0.00  0.00    +0.000 C 
ATOM     10  N   UNL     1      -2.369  12.235  17.557  0.00  0.00    +0.000 N 
ATOM     11  C   UNL     1      -1.672  12.100  18.718  0.00  0.00    +0.000 C 
ATOM     12  O   UNL     1      -1.520  13.020  19.510  0.00  0.00    +0.000 OA
ATOM     13  C   UNL     1      -1.076  10.711  18.885  0.00  0.00    +0.000 C 
ATOM     14  S   UNL     1      -1.763   9.768  17.472  0.00  0.00    +0.000 S 
ATOM     15  H   UNL     1      -2.761  13.123  17.291  0.00  0.00    +0.000 HD
ENDBRANCH   7  13
ENDBRANCH   1   7
BRANCH   4  16
ATOM     16  O   UNL     1       3.222   5.859  19.143  0.00  0.00    +0.000 OA
BRANCH  16  17
ATOM     17  C   UNL     1       2.558   4.833  19.784  0.00  0.00    +0.000 A 
ATOM     18  C   UNL     1       2.829   4.471  21.111  0.00  0.00    +0.000 A 
ATOM     19  C   UNL     1       2.082   3.470  21.735  0.00  0.00    +0.000 A 
ATOM     20  C   UNL     1       1.101   2.785  21.021  0.00  0.00    +0.000 A 
ATOM     21  C   UNL     1       0.881   3.084  19.675  0.00  0.00    +0.000 A 
ATOM     22  C   UNL     1       1.612   4.103  19.055  0.00  0.00    +0.000 A 
ATOM     23 CL   UNL     1       1.311   4.424  17.385  0.00  0.00    +0.000 Cl
ENDBRANCH  16  17
ENDBRANCH   4  16
TORSDOF 4
ENDMDL
MODEL 7
REMARK VINA RESULT:      -7.7      3.972      7.936
REMARK  Name = 
REMARK  4 active torsions:
REMARK  status: ('A' for Active; 'I' for Inactive)
REMARK    1  A    between atoms: C_6  and  C_7
REMARK    2  A    between atoms: C_7  and  C_8
REMARK    3  A    between atoms: C_11  and  O_12
REMARK    4  A    between atoms: O_12  and  C_13
REMARK                            x       y       z     vdW  Elec       q    Type
REMARK                         _______ _______ _______ _____ _____    ______ ____
ROOT
ATOM      1  C   UNL     1       2.381   7.288  19.389  0.00  0.00    +0.000 A 
ATOM      2  C   UNL     1       1.653   7.987  20.363  0.00  0.00    +0.000 A 
ATOM      3  C   UNL     1       0.954   9.152  20.041  0.00  0.00    +0.000 A 
ATOM      4  C   UNL     1       1.009   9.663  18.750  0.00  0.00    +0.000 A 
ATOM      5  C   UNL     1       1.704   8.964  17.759  0.00  0.00    +0.000 A 
ATOM      6  C   UNL     1       2.401   7.796  18.082  0.00  0.00    +0.000 A 
ENDROOT
BRANCH   1   7
ATOM      7  C   UNL     1       3.178   6.050  19.739  0.00  0.00    +0.000 C 
BRANCH   7  13
ATOM      8  O   UNL     1       1.505   2.356  22.208  0.00  0.00    +0.000 OA
ATOM      9  C   UNL     1       1.944   2.962  21.247  0.00  0.00    +0.000 C 
ATOM     10  N   UNL     1       3.143   2.755  20.665  0.00  0.00    +0.000 N 
ATOM     11  C   UNL     1       3.548   3.599  19.677  0.00  0.00    +0.000 C 
ATOM     12  O   UNL     1       4.630   3.491  19.116  0.00  0.00    +0.000 OA
ATOM     13  C   UNL     1       2.535   4.697  19.395  0.00  0.00    +0.000 C 
ATOM     14  S   UNL     1       1.095   4.241  20.432  0.00  0.00    +0.000 S 
ATOM     15  H   UNL     1       3.748   2.021  20.996  0.00  0.00    +0.000 HD
ENDBRANCH   7  13
ENDBRANCH   1   7
BRANCH   4  16
ATOM     16  O   UNL     1       0.332  10.841  18.534  0.00  0.00    +0.000 OA
BRANCH  16  17
ATOM     17  C   UNL     1      -1.020  10.797  18.265  0.00  0.00    +0.000 A 
ATOM     18  C   UNL     1      -1.579   9.900  17.343  0.00  0.00    +0.000 A 
ATOM     19  C   UNL     1      -2.961   9.850  17.157  0.00  0.00    +0.000 A 
ATOM     20  C   UNL     1      -3.790  10.732  17.846  0.00  0.00    +0.000 A 
ATOM     21  C   UNL     1      -3.235  11.683  18.705  0.00  0.00    +0.000 A 
ATOM     22  C   UNL     1      -1.852  11.720  18.910  0.00  0.00    +0.000 A 
ATOM     23 CL   UNL     1      -1.215  12.924  19.972  0.00  0.00    +0.000 Cl
ENDBRANCH  16  17
ENDBRANCH   4  16
TORSDOF 4
ENDMDL
MODEL 8
REMARK VINA RESULT:      -7.6      1.192      1.929
REMARK  Name = 
REMARK  4 active torsions:
REMARK  status: ('A' for Active; 'I' for Inactive)
REMARK    1  A    between atoms: C_6  and  C_7
REMARK    2  A    between atoms: C_7  and  C_8
REMARK    3  A    between atoms: C_11  and  O_12
REMARK    4  A    between atoms: O_12  and  C_13
REMARK                            x       y       z     vdW  Elec       q    Type
REMARK                         _______ _______ _______ _____ _____    ______ ____
ROOT
ATOM      1  C   UNL     1       1.238   9.436  18.849  0.00  0.00    +0.000 A 
ATOM      2  C   UNL     1       1.159   8.841  20.115  0.00  0.00    +0.000 A 
ATOM      3  C   UNL     1       1.836   7.653  20.397  0.00  0.00    +0.000 A 
ATOM      4  C   UNL     1       2.567   7.016  19.401  0.00  0.00    +0.000 A 
ATOM      5  C   UNL     1       2.683   7.610  18.141  0.00  0.00    +0.000 A 
ATOM      6  C   UNL     1       2.007   8.801  17.862  0.00  0.00    +0.000 A 
ENDROOT
BRANCH   1   7
ATOM      7  C   UNL     1       0.471  10.700  18.523  0.00  0.00    +0.000 C 
BRANCH   7  13
ATOM      8  O   UNL     1      -3.116  11.154  15.447  0.00  0.00    +0.000 OA
ATOM      9  C   UNL     1      -2.558  11.126  16.529  0.00  0.00    +0.000 C 
ATOM     10  N   UNL     1      -2.386  12.179  17.354  0.00  0.00    +0.000 N 
ATOM     11  C   UNL     1      -1.629  12.019  18.474  0.00  0.00    +0.000 C 
ATOM     12  O   UNL     1      -1.407  12.931  19.259  0.00  0.00    +0.000 OA
ATOM     13  C   UNL     1      -1.062  10.614  18.600  0.00  0.00    +0.000 C 
ATOM     14  S   UNL     1      -1.852   9.698  17.224  0.00  0.00    +0.000 S 
ATOM     15  H   UNL     1      -2.768  13.079  17.115  0.00  0.00    +0.000 HD
ENDBRANCH   7  13
ENDBRANCH   1   7
BRANCH   4  16
ATOM     16  O   UNL     1       3.161   5.825  19.751  0.00  0.00    +0.000 OA
BRANCH  16  17
ATOM     17  C   UNL     1       2.982   4.723  18.941  0.00  0.00    +0.000 A 
ATOM     18  C   UNL     1       3.788   4.470  17.822  0.00  0.00    +0.000 A 
ATOM     19  C   UNL     1       3.609   3.306  17.073  0.00  0.00    +0.000 A 
ATOM     20  C   UNL     1       2.589   2.416  17.401  0.00  0.00    +0.000 A 
ATOM     21  C   UNL     1       1.730   2.702  18.465  0.00  0.00    +0.000 A 
ATOM     22  C   UNL     1       1.923   3.856  19.231  0.00  0.00    +0.000 A 
ATOM     23 CL   UNL     1       0.826   4.170  20.527  0.00  0.00    +0.000 Cl
ENDBRANCH  16  17
ENDBRANCH   4  16
TORSDOF 4
ENDMDL
MODEL 9
REMARK VINA RESULT:      -7.6      3.939      7.834
REMARK  Name = 
REMARK  4 active torsions:
REMARK  status: ('A' for Active; 'I' for Inactive)
REMARK    1  A    between atoms: C_6  and  C_7
REMARK    2  A    between atoms: C_7  and  C_8
REMARK    3  A    between atoms: C_11  and  O_12
REMARK    4  A    between atoms: O_12  and  C_13
REMARK                            x       y       z     vdW  Elec       q    Type
REMARK                         _______ _______ _______ _____ _____    ______ ____
ROOT
ATOM      1  C   UNL     1       2.427   7.401  19.265  0.00  0.00    +0.000 A 
ATOM      2  C   UNL     1       2.450   8.052  18.024  0.00  0.00    +0.000 A 
ATOM      3  C   UNL     1       1.743   9.239  17.821  0.00  0.00    +0.000 A 
ATOM      4  C   UNL     1       0.964   9.769  18.843  0.00  0.00    +0.000 A 
ATOM      5  C   UNL     1       0.953   9.150  20.096  0.00  0.00    +0.000 A 
ATOM      6  C   UNL     1       1.665   7.964  20.298  0.00  0.00    +0.000 A 
ENDROOT
BRANCH   1   7
ATOM      7  C   UNL     1       3.155   6.091  19.479  0.00  0.00    +0.000 C 
BRANCH   7  13
ATOM      8  O   UNL     1       1.786   2.349  22.060  0.00  0.00    +0.000 OA
ATOM      9  C   UNL     1       2.050   2.990  21.059  0.00  0.00    +0.000 C 
ATOM     10  N   UNL     1       3.075   2.749  20.215  0.00  0.00    +0.000 N 
ATOM     11  C   UNL     1       3.317   3.631  19.208  0.00  0.00    +0.000 C 
ATOM     12  O   UNL     1       4.241   3.495  18.417  0.00  0.00    +0.000 OA
ATOM     13  C   UNL     1       2.353   4.807  19.215  0.00  0.00    +0.000 C 
ATOM     14  S   UNL     1       1.143   4.372  20.520  0.00  0.00    +0.000 S 
ATOM     15  H   UNL     1       3.680   1.959  20.366  0.00  0.00    +0.000 HD
ENDBRANCH   7  13
ENDBRANCH   1   7
BRANCH   4  16
ATOM     16  O   UNL     1       0.261  10.913  18.541  0.00  0.00    +0.000 OA
BRANCH  16  17
ATOM     17  C   UNL     1      -1.083  10.816  18.249  0.00  0.00    +0.000 A 
ATOM     18  C   UNL     1      -1.596   9.865  17.355  0.00  0.00    +0.000 A 
ATOM     19  C   UNL     1      -2.972   9.764  17.146  0.00  0.00    +0.000 A 
ATOM     20  C   UNL     1      -3.841  10.648  17.782  0.00  0.00    +0.000 A 
ATOM     21  C   UNL     1      -3.332  11.650  18.610  0.00  0.00    +0.000 A 
ATOM     22  C   UNL     1      -1.955  11.738  18.840  0.00  0.00    +0.000 A 
ATOM     23 CL   UNL     1      -1.376  13.004  19.862  0.00  0.00    +0.000 Cl
ENDBRANCH  16  17
ENDBRANCH   4  16
TORSDOF 4
ENDMDL
