MODEL 1
REMARK VINA RESULT:      -8.0      0.000      0.000
REMARK  Name = 
REMARK  6 active torsions:
REMARK  status: ('A' for Active; 'I' for Inactive)
REMARK    1  A    between atoms: C_1  and  O_2
REMARK    2  A    between atoms: O_2  and  C_3
REMARK    3  A    between atoms: C_6  and  C_7
REMARK    4  A    between atoms: C_22  and  C_23
REMARK    5  A    between atoms: C_31  and  O_32
REMARK    6  A    between atoms: O_32  and  C_33
REMARK                            x       y       z     vdW  Elec       q    Type
REMARK                         _______ _______ _______ _____ _____    ______ ____
ROOT
ATOM      1  C   UNL     1       0.620  10.973  19.161  0.00  0.00    +0.000 C 
ATOM      2  C   UNL     1       0.549  11.803  20.436  0.00  0.00    +0.000 C 
ATOM      3  C   UNL     1      -0.797  11.729  21.092  0.00  0.00    +0.000 C 
ATOM      4  O   UNL     1      -0.902  11.525  22.303  0.00  0.00    +0.000 OA
ATOM      5  C   UNL     1      -2.000  11.901  20.242  0.00  0.00    +0.000 C 
ATOM      6  C   UNL     1      -1.985  11.342  19.010  0.00  0.00    +0.000 C 
ATOM      7  C   UNL     1      -0.700  10.839  18.373  0.00  0.00    +0.000 C 
ATOM      8  N   UNL     1      -3.113  11.130  18.214  0.00  0.00    +0.000 N 
ATOM      9  C   UNL     1      -4.462  11.479  18.466  0.00  0.00    +0.000 A 
ATOM     10  C   UNL     1      -5.480  10.551  18.205  0.00  0.00    +0.000 A 
ATOM     11  C   UNL     1      -6.815  10.839  18.526  0.00  0.00    +0.000 A 
ATOM     12  C   UNL     1      -7.161  12.076  19.064  0.00  0.00    +0.000 A 
ATOM     13  C   UNL     1      -6.164  12.993  19.370  0.00  0.00    +0.000 A 
ATOM     14  C   UNL     1      -4.822  12.670  19.131  0.00  0.00    +0.000 A 
ATOM     15  N   UNL     1      -3.837  13.452  19.807  0.00  0.00    +0.000 N 
ATOM     16  C   UNL     1      -3.235  12.541  20.828  0.00  0.00    +0.000 C 
ATOM     17  H   UNL     1      -3.002  10.435  17.482  0.00  0.00    +0.000 HD
ATOM     18  H   UNL     1      -3.115  13.661  19.118  0.00  0.00    +0.000 HD
ENDROOT
BRANCH  16  19
ATOM     19  C   UNL     1      -3.165  13.275  22.151  0.00  0.00    +0.000 A 
ATOM     20  C   UNL     1      -3.873  12.707  23.235  0.00  0.00    +0.000 A 
ATOM     21  C   UNL     1      -3.834  13.269  24.508  0.00  0.00    +0.000 A 
ATOM     22  C   UNL     1      -3.097  14.426  24.722  0.00  0.00    +0.000 A 
ATOM     23  C   UNL     1      -2.416  15.023  23.659  0.00  0.00    +0.000 A 
ATOM     24  C   UNL     1      -2.451  14.457  22.378  0.00  0.00    +0.000 A 
ATOM     25 CL   UNL     1      -1.570  15.264  21.128  0.00  0.00    +0.000 Cl
ENDBRANCH  16  19
BRANCH   1  29
ATOM     26  C   UNL     1       2.182   6.965  19.689  0.00  0.00    +0.000 A 
ATOM     27  C   UNL     1       1.555   7.627  20.757  0.00  0.00    +0.000 A 
ATOM     28  C   UNL     1       1.058   8.922  20.611  0.00  0.00    +0.000 A 
ATOM     29  C   UNL     1       1.220   9.600  19.402  0.00  0.00    +0.000 A 
ATOM     30  C   UNL     1       1.927   8.968  18.368  0.00  0.00    +0.000 A 
ATOM     31  C   UNL     1       2.416   7.661  18.496  0.00  0.00    +0.000 A 
BRANCH  26  33
ATOM     32  C   UNL     1       1.834   4.868  20.728  0.00  0.00    +0.000 C 
ATOM     33  O   UNL     1       2.583   5.662  19.808  0.00  0.00    +0.000 OA
ENDBRANCH  26  33
BRANCH  31  34
ATOM     34  O   UNL     1       3.050   7.243  17.356  0.00  0.00    +0.000 OA
ATOM     35  C   UNL     1       4.450   7.031  17.387  0.00  0.00    +0.000 C 
ENDBRANCH  31  34
ENDBRANCH   1  29
TORSDOF 4
ENDMDL
MODEL 2
REMARK VINA RESULT:      -7.9      1.505      2.424
REMARK  Name = 
REMARK  6 active torsions:
REMARK  status: ('A' for Active; 'I' for Inactive)
REMARK    1  A    between atoms: C_1  and  O_2
REMARK    2  A    between atoms: O_2  and  C_3
REMARK    3  A    between atoms: C_6  and  C_7
REMARK    4  A    between atoms: C_22  and  C_23
REMARK    5  A    between atoms: C_31  and  O_32
REMARK    6  A    between atoms: O_32  and  C_33
REMARK                            x       y       z     vdW  Elec       q    Type
REMARK                         _______ _______ _______ _____ _____    ______ ____
ROOT
ATOM      1  C   UNL     1      -0.017  11.785  18.765  0.00  0.00    +0.000 C 
ATOM      2  C   UNL     1       0.215  12.685  19.972  0.00  0.00    +0.000 C 
ATOM      3  C   UNL     1      -0.936  12.661  20.932  0.00  0.00    +0.000 C 
ATOM      4  O   UNL     1      -0.749  12.525  22.143  0.00  0.00    +0.000 OA
ATOM      5  C   UNL     1      -2.307  12.798  20.384  0.00  0.00    +0.000 C 
ATOM      6  C   UNL     1      -2.584  12.172  19.217  0.00  0.00    +0.000 C 
ATOM      7  C   UNL     1      -1.486  11.621  18.322  0.00  0.00    +0.000 C 
ATOM      8  N   UNL     1      -3.868  11.928  18.725  0.00  0.00    +0.000 N 
ATOM      9  C   UNL     1      -5.120  12.304  19.271  0.00  0.00    +0.000 A 
ATOM     10  C   UNL     1      -6.167  11.373  19.312  0.00  0.00    +0.000 A 
ATOM     11  C   UNL     1      -7.388  11.692  19.924  0.00  0.00    +0.000 A 
ATOM     12  C   UNL     1      -7.601  12.961  20.459  0.00  0.00    +0.000 A 
ATOM     13  C   UNL     1      -6.563  13.883  20.467  0.00  0.00    +0.000 A 
ATOM     14  C   UNL     1      -5.315  13.534  19.934  0.00  0.00    +0.000 A 
ATOM     15  N   UNL     1      -4.200  14.342  20.312  0.00  0.00    +0.000 N 
ATOM     16  C   UNL     1      -3.369  13.482  21.210  0.00  0.00    +0.000 C 
ATOM     17  H   UNL     1      -3.932  11.192  18.028  0.00  0.00    +0.000 HD
ATOM     18  H   UNL     1      -3.664  14.505  19.460  0.00  0.00    +0.000 HD
ENDROOT
BRANCH  16  19
ATOM     19  C   UNL     1      -2.989  14.287  22.435  0.00  0.00    +0.000 A 
ATOM     20  C   UNL     1      -2.424  15.564  22.211  0.00  0.00    +0.000 A 
ATOM     21  C   UNL     1      -2.087  16.409  23.266  0.00  0.00    +0.000 A 
ATOM     22  C   UNL     1      -2.295  15.988  24.572  0.00  0.00    +0.000 A 
ATOM     23  C   UNL     1      -2.822  14.718  24.818  0.00  0.00    +0.000 A 
ATOM     24  C   UNL     1      -3.164  13.867  23.759  0.00  0.00    +0.000 A 
ATOM     25 CL   UNL     1      -3.816  12.318  24.163  0.00  0.00    +0.000 Cl
ENDBRANCH  16  19
BRANCH   1  29
ATOM     26  C   UNL     1       1.991   7.993  19.376  0.00  0.00    +0.000 A 
ATOM     27  C   UNL     1       1.883   8.538  18.086  0.00  0.00    +0.000 A 
ATOM     28  C   UNL     1       1.229   9.750  17.868  0.00  0.00    +0.000 A 
ATOM     29  C   UNL     1       0.628  10.421  18.933  0.00  0.00    +0.000 A 
ATOM     30  C   UNL     1       0.660   9.828  20.203  0.00  0.00    +0.000 A 
ATOM     31  C   UNL     1       1.328   8.619  20.440  0.00  0.00    +0.000 A 
BRANCH  26  33
ATOM     32  C   UNL     1       3.356   6.296  18.452  0.00  0.00    +0.000 C 
ATOM     33  O   UNL     1       2.714   6.852  19.600  0.00  0.00    +0.000 OA
ENDBRANCH  26  33
BRANCH  31  34
ATOM     34  O   UNL     1       1.247   8.244  21.754  0.00  0.00    +0.000 OA
ATOM     35  C   UNL     1       0.744   9.168  22.703  0.00  0.00    +0.000 C 
ENDBRANCH  31  34
ENDBRANCH   1  29
TORSDOF 4
ENDMDL
MODEL 3
REMARK VINA RESULT:      -7.7      0.967      1.841
REMARK  Name = 
REMARK  6 active torsions:
REMARK  status: ('A' for Active; 'I' for Inactive)
REMARK    1  A    between atoms: C_1  and  O_2
REMARK    2  A    between atoms: O_2  and  C_3
REMARK    3  A    between atoms: C_6  and  C_7
REMARK    4  A    between atoms: C_22  and  C_23
REMARK    5  A    between atoms: C_31  and  O_32
REMARK    6  A    between atoms: O_32  and  C_33
REMARK                            x       y       z     vdW  Elec       q    Type
REMARK                         _______ _______ _______ _____ _____    ______ ____
ROOT
ATOM      1  C   UNL     1       0.244  11.650  18.763  0.00  0.00    +0.000 C 
ATOM      2  C   UNL     1       0.245  12.347  20.117  0.00  0.00    +0.000 C 
ATOM      3  C   UNL     1      -1.042  12.151  20.860  0.00  0.00    +0.000 C 
ATOM      4  O   UNL     1      -1.044  11.824  22.049  0.00  0.00    +0.000 OA
ATOM      5  C   UNL     1      -2.314  12.354  20.125  0.00  0.00    +0.000 C 
ATOM      6  C   UNL     1      -2.376  11.919  18.846  0.00  0.00    +0.000 C 
ATOM      7  C   UNL     1      -1.128  11.537  18.066  0.00  0.00    +0.000 C 
ATOM      8  N   UNL     1      -3.555  11.739  18.119  0.00  0.00    +0.000 N 
ATOM      9  C   UNL     1      -4.892  12.003  18.506  0.00  0.00    +0.000 A 
ATOM     10  C   UNL     1      -5.893  11.061  18.229  0.00  0.00    +0.000 A 
ATOM     11  C   UNL     1      -7.208  11.259  18.676  0.00  0.00    +0.000 A 
ATOM     12  C   UNL     1      -7.554  12.422  19.361  0.00  0.00    +0.000 A 
ATOM     13  C   UNL     1      -6.569  13.346  19.683  0.00  0.00    +0.000 A 
ATOM     14  C   UNL     1      -5.240  13.106  19.312  0.00  0.00    +0.000 A 
ATOM     15  N   UNL     1      -4.233  13.860  19.989  0.00  0.00    +0.000 N 
ATOM     16  C   UNL     1      -3.520  12.879  20.864  0.00  0.00    +0.000 C 
ATOM     17  H   UNL     1      -3.478  11.124  17.314  0.00  0.00    +0.000 HD
ATOM     18  H   UNL     1      -3.575  14.166  19.272  0.00  0.00    +0.000 HD
ENDROOT
BRANCH  16  19
ATOM     19  C   UNL     1      -3.372  13.482  22.245  0.00  0.00    +0.000 A 
ATOM     20  C   UNL     1      -3.969  12.779  23.317  0.00  0.00    +0.000 A 
ATOM     21  C   UNL     1      -3.850  13.215  24.634  0.00  0.00    +0.000 A 
ATOM     22  C   UNL     1      -3.142  14.377  24.907  0.00  0.00    +0.000 A 
ATOM     23  C   UNL     1      -2.570  15.105  23.862  0.00  0.00    +0.000 A 
ATOM     24  C   UNL     1      -2.687  14.667  22.536  0.00  0.00    +0.000 A 
ATOM     25 CL   UNL     1      -1.940  15.632  21.312  0.00  0.00    +0.000 Cl
ENDBRANCH  16  19
BRANCH   1  29
ATOM     26  C   UNL     1       2.286   7.841  19.088  0.00  0.00    +0.000 A 
ATOM     27  C   UNL     1       2.346   8.577  17.894  0.00  0.00    +0.000 A 
ATOM     28  C   UNL     1       1.684   9.798  17.765  0.00  0.00    +0.000 A 
ATOM     29  C   UNL     1       0.909  10.287  18.817  0.00  0.00    +0.000 A 
ATOM     30  C   UNL     1       0.779   9.504  19.974  0.00  0.00    +0.000 A 
ATOM     31  C   UNL     1       1.452   8.284  20.123  0.00  0.00    +0.000 A 
BRANCH  26  33
ATOM     32  C   UNL     1       3.514   6.113  18.038  0.00  0.00    +0.000 C 
ATOM     33  O   UNL     1       3.012   6.691  19.243  0.00  0.00    +0.000 OA
ENDBRANCH  26  33
BRANCH  31  34
ATOM     34  O   UNL     1       1.195   7.708  21.338  0.00  0.00    +0.000 OA
ATOM     35  C   UNL     1       0.160   8.241  22.146  0.00  0.00    +0.000 C 
ENDBRANCH  31  34
ENDBRANCH   1  29
TORSDOF 4
ENDMDL
MODEL 4
REMARK VINA RESULT:      -7.7      3.810      9.732
REMARK  Name = 
REMARK  6 active torsions:
REMARK  status: ('A' for Active; 'I' for Inactive)
REMARK    1  A    between atoms: C_1  and  O_2
REMARK    2  A    between atoms: O_2  and  C_3
REMARK    3  A    between atoms: C_6  and  C_7
REMARK    4  A    between atoms: C_22  and  C_23
REMARK    5  A    between atoms: C_31  and  O_32
REMARK    6  A    between atoms: O_32  and  C_33
REMARK                            x       y       z     vdW  Elec       q    Type
REMARK                         _______ _______ _______ _____ _____    ______ ____
ROOT
ATOM      1  C   UNL     1       1.410   9.792  19.470  0.00  0.00    +0.000 C 
ATOM      2  C   UNL     1       2.504   9.636  18.422  0.00  0.00    +0.000 C 
ATOM      3  C   UNL     1       2.626   8.224  17.930  0.00  0.00    +0.000 C 
ATOM      4  O   UNL     1       2.699   7.978  16.724  0.00  0.00    +0.000 OA
ATOM      5  C   UNL     1       2.650   7.133  18.933  0.00  0.00    +0.000 C 
ATOM      6  C   UNL     1       1.831   7.246  20.004  0.00  0.00    +0.000 C 
ATOM      7  C   UNL     1       1.153   8.559  20.361  0.00  0.00    +0.000 C 
ATOM      8  N   UNL     1       1.491   6.199  20.864  0.00  0.00    +0.000 N 
ATOM      9  C   UNL     1       1.936   4.855  20.855  0.00  0.00    +0.000 A 
ATOM     10  C   UNL     1       1.010   3.816  21.028  0.00  0.00    +0.000 A 
ATOM     11  C   UNL     1       1.411   2.475  20.937  0.00  0.00    +0.000 A 
ATOM     12  C   UNL     1       2.749   2.149  20.724  0.00  0.00    +0.000 A 
ATOM     13  C   UNL     1       3.673   3.163  20.508  0.00  0.00    +0.000 A 
ATOM     14  C   UNL     1       3.257   4.500  20.510  0.00  0.00    +0.000 A 
ATOM     15  N   UNL     1       4.133   5.453  19.907  0.00  0.00    +0.000 N 
ATOM     16  C   UNL     1       3.449   5.885  18.649  0.00  0.00    +0.000 C 
ATOM     17  H   UNL     1       0.647   6.345  21.410  0.00  0.00    +0.000 HD
ATOM     18  H   UNL     1       4.157   6.256  20.534  0.00  0.00    +0.000 HD
ENDROOT
BRANCH  16  19
ATOM     19  C   UNL     1       4.454   5.857  17.518  0.00  0.00    +0.000 A 
ATOM     20  C   UNL     1       5.424   6.886  17.497  0.00  0.00    +0.000 A 
ATOM     21  C   UNL     1       6.427   6.926  16.533  0.00  0.00    +0.000 A 
ATOM     22  C   UNL     1       6.473   5.943  15.554  0.00  0.00    +0.000 A 
ATOM     23  C   UNL     1       5.507   4.935  15.534  0.00  0.00    +0.000 A 
ATOM     24  C   UNL     1       4.498   4.891  16.505  0.00  0.00    +0.000 A 
ATOM     25 CL   UNL     1       3.353   3.600  16.402  0.00  0.00    +0.000 Cl
ENDBRANCH  16  19
BRANCH   1  29
ATOM     26  C   UNL     1      -2.430  11.108  17.953  0.00  0.00    +0.000 A 
ATOM     27  C   UNL     1      -1.734  10.071  17.312  0.00  0.00    +0.000 A 
ATOM     28  C   UNL     1      -0.490   9.643  17.777  0.00  0.00    +0.000 A 
ATOM     29  C   UNL     1       0.103  10.277  18.869  0.00  0.00    +0.000 A 
ATOM     30  C   UNL     1      -0.556  11.371  19.449  0.00  0.00    +0.000 A 
ATOM     31  C   UNL     1      -1.813  11.800  19.002  0.00  0.00    +0.000 A 
BRANCH  26  33
ATOM     32  C   UNL     1      -4.015  11.151  16.196  0.00  0.00    +0.000 C 
ATOM     33  O   UNL     1      -3.690  11.462  17.552  0.00  0.00    +0.000 OA
ENDBRANCH  26  33
BRANCH  31  34
ATOM     34  O   UNL     1      -2.271  12.867  19.729  0.00  0.00    +0.000 OA
ATOM     35  C   UNL     1      -2.695  12.658  21.064  0.00  0.00    +0.000 C 
ENDBRANCH  31  34
ENDBRANCH   1  29
TORSDOF 4
ENDMDL
MODEL 5
REMARK VINA RESULT:      -7.7      4.901      9.605
REMARK  Name = 
REMARK  6 active torsions:
REMARK  status: ('A' for Active; 'I' for Inactive)
REMARK    1  A    between atoms: C_1  and  O_2
REMARK    2  A    between atoms: O_2  and  C_3
REMARK    3  A    between atoms: C_6  and  C_7
REMARK    4  A    between atoms: C_22  and  C_23
REMARK    5  A    between atoms: C_31  and  O_32
REMARK    6  A    between atoms: O_32  and  C_33
REMARK                            x       y       z     vdW  Elec       q    Type
REMARK                         _______ _______ _______ _____ _____    ______ ____
ROOT
ATOM      1  C   UNL     1       1.197   9.603  18.172  0.00  0.00    +0.000 C 
ATOM      2  C   UNL     1       0.542   8.427  18.886  0.00  0.00    +0.000 C 
ATOM      3  C   UNL     1       1.548   7.478  19.465  0.00  0.00    +0.000 C 
ATOM      4  O   UNL     1       1.438   7.066  20.622  0.00  0.00    +0.000 OA
ATOM      5  C   UNL     1       2.683   7.054  18.610  0.00  0.00    +0.000 C 
ATOM      6  C   UNL     1       3.242   7.983  17.802  0.00  0.00    +0.000 C 
ATOM      7  C   UNL     1       2.563   9.313  17.516  0.00  0.00    +0.000 C 
ATOM      8  N   UNL     1       4.487   7.857  17.180  0.00  0.00    +0.000 N 
ATOM      9  C   UNL     1       5.389   6.765  17.202  0.00  0.00    +0.000 A 
ATOM     10  C   UNL     1       6.758   7.000  17.398  0.00  0.00    +0.000 A 
ATOM     11  C   UNL     1       7.660   5.932  17.508  0.00  0.00    +0.000 A 
ATOM     12  C   UNL     1       7.220   4.617  17.374  0.00  0.00    +0.000 A 
ATOM     13  C   UNL     1       5.863   4.362  17.223  0.00  0.00    +0.000 A 
ATOM     14  C   UNL     1       4.951   5.425  17.200  0.00  0.00    +0.000 A 
ATOM     15  N   UNL     1       3.580   5.107  17.438  0.00  0.00    +0.000 N 
ATOM     16  C   UNL     1       3.265   5.673  18.785  0.00  0.00    +0.000 C 
ATOM     17  H   UNL     1       4.911   8.729  16.878  0.00  0.00    +0.000 HD
ATOM     18  H   UNL     1       3.041   5.633  16.751  0.00  0.00    +0.000 HD
ENDROOT
BRANCH  16  19
ATOM     19  C   UNL     1       2.528   4.625  19.591  0.00  0.00    +0.000 A 
ATOM     20  C   UNL     1       2.965   4.414  20.919  0.00  0.00    +0.000 A 
ATOM     21  C   UNL     1       2.324   3.512  21.765  0.00  0.00    +0.000 A 
ATOM     22  C   UNL     1       1.238   2.787  21.294  0.00  0.00    +0.000 A 
ATOM     23  C   UNL     1       0.809   2.955  19.976  0.00  0.00    +0.000 A 
ATOM     24  C   UNL     1       1.450   3.863  19.124  0.00  0.00    +0.000 A 
ATOM     25 CL   UNL     1       0.841   4.006  17.512  0.00  0.00    +0.000 Cl
ENDBRANCH  16  19
BRANCH   1  29
ATOM     26  C   UNL     1       1.257  13.136  20.680  0.00  0.00    +0.000 A 
ATOM     27  C   UNL     1       1.957  13.120  19.463  0.00  0.00    +0.000 A 
ATOM     28  C   UNL     1       1.961  11.987  18.649  0.00  0.00    +0.000 A 
ATOM     29  C   UNL     1       1.299  10.830  19.059  0.00  0.00    +0.000 A 
ATOM     30  C   UNL     1       0.678  10.823  20.317  0.00  0.00    +0.000 A 
ATOM     31  C   UNL     1       0.652  11.959  21.137  0.00  0.00    +0.000 A 
BRANCH  26  33
ATOM     32  C   UNL     1       2.407  14.980  21.615  0.00  0.00    +0.000 C 
ATOM     33  O   UNL     1       1.178  14.279  21.430  0.00  0.00    +0.000 OA
ENDBRANCH  26  33
BRANCH  31  34
ATOM     34  O   UNL     1      -0.027  11.726  22.303  0.00  0.00    +0.000 OA
ATOM     35  C   UNL     1      -0.444  10.406  22.605  0.00  0.00    +0.000 C 
ENDBRANCH  31  34
ENDBRANCH   1  29
TORSDOF 4
ENDMDL
MODEL 6
REMARK VINA RESULT:      -7.6      1.106      1.411
REMARK  Name = 
REMARK  6 active torsions:
REMARK  status: ('A' for Active; 'I' for Inactive)
REMARK    1  A    between atoms: C_1  and  O_2
REMARK    2  A    between atoms: O_2  and  C_3
REMARK    3  A    between atoms: C_6  and  C_7
REMARK    4  A    between atoms: C_22  and  C_23
REMARK    5  A    between atoms: C_31  and  O_32
REMARK    6  A    between atoms: O_32  and  C_33
REMARK                            x       y       z     vdW  Elec       q    Type
REMARK                         _______ _______ _______ _____ _____    ______ ____
ROOT
ATOM      1  C   UNL     1       0.335  11.389  19.049  0.00  0.00    +0.000 C 
ATOM      2  C   UNL     1       0.438  12.360  20.218  0.00  0.00    +0.000 C 
ATOM      3  C   UNL     1      -0.801  12.371  21.062  0.00  0.00    +0.000 C 
ATOM      4  O   UNL     1      -0.731  12.307  22.292  0.00  0.00    +0.000 OA
ATOM      5  C   UNL     1      -2.114  12.454  20.378  0.00  0.00    +0.000 C 
ATOM      6  C   UNL     1      -2.268  11.758  19.228  0.00  0.00    +0.000 C 
ATOM      7  C   UNL     1      -1.082  11.176  18.476  0.00  0.00    +0.000 C 
ATOM      8  N   UNL     1      -3.496  11.466  18.629  0.00  0.00    +0.000 N 
ATOM      9  C   UNL     1      -4.799  11.851  19.029  0.00  0.00    +0.000 A 
ATOM     10  C   UNL     1      -5.835  10.906  19.022  0.00  0.00    +0.000 A 
ATOM     11  C   UNL     1      -7.113  11.239  19.494  0.00  0.00    +0.000 A 
ATOM     12  C   UNL     1      -7.391  12.533  19.932  0.00  0.00    +0.000 A 
ATOM     13  C   UNL     1      -6.368  13.471  19.986  0.00  0.00    +0.000 A 
ATOM     14  C   UNL     1      -5.071  13.113  19.598  0.00  0.00    +0.000 A 
ATOM     15  N   UNL     1      -4.007  13.959  20.034  0.00  0.00    +0.000 N 
ATOM     16  C   UNL     1      -3.258  13.166  21.056  0.00  0.00    +0.000 C 
ATOM     17  H   UNL     1      -3.484  10.690  17.973  0.00  0.00    +0.000 HD
ATOM     18  H   UNL     1      -3.392  14.083  19.230  0.00  0.00    +0.000 HD
ENDROOT
BRANCH  16  19
ATOM     19  C   UNL     1      -3.008  14.045  22.263  0.00  0.00    +0.000 A 
ATOM     20  C   UNL     1      -2.519  15.349  22.015  0.00  0.00    +0.000 A 
ATOM     21  C   UNL     1      -2.305  16.258  23.048  0.00  0.00    +0.000 A 
ATOM     22  C   UNL     1      -2.561  15.877  24.358  0.00  0.00    +0.000 A 
ATOM     23  C   UNL     1      -3.013  14.584  24.630  0.00  0.00    +0.000 A 
ATOM     24  C   UNL     1      -3.232  13.668  23.593  0.00  0.00    +0.000 A 
ATOM     25 CL   UNL     1      -3.799  12.094  24.029  0.00  0.00    +0.000 Cl
ENDBRANCH  16  19
BRANCH   1  29
ATOM     26  C   UNL     1       2.007   7.459  19.781  0.00  0.00    +0.000 A 
ATOM     27  C   UNL     1       1.407   8.179  20.827  0.00  0.00    +0.000 A 
ATOM     28  C   UNL     1       0.875   9.451  20.614  0.00  0.00    +0.000 A 
ATOM     29  C   UNL     1       0.975  10.048  19.357  0.00  0.00    +0.000 A 
ATOM     30  C   UNL     1       1.656   9.362  18.340  0.00  0.00    +0.000 A 
ATOM     31  C   UNL     1       2.180   8.077  18.536  0.00  0.00    +0.000 A 
BRANCH  26  33
ATOM     32  C   UNL     1       1.513   5.297  20.605  0.00  0.00    +0.000 C 
ATOM     33  O   UNL     1       2.443   6.175  19.971  0.00  0.00    +0.000 OA
ENDBRANCH  26  33
BRANCH  31  34
ATOM     34  O   UNL     1       2.779   7.596  17.403  0.00  0.00    +0.000 OA
ATOM     35  C   UNL     1       4.147   7.229  17.451  0.00  0.00    +0.000 C 
ENDBRANCH  31  34
ENDBRANCH   1  29
TORSDOF 4
ENDMDL
MODEL 7
REMARK VINA RESULT:      -7.6      1.134      1.345
REMARK  Name = 
REMARK  6 active torsions:
REMARK  status: ('A' for Active; 'I' for Inactive)
REMARK    1  A    between atoms: C_1  and  O_2
REMARK    2  A    between atoms: O_2  and  C_3
REMARK    3  A    between atoms: C_6  and  C_7
REMARK    4  A    between atoms: C_22  and  C_23
REMARK    5  A    between atoms: C_31  and  O_32
REMARK    6  A    between atoms: O_32  and  C_33
REMARK                            x       y       z     vdW  Elec       q    Type
REMARK                         _______ _______ _______ _____ _____    ______ ____
ROOT
ATOM      1  C   UNL     1       1.321   9.819  18.590  0.00  0.00    +0.000 C 
ATOM      2  C   UNL     1       1.447  10.839  19.715  0.00  0.00    +0.000 C 
ATOM      3  C   UNL     1       0.168  11.010  20.477  0.00  0.00    +0.000 C 
ATOM      4  O   UNL     1       0.161  11.007  21.710  0.00  0.00    +0.000 OA
ATOM      5  C   UNL     1      -1.089  11.175  19.709  0.00  0.00    +0.000 C 
ATOM      6  C   UNL     1      -1.242  10.434  18.587  0.00  0.00    +0.000 C 
ATOM      7  C   UNL     1      -0.075   9.706  17.941  0.00  0.00    +0.000 C 
ATOM      8  N   UNL     1      -2.455  10.223  17.927  0.00  0.00    +0.000 N 
ATOM      9  C   UNL     1      -3.736  10.747  18.225  0.00  0.00    +0.000 A 
ATOM     10  C   UNL     1      -4.855   9.902  18.200  0.00  0.00    +0.000 A 
ATOM     11  C   UNL     1      -6.121  10.376  18.574  0.00  0.00    +0.000 A 
ATOM     12  C   UNL     1      -6.300  11.712  18.929  0.00  0.00    +0.000 A 
ATOM     13  C   UNL     1      -5.198  12.554  19.001  0.00  0.00    +0.000 A 
ATOM     14  C   UNL     1      -3.920  12.058  18.713  0.00  0.00    +0.000 A 
ATOM     15  N   UNL     1      -2.808  12.826  19.173  0.00  0.00    +0.000 N 
ATOM     16  C   UNL     1      -2.198  12.025  20.278  0.00  0.00    +0.000 C 
ATOM     17  H   UNL     1      -2.478   9.415  17.313  0.00  0.00    +0.000 HD
ATOM     18  H   UNL     1      -2.139  12.849  18.405  0.00  0.00    +0.000 HD
ENDROOT
BRANCH  16  19
ATOM     19  C   UNL     1      -1.936  12.942  21.454  0.00  0.00    +0.000 A 
ATOM     20  C   UNL     1      -2.596  12.633  22.666  0.00  0.00    +0.000 A 
ATOM     21  C   UNL     1      -2.386  13.378  23.823  0.00  0.00    +0.000 A 
ATOM     22  C   UNL     1      -1.521  14.463  23.790  0.00  0.00    +0.000 A 
ATOM     23  C   UNL     1      -0.884  14.807  22.596  0.00  0.00    +0.000 A 
ATOM     24  C   UNL     1      -1.091  14.057  21.431  0.00  0.00    +0.000 A 
ATOM     25 CL   UNL     1      -0.251  14.557  20.005  0.00  0.00    +0.000 Cl
ENDBRANCH  16  19
BRANCH   1  29
ATOM     26  C   UNL     1       2.590   5.800  19.598  0.00  0.00    +0.000 A 
ATOM     27  C   UNL     1       1.863   6.566  20.523  0.00  0.00    +0.000 A 
ATOM     28  C   UNL     1       1.458   7.866  20.223  0.00  0.00    +0.000 A 
ATOM     29  C   UNL     1       1.812   8.444  19.003  0.00  0.00    +0.000 A 
ATOM     30  C   UNL     1       2.615   7.707  18.120  0.00  0.00    +0.000 A 
ATOM     31  C   UNL     1       3.015   6.394  18.402  0.00  0.00    +0.000 A 
BRANCH  26  33
ATOM     32  C   UNL     1       2.189   3.892  20.938  0.00  0.00    +0.000 C 
ATOM     33  O   UNL     1       2.904   4.493  19.859  0.00  0.00    +0.000 OA
ENDBRANCH  26  33
BRANCH  31  34
ATOM     34  O   UNL     1       3.770   5.866  17.390  0.00  0.00    +0.000 OA
ATOM     35  C   UNL     1       4.832   6.634  16.851  0.00  0.00    +0.000 C 
ENDBRANCH  31  34
ENDBRANCH   1  29
TORSDOF 4
ENDMDL
MODEL 8
REMARK VINA RESULT:      -7.5      4.939      9.551
REMARK  Name = 
REMARK  6 active torsions:
REMARK  status: ('A' for Active; 'I' for Inactive)
REMARK    1  A    between atoms: C_1  and  O_2
REMARK    2  A    between atoms: O_2  and  C_3
REMARK    3  A    between atoms: C_6  and  C_7
REMARK    4  A    between atoms: C_22  and  C_23
REMARK    5  A    between atoms: C_31  and  O_32
REMARK    6  A    between atoms: O_32  and  C_33
REMARK                            x       y       z     vdW  Elec       q    Type
REMARK                         _______ _______ _______ _____ _____    ______ ____
ROOT
ATOM      1  C   UNL     1       1.189   9.637  18.160  0.00  0.00    +0.000 C 
ATOM      2  C   UNL     1       0.532   8.459  18.867  0.00  0.00    +0.000 C 
ATOM      3  C   UNL     1       1.537   7.510  19.449  0.00  0.00    +0.000 C 
ATOM      4  O   UNL     1       1.420   7.094  20.604  0.00  0.00    +0.000 OA
ATOM      5  C   UNL     1       2.678   7.091  18.600  0.00  0.00    +0.000 C 
ATOM      6  C   UNL     1       3.240   8.024  17.798  0.00  0.00    +0.000 C 
ATOM      7  C   UNL     1       2.560   9.352  17.512  0.00  0.00    +0.000 C 
ATOM      8  N   UNL     1       4.490   7.902  17.184  0.00  0.00    +0.000 N 
ATOM      9  C   UNL     1       5.394   6.812  17.209  0.00  0.00    +0.000 A 
ATOM     10  C   UNL     1       6.761   7.050  17.414  0.00  0.00    +0.000 A 
ATOM     11  C   UNL     1       7.665   5.983  17.527  0.00  0.00    +0.000 A 
ATOM     12  C   UNL     1       7.229   4.668  17.387  0.00  0.00    +0.000 A 
ATOM     13  C   UNL     1       5.874   4.410  17.226  0.00  0.00    +0.000 A 
ATOM     14  C   UNL     1       4.959   5.471  17.201  0.00  0.00    +0.000 A 
ATOM     15  N   UNL     1       3.587   5.149  17.429  0.00  0.00    +0.000 N 
ATOM     16  C   UNL     1       3.263   5.711  18.776  0.00  0.00    +0.000 C 
ATOM     17  H   UNL     1       4.913   8.776  16.887  0.00  0.00    +0.000 HD
ATOM     18  H   UNL     1       3.051   5.676  16.739  0.00  0.00    +0.000 HD
ENDROOT
BRANCH  16  19
ATOM     19  C   UNL     1       2.522   4.659  19.574  0.00  0.00    +0.000 A 
ATOM     20  C   UNL     1       2.944   4.453  20.908  0.00  0.00    +0.000 A 
ATOM     21  C   UNL     1       2.300   3.548  21.747  0.00  0.00    +0.000 A 
ATOM     22  C   UNL     1       1.224   2.815  21.264  0.00  0.00    +0.000 A 
ATOM     23  C   UNL     1       0.810   2.978  19.941  0.00  0.00    +0.000 A 
ATOM     24  C   UNL     1       1.455   3.889  19.095  0.00  0.00    +0.000 A 
ATOM     25 CL   UNL     1       0.865   4.026  17.476  0.00  0.00    +0.000 Cl
ENDBRANCH  16  19
BRANCH   1  29
ATOM     26  C   UNL     1       1.684  13.080  20.745  0.00  0.00    +0.000 A 
ATOM     27  C   UNL     1       0.789  12.056  21.093  0.00  0.00    +0.000 A 
ATOM     28  C   UNL     1       0.605  10.947  20.268  0.00  0.00    +0.000 A 
ATOM     29  C   UNL     1       1.283  10.862  19.051  0.00  0.00    +0.000 A 
ATOM     30  C   UNL     1       2.106  11.931  18.666  0.00  0.00    +0.000 A 
ATOM     31  C   UNL     1       2.312  13.043  19.493  0.00  0.00    +0.000 A 
BRANCH  26  33
ATOM     32  C   UNL     1       0.793  14.901  21.965  0.00  0.00    +0.000 C 
ATOM     33  O   UNL     1       1.931  14.120  21.601  0.00  0.00    +0.000 OA
ENDBRANCH  26  33
BRANCH  31  34
ATOM     34  O   UNL     1       3.169  13.946  18.923  0.00  0.00    +0.000 OA
ATOM     35  C   UNL     1       2.635  15.100  18.297  0.00  0.00    +0.000 C 
ENDBRANCH  31  34
ENDBRANCH   1  29
TORSDOF 4
ENDMDL
MODEL 9
REMARK VINA RESULT:      -7.5      1.196      1.521
REMARK  Name = 
REMARK  6 active torsions:
REMARK  status: ('A' for Active; 'I' for Inactive)
REMARK    1  A    between atoms: C_1  and  O_2
REMARK    2  A    between atoms: O_2  and  C_3
REMARK    3  A    between atoms: C_6  and  C_7
REMARK    4  A    between atoms: C_22  and  C_23
REMARK    5  A    between atoms: C_31  and  O_32
REMARK    6  A    between atoms: O_32  and  C_33
REMARK                            x       y       z     vdW  Elec       q    Type
REMARK                         _______ _______ _______ _____ _____    ______ ____
ROOT
ATOM      1  C   UNL     1       1.005  10.339  18.618  0.00  0.00    +0.000 C 
ATOM      2  C   UNL     1       1.194  11.406  19.688  0.00  0.00    +0.000 C 
ATOM      3  C   UNL     1      -0.026  11.581  20.542  0.00  0.00    +0.000 C 
ATOM      4  O   UNL     1       0.062  11.628  21.771  0.00  0.00    +0.000 OA
ATOM      5  C   UNL     1      -1.343  11.687  19.869  0.00  0.00    +0.000 C 
ATOM      6  C   UNL     1      -1.564  10.898  18.793  0.00  0.00    +0.000 C 
ATOM      7  C   UNL     1      -0.434  10.169  18.085  0.00  0.00    +0.000 C 
ATOM      8  N   UNL     1      -2.820  10.634  18.240  0.00  0.00    +0.000 N 
ATOM      9  C   UNL     1      -4.087  11.143  18.617  0.00  0.00    +0.000 A 
ATOM     10  C   UNL     1      -5.183  10.274  18.713  0.00  0.00    +0.000 A 
ATOM     11  C   UNL     1      -6.427  10.736  19.166  0.00  0.00    +0.000 A 
ATOM     12  C   UNL     1      -6.611  12.081  19.482  0.00  0.00    +0.000 A 
ATOM     13  C   UNL     1      -5.528  12.948  19.434  0.00  0.00    +0.000 A 
ATOM     14  C   UNL     1      -4.264  12.468  19.066  0.00  0.00    +0.000 A 
ATOM     15  N   UNL     1      -3.139  13.278  19.406  0.00  0.00    +0.000 N 
ATOM     16  C   UNL     1      -2.425  12.536  20.490  0.00  0.00    +0.000 C 
ATOM     17  H   UNL     1      -2.872   9.801  17.661  0.00  0.00    +0.000 HD
ATOM     18  H   UNL     1      -2.532  13.283  18.587  0.00  0.00    +0.000 HD
ENDROOT
BRANCH  16  19
ATOM     19  C   UNL     1      -2.095  13.506  21.605  0.00  0.00    +0.000 A 
ATOM     20  C   UNL     1      -1.535  14.749  21.227  0.00  0.00    +0.000 A 
ATOM     21  C   UNL     1      -1.243  15.735  22.166  0.00  0.00    +0.000 A 
ATOM     22  C   UNL     1      -1.490  15.493  23.510  0.00  0.00    +0.000 A 
ATOM     23  C   UNL     1      -2.013  14.261  23.910  0.00  0.00    +0.000 A 
ATOM     24  C   UNL     1      -2.310  13.269  22.967  0.00  0.00    +0.000 A 
ATOM     25 CL   UNL     1      -2.960  11.780  23.559  0.00  0.00    +0.000 Cl
ENDBRANCH  16  19
BRANCH   1  29
ATOM     26  C   UNL     1       2.452   6.393  19.674  0.00  0.00    +0.000 A 
ATOM     27  C   UNL     1       1.748   7.163  20.613  0.00  0.00    +0.000 A 
ATOM     28  C   UNL     1       1.286   8.441  20.296  0.00  0.00    +0.000 A 
ATOM     29  C   UNL     1       1.560   8.992  19.044  0.00  0.00    +0.000 A 
ATOM     30  C   UNL     1       2.342   8.254  18.143  0.00  0.00    +0.000 A 
ATOM     31  C   UNL     1       2.797   6.963  18.442  0.00  0.00    +0.000 A 
BRANCH  26  33
ATOM     32  C   UNL     1       2.167   4.508  21.076  0.00  0.00    +0.000 C 
ATOM     33  O   UNL     1       2.821   5.105  19.956  0.00  0.00    +0.000 OA
ENDBRANCH  26  33
BRANCH  31  34
ATOM     34  O   UNL     1       3.519   6.429  17.408  0.00  0.00    +0.000 OA
ATOM     35  C   UNL     1       4.924   6.608  17.385  0.00  0.00    +0.000 C 
ENDBRANCH  31  34
ENDBRANCH   1  29
TORSDOF 4
ENDMDL
