MODEL 1
REMARK VINA RESULT:      -7.5      0.000      0.000
REMARK  Name = 
REMARK  9 active torsions:
REMARK  status: ('A' for Active; 'I' for Inactive)
REMARK    1  A    between atoms: C_1  and  O_2
REMARK    2  A    between atoms: O_2  and  C_3
REMARK    3  A    between atoms: C_8  and  C_9
REMARK    4  A    between atoms: N_14  and  C_15
REMARK    5  A    between atoms: C_15  and  C_16
REMARK    6  A    between atoms: C_16  and  O_18
REMARK    7  A    between atoms: N_21  and  C_22
REMARK    8  A    between atoms: C_22  and  C_23
REMARK    9  A    between atoms: C_26  and  C_27
REMARK                            x       y       z     vdW  Elec       q    Type
REMARK                         _______ _______ _______ _____ _____    ______ ____
ROOT
ATOM      1  C   UNL     1       4.405   2.241  20.243  0.00  0.00    +0.000 A 
ATOM      2  C   UNL     1       3.055   2.164  20.588  0.00  0.00    +0.000 A 
ATOM      3  C   UNL     1       2.180   3.218  20.295  0.00  0.00    +0.000 A 
ATOM      4  C   UNL     1       2.677   4.358  19.651  0.00  0.00    +0.000 A 
ATOM      5  N   UNL     1       2.014   5.493  19.277  0.00  0.00    +0.000 NA
ATOM      6  C   UNL     1       2.926   6.292  18.758  0.00  0.00    +0.000 A 
ATOM      7  N   UNL     1       4.170   5.681  18.739  0.00  0.00    +0.000 N 
ATOM      8  C   UNL     1       4.024   4.434  19.325  0.00  0.00    +0.000 A 
ATOM      9  C   UNL     1       4.912   3.386  19.608  0.00  0.00    +0.000 A 
ENDROOT
BRANCH   6  10
ATOM     10  C   UNL     1       2.708   7.613  18.303  0.00  0.00    +0.000 C 
ATOM     11  C   UNL     1       1.927   8.471  18.971  0.00  0.00    +0.000 C 
ATOM     12  S   UNL     1       1.208   8.257  20.519  0.00  0.00    +0.000 S 
ATOM     13  C   UNL     1       0.721   9.942  20.630  0.00  0.00    +0.000 C 
ATOM     14  S   UNL     1       0.094  10.586  22.030  0.00  0.00    +0.000 S 
ATOM     15  N   UNL     1       0.952  10.569  19.424  0.00  0.00    +0.000 N 
ATOM     16  C   UNL     1       1.617   9.831  18.464  0.00  0.00    +0.000 C 
ATOM     17  O   UNL     1       1.988  10.279  17.385  0.00  0.00    +0.000 OA
BRANCH  15  18
ATOM     18  C   UNL     1       0.594  11.955  19.121  0.00  0.00    +0.000 C 
BRANCH  18  19
ATOM     19  C   UNL     1       1.779  12.890  19.312  0.00  0.00    +0.000 C 
ATOM     20  O   UNL     1       2.152  13.296  20.405  0.00  0.00    +0.000 OA
BRANCH  19  21
ATOM     21  O   UNL     1       2.382  13.273  18.162  0.00  0.00    +0.000 OA
ATOM     22  H   UNL     1       3.309  13.598  18.268  0.00  0.00    +0.000 HD
ENDBRANCH  19  21
ENDBRANCH  18  19
ENDBRANCH  15  18
ENDBRANCH   6  10
BRANCH   1  24
ATOM     23  C   UNL     1       5.491   0.825  21.817  0.00  0.00    +0.000 C 
ATOM     24  O   UNL     1       5.342   1.268  20.473  0.00  0.00    +0.000 OA
ENDBRANCH   1  24
BRANCH   7  25
ATOM     25  C   UNL     1       5.440   6.241  18.281  0.00  0.00    +0.000 C 
BRANCH  25  26
ATOM     26  C   UNL     1       5.810   5.727  16.912  0.00  0.00    +0.000 A 
ATOM     27  C   UNL     1       5.131   6.180  15.774  0.00  0.00    +0.000 A 
ATOM     28  C   UNL     1       5.337   5.567  14.536  0.00  0.00    +0.000 A 
ATOM     29  C   UNL     1       6.220   4.490  14.416  0.00  0.00    +0.000 A 
ATOM     30  C   UNL     1       6.322   3.711  13.140  0.00  0.00    +0.000 C 
ATOM     31  C   UNL     1       6.990   4.120  15.523  0.00  0.00    +0.000 A 
ATOM     32  C   UNL     1       6.786   4.733  16.759  0.00  0.00    +0.000 A 
ENDBRANCH  25  26
ENDBRANCH   7  25
TORSDOF 7
ENDMDL
MODEL 2
REMARK VINA RESULT:      -7.4      1.100      1.456
REMARK  Name = 
REMARK  9 active torsions:
REMARK  status: ('A' for Active; 'I' for Inactive)
REMARK    1  A    between atoms: C_1  and  O_2
REMARK    2  A    between atoms: O_2  and  C_3
REMARK    3  A    between atoms: C_8  and  C_9
REMARK    4  A    between atoms: N_14  and  C_15
REMARK    5  A    between atoms: C_15  and  C_16
REMARK    6  A    between atoms: C_16  and  O_18
REMARK    7  A    between atoms: N_21  and  C_22
REMARK    8  A    between atoms: C_22  and  C_23
REMARK    9  A    between atoms: C_26  and  C_27
REMARK                            x       y       z     vdW  Elec       q    Type
REMARK                         _______ _______ _______ _____ _____    ______ ____
ROOT
ATOM      1  C   UNL     1       4.364   2.226  20.283  0.00  0.00    +0.000 A 
ATOM      2  C   UNL     1       3.056   2.226  20.770  0.00  0.00    +0.000 A 
ATOM      3  C   UNL     1       2.200   3.307  20.524  0.00  0.00    +0.000 A 
ATOM      4  C   UNL     1       2.674   4.396  19.783  0.00  0.00    +0.000 A 
ATOM      5  N   UNL     1       2.024   5.545  19.431  0.00  0.00    +0.000 NA
ATOM      6  C   UNL     1       2.908   6.281  18.785  0.00  0.00    +0.000 A 
ATOM      7  N   UNL     1       4.116   5.611  18.662  0.00  0.00    +0.000 N 
ATOM      8  C   UNL     1       3.981   4.396  19.314  0.00  0.00    +0.000 A 
ATOM      9  C   UNL     1       4.849   3.320  19.548  0.00  0.00    +0.000 A 
ENDROOT
BRANCH   6  10
ATOM     10  C   UNL     1       2.699   7.591  18.298  0.00  0.00    +0.000 C 
ATOM     11  C   UNL     1       1.919   8.469  18.941  0.00  0.00    +0.000 C 
ATOM     12  S   UNL     1       1.189   8.294  20.489  0.00  0.00    +0.000 S 
ATOM     13  C   UNL     1       0.709   9.983  20.557  0.00  0.00    +0.000 C 
ATOM     14  S   UNL     1       0.078  10.663  21.938  0.00  0.00    +0.000 S 
ATOM     15  N   UNL     1       0.951  10.581  19.338  0.00  0.00    +0.000 N 
ATOM     16  C   UNL     1       1.619   9.817  18.401  0.00  0.00    +0.000 C 
ATOM     17  O   UNL     1       1.998  10.239  17.314  0.00  0.00    +0.000 OA
BRANCH  15  18
ATOM     18  C   UNL     1       0.601  11.961  19.001  0.00  0.00    +0.000 C 
BRANCH  18  19
ATOM     19  C   UNL     1      -0.850  12.076  18.562  0.00  0.00    +0.000 C 
ATOM     20  O   UNL     1      -1.410  11.253  17.850  0.00  0.00    +0.000 OA
BRANCH  19  21
ATOM     21  O   UNL     1      -1.481  13.193  18.997  0.00  0.00    +0.000 OA
ATOM     22  H   UNL     1      -1.756  13.818  18.283  0.00  0.00    +0.000 HD
ENDBRANCH  19  21
ENDBRANCH  18  19
ENDBRANCH  15  18
ENDBRANCH   6  10
BRANCH   1  24
ATOM     23  C   UNL     1       5.633   0.899  21.796  0.00  0.00    +0.000 C 
ATOM     24  O   UNL     1       5.278   1.219  20.457  0.00  0.00    +0.000 OA
ENDBRANCH   1  24
BRANCH   7  25
ATOM     25  C   UNL     1       5.353   6.093  18.050  0.00  0.00    +0.000 C 
BRANCH  25  26
ATOM     26  C   UNL     1       5.684   5.327  16.795  0.00  0.00    +0.000 A 
ATOM     27  C   UNL     1       6.966   5.398  16.234  0.00  0.00    +0.000 A 
ATOM     28  C   UNL     1       7.220   4.851  14.974  0.00  0.00    +0.000 A 
ATOM     29  C   UNL     1       6.197   4.227  14.254  0.00  0.00    +0.000 A 
ATOM     30  C   UNL     1       6.406   3.791  12.835  0.00  0.00    +0.000 C 
ATOM     31  C   UNL     1       4.953   4.044  14.864  0.00  0.00    +0.000 A 
ATOM     32  C   UNL     1       4.699   4.590  16.123  0.00  0.00    +0.000 A 
ENDBRANCH  25  26
ENDBRANCH   7  25
TORSDOF 7
ENDMDL
MODEL 3
REMARK VINA RESULT:      -7.4      3.181      8.744
REMARK  Name = 
REMARK  9 active torsions:
REMARK  status: ('A' for Active; 'I' for Inactive)
REMARK    1  A    between atoms: C_1  and  O_2
REMARK    2  A    between atoms: O_2  and  C_3
REMARK    3  A    between atoms: C_8  and  C_9
REMARK    4  A    between atoms: N_14  and  C_15
REMARK    5  A    between atoms: C_15  and  C_16
REMARK    6  A    between atoms: C_16  and  O_18
REMARK    7  A    between atoms: N_21  and  C_22
REMARK    8  A    between atoms: C_22  and  C_23
REMARK    9  A    between atoms: C_26  and  C_27
REMARK                            x       y       z     vdW  Elec       q    Type
REMARK                         _______ _______ _______ _____ _____    ______ ____
ROOT
ATOM      1  C   UNL     1      -1.236  11.185  22.580  0.00  0.00    +0.000 A 
ATOM      2  C   UNL     1      -0.800  10.172  23.434  0.00  0.00    +0.000 A 
ATOM      3  C   UNL     1       0.104   9.199  22.988  0.00  0.00    +0.000 A 
ATOM      4  C   UNL     1       0.565   9.253  21.667  0.00  0.00    +0.000 A 
ATOM      5  N   UNL     1       1.435   8.417  21.024  0.00  0.00    +0.000 NA
ATOM      6  C   UNL     1       1.508   8.853  19.782  0.00  0.00    +0.000 A 
ATOM      7  N   UNL     1       0.739   9.993  19.609  0.00  0.00    +0.000 N 
ATOM      8  C   UNL     1       0.115  10.255  20.818  0.00  0.00    +0.000 A 
ATOM      9  C   UNL     1      -0.787  11.238  21.251  0.00  0.00    +0.000 A 
ENDROOT
BRANCH   6  10
ATOM     10  C   UNL     1       2.235   8.246  18.732  0.00  0.00    +0.000 C 
ATOM     11  C   UNL     1       2.666   6.981  18.809  0.00  0.00    +0.000 C 
ATOM     12  S   UNL     1       2.307   5.816  20.023  0.00  0.00    +0.000 S 
ATOM     13  C   UNL     1       3.006   4.497  19.098  0.00  0.00    +0.000 C 
ATOM     14  S   UNL     1       2.850   2.910  19.573  0.00  0.00    +0.000 S 
ATOM     15  N   UNL     1       3.650   5.002  17.988  0.00  0.00    +0.000 N 
ATOM     16  C   UNL     1       3.503   6.356  17.756  0.00  0.00    +0.000 C 
ATOM     17  O   UNL     1       3.924   6.933  16.759  0.00  0.00    +0.000 OA
BRANCH  15  18
ATOM     18  C   UNL     1       4.416   4.203  17.031  0.00  0.00    +0.000 C 
BRANCH  18  19
ATOM     19  C   UNL     1       5.913   4.339  17.265  0.00  0.00    +0.000 C 
ATOM     20  O   UNL     1       6.696   4.752  16.420  0.00  0.00    +0.000 OA
BRANCH  19  21
ATOM     21  O   UNL     1       6.328   3.933  18.488  0.00  0.00    +0.000 OA
ATOM     22  H   UNL     1       7.278   3.668  18.537  0.00  0.00    +0.000 HD
ENDBRANCH  19  21
ENDBRANCH  18  19
ENDBRANCH  15  18
ENDBRANCH   6  10
BRANCH   1  24
ATOM     23  C   UNL     1      -3.066  12.562  21.933  0.00  0.00    +0.000 C 
ATOM     24  O   UNL     1      -2.108  12.188  22.916  0.00  0.00    +0.000 OA
ENDBRANCH   1  24
BRANCH   7  25
ATOM     25  C   UNL     1       0.525  10.755  18.381  0.00  0.00    +0.000 C 
BRANCH  25  26
ATOM     26  C   UNL     1      -0.939  10.830  18.024  0.00  0.00    +0.000 A 
ATOM     27  C   UNL     1      -1.667  12.006  18.248  0.00  0.00    +0.000 A 
ATOM     28  C   UNL     1      -3.056  12.017  18.102  0.00  0.00    +0.000 A 
ATOM     29  C   UNL     1      -3.739  10.855  17.733  0.00  0.00    +0.000 A 
ATOM     30  C   UNL     1      -5.237  10.803  17.741  0.00  0.00    +0.000 C 
ATOM     31  C   UNL     1      -3.003   9.717  17.388  0.00  0.00    +0.000 A 
ATOM     32  C   UNL     1      -1.616   9.706  17.532  0.00  0.00    +0.000 A 
ENDBRANCH  25  26
ENDBRANCH   7  25
TORSDOF 7
ENDMDL
MODEL 4
REMARK VINA RESULT:      -7.4      2.560      5.429
REMARK  Name = 
REMARK  9 active torsions:
REMARK  status: ('A' for Active; 'I' for Inactive)
REMARK    1  A    between atoms: C_1  and  O_2
REMARK    2  A    between atoms: O_2  and  C_3
REMARK    3  A    between atoms: C_8  and  C_9
REMARK    4  A    between atoms: N_14  and  C_15
REMARK    5  A    between atoms: C_15  and  C_16
REMARK    6  A    between atoms: C_16  and  O_18
REMARK    7  A    between atoms: N_21  and  C_22
REMARK    8  A    between atoms: C_22  and  C_23
REMARK    9  A    between atoms: C_26  and  C_27
REMARK                            x       y       z     vdW  Elec       q    Type
REMARK                         _______ _______ _______ _____ _____    ______ ____
ROOT
ATOM      1  C   UNL     1       6.544   4.317  14.154  0.00  0.00    +0.000 A 
ATOM      2  C   UNL     1       7.409   5.287  14.663  0.00  0.00    +0.000 A 
ATOM      3  C   UNL     1       7.124   5.939  15.869  0.00  0.00    +0.000 A 
ATOM      4  C   UNL     1       5.953   5.607  16.562  0.00  0.00    +0.000 A 
ATOM      5  N   UNL     1       5.478   6.113  17.739  0.00  0.00    +0.000 NA
ATOM      6  C   UNL     1       4.317   5.522  17.948  0.00  0.00    +0.000 A 
ATOM      7  N   UNL     1       4.045   4.598  16.950  0.00  0.00    +0.000 N 
ATOM      8  C   UNL     1       5.089   4.653  16.042  0.00  0.00    +0.000 A 
ATOM      9  C   UNL     1       5.363   3.988  14.838  0.00  0.00    +0.000 A 
ENDROOT
BRANCH   6  10
ATOM     10  C   UNL     1       3.429   5.792  19.014  0.00  0.00    +0.000 C 
ATOM     11  C   UNL     1       2.767   6.952  19.106  0.00  0.00    +0.000 C 
ATOM     12  S   UNL     1       2.695   8.220  17.946  0.00  0.00    +0.000 S 
ATOM     13  C   UNL     1       1.404   9.054  18.799  0.00  0.00    +0.000 C 
ATOM     14  S   UNL     1       0.613  10.360  18.137  0.00  0.00    +0.000 S 
ATOM     15  N   UNL     1       1.194   8.451  20.020  0.00  0.00    +0.000 N 
ATOM     16  C   UNL     1       1.898   7.287  20.261  0.00  0.00    +0.000 C 
ATOM     17  O   UNL     1       1.743   6.581  21.251  0.00  0.00    +0.000 OA
BRANCH  15  18
ATOM     18  C   UNL     1       0.251   8.924  21.035  0.00  0.00    +0.000 C 
BRANCH  18  19
ATOM     19  C   UNL     1       0.915   9.890  22.003  0.00  0.00    +0.000 C 
ATOM     20  O   UNL     1       1.740   9.551  22.841  0.00  0.00    +0.000 OA
BRANCH  19  21
ATOM     21  O   UNL     1       0.495  11.173  21.892  0.00  0.00    +0.000 OA
ATOM     22  H   UNL     1      -0.424  11.280  21.545  0.00  0.00    +0.000 HD
ENDBRANCH  19  21
ENDBRANCH  18  19
ENDBRANCH  15  18
ENDBRANCH   6  10
BRANCH   1  24
ATOM     23  C   UNL     1       5.564   3.247  12.268  0.00  0.00    +0.000 C 
ATOM     24  O   UNL     1       6.732   3.614  12.992  0.00  0.00    +0.000 OA
ENDBRANCH   1  24
BRANCH   7  25
ATOM     25  C   UNL     1       2.852   3.768  16.796  0.00  0.00    +0.000 C 
BRANCH  25  26
ATOM     26  C   UNL     1       2.373   3.235  18.124  0.00  0.00    +0.000 A 
ATOM     27  C   UNL     1       1.109   3.582  18.616  0.00  0.00    +0.000 A 
ATOM     28  C   UNL     1       0.743   3.252  19.923  0.00  0.00    +0.000 A 
ATOM     29  C   UNL     1       1.634   2.574  20.759  0.00  0.00    +0.000 A 
ATOM     30  C   UNL     1       1.327   2.366  22.211  0.00  0.00    +0.000 C 
ATOM     31  C   UNL     1       2.845   2.117  20.230  0.00  0.00    +0.000 A 
ATOM     32  C   UNL     1       3.211   2.445  18.924  0.00  0.00    +0.000 A 
ENDBRANCH  25  26
ENDBRANCH   7  25
TORSDOF 7
ENDMDL
MODEL 5
REMARK VINA RESULT:      -7.2      1.078      1.182
REMARK  Name = 
REMARK  9 active torsions:
REMARK  status: ('A' for Active; 'I' for Inactive)
REMARK    1  A    between atoms: C_1  and  O_2
REMARK    2  A    between atoms: O_2  and  C_3
REMARK    3  A    between atoms: C_8  and  C_9
REMARK    4  A    between atoms: N_14  and  C_15
REMARK    5  A    between atoms: C_15  and  C_16
REMARK    6  A    between atoms: C_16  and  O_18
REMARK    7  A    between atoms: N_21  and  C_22
REMARK    8  A    between atoms: C_22  and  C_23
REMARK    9  A    between atoms: C_26  and  C_27
REMARK                            x       y       z     vdW  Elec       q    Type
REMARK                         _______ _______ _______ _____ _____    ______ ____
ROOT
ATOM      1  C   UNL     1       4.366   2.280  20.127  0.00  0.00    +0.000 A 
ATOM      2  C   UNL     1       3.021   2.189  20.487  0.00  0.00    +0.000 A 
ATOM      3  C   UNL     1       2.136   3.243  20.226  0.00  0.00    +0.000 A 
ATOM      4  C   UNL     1       2.620   4.397  19.598  0.00  0.00    +0.000 A 
ATOM      5  N   UNL     1       1.946   5.536  19.255  0.00  0.00    +0.000 NA
ATOM      6  C   UNL     1       2.846   6.350  18.740  0.00  0.00    +0.000 A 
ATOM      7  N   UNL     1       4.093   5.746  18.693  0.00  0.00    +0.000 N 
ATOM      8  C   UNL     1       3.962   4.488  19.256  0.00  0.00    +0.000 A 
ATOM      9  C   UNL     1       4.859   3.439  19.507  0.00  0.00    +0.000 A 
ENDROOT
BRANCH   6  10
ATOM     10  C   UNL     1       2.615   7.679  18.313  0.00  0.00    +0.000 C 
ATOM     11  C   UNL     1       1.846   8.522  19.013  0.00  0.00    +0.000 C 
ATOM     12  S   UNL     1       1.160   8.278  20.571  0.00  0.00    +0.000 S 
ATOM     13  C   UNL     1       0.671   9.959  20.722  0.00  0.00    +0.000 C 
ATOM     14  S   UNL     1       0.072  10.576  22.147  0.00  0.00    +0.000 S 
ATOM     15  N   UNL     1       0.875  10.608  19.524  0.00  0.00    +0.000 N 
ATOM     16  C   UNL     1       1.522   9.889  18.537  0.00  0.00    +0.000 C 
ATOM     17  O   UNL     1       1.869  10.358  17.459  0.00  0.00    +0.000 OA
BRANCH  15  18
ATOM     18  C   UNL     1       0.507  11.999  19.253  0.00  0.00    +0.000 C 
BRANCH  18  19
ATOM     19  C   UNL     1      -0.920  12.107  18.739  0.00  0.00    +0.000 C 
ATOM     20  O   UNL     1      -1.897  12.213  19.469  0.00  0.00    +0.000 OA
BRANCH  19  21
ATOM     21  O   UNL     1      -1.037  12.042  17.392  0.00  0.00    +0.000 OA
ATOM     22  H   UNL     1      -0.898  11.143  17.006  0.00  0.00    +0.000 HD
ENDBRANCH  19  21
ENDBRANCH  18  19
ENDBRANCH  15  18
ENDBRANCH   6  10
BRANCH   1  24
ATOM     23  C   UNL     1       5.474   0.834  21.658  0.00  0.00    +0.000 C 
ATOM     24  O   UNL     1       5.311   1.307  20.326  0.00  0.00    +0.000 OA
ENDBRANCH   1  24
BRANCH   7  25
ATOM     25  C   UNL     1       5.354   6.323  18.230  0.00  0.00    +0.000 C 
BRANCH  25  26
ATOM     26  C   UNL     1       5.722   5.819  16.857  0.00  0.00    +0.000 A 
ATOM     27  C   UNL     1       4.732   5.598  15.890  0.00  0.00    +0.000 A 
ATOM     28  C   UNL     1       5.044   4.951  14.692  0.00  0.00    +0.000 A 
ATOM     29  C   UNL     1       6.347   4.512  14.442  0.00  0.00    +0.000 A 
ATOM     30  C   UNL     1       6.662   3.667  13.245  0.00  0.00    +0.000 C 
ATOM     31  C   UNL     1       7.359   4.843  15.348  0.00  0.00    +0.000 A 
ATOM     32  C   UNL     1       7.048   5.491  16.545  0.00  0.00    +0.000 A 
ENDBRANCH  25  26
ENDBRANCH   7  25
TORSDOF 7
ENDMDL
MODEL 6
REMARK VINA RESULT:      -7.1      2.930      8.752
REMARK  Name = 
REMARK  9 active torsions:
REMARK  status: ('A' for Active; 'I' for Inactive)
REMARK    1  A    between atoms: C_1  and  O_2
REMARK    2  A    between atoms: O_2  and  C_3
REMARK    3  A    between atoms: C_8  and  C_9
REMARK    4  A    between atoms: N_14  and  C_15
REMARK    5  A    between atoms: C_15  and  C_16
REMARK    6  A    between atoms: C_16  and  O_18
REMARK    7  A    between atoms: N_21  and  C_22
REMARK    8  A    between atoms: C_22  and  C_23
REMARK    9  A    between atoms: C_26  and  C_27
REMARK                            x       y       z     vdW  Elec       q    Type
REMARK                         _______ _______ _______ _____ _____    ______ ____
ROOT
ATOM      1  C   UNL     1      -1.434  11.402  22.437  0.00  0.00    +0.000 A 
ATOM      2  C   UNL     1      -1.018  10.448  23.367  0.00  0.00    +0.000 A 
ATOM      3  C   UNL     1      -0.094   9.457  23.011  0.00  0.00    +0.000 A 
ATOM      4  C   UNL     1       0.407   9.431  21.705  0.00  0.00    +0.000 A 
ATOM      5  N   UNL     1       1.301   8.563  21.144  0.00  0.00    +0.000 NA
ATOM      6  C   UNL     1       1.411   8.920  19.879  0.00  0.00    +0.000 A 
ATOM      7  N   UNL     1       0.640  10.041  19.611  0.00  0.00    +0.000 N 
ATOM      8  C   UNL     1      -0.023  10.373  20.781  0.00  0.00    +0.000 A 
ATOM      9  C   UNL     1      -0.943  11.375  21.122  0.00  0.00    +0.000 A 
ENDROOT
BRANCH   6  10
ATOM     10  C   UNL     1       2.175   8.254  18.893  0.00  0.00    +0.000 C 
ATOM     11  C   UNL     1       2.538   6.972  19.026  0.00  0.00    +0.000 C 
ATOM     12  S   UNL     1       2.047   5.857  20.240  0.00  0.00    +0.000 S 
ATOM     13  C   UNL     1       2.742   4.484  19.393  0.00  0.00    +0.000 C 
ATOM     14  S   UNL     1       2.480   2.918  19.892  0.00  0.00    +0.000 S 
ATOM     15  N   UNL     1       3.478   4.930  18.316  0.00  0.00    +0.000 N 
ATOM     16  C   UNL     1       3.411   6.283  18.044  0.00  0.00    +0.000 C 
ATOM     17  O   UNL     1       3.923   6.814  17.065  0.00  0.00    +0.000 OA
BRANCH  15  18
ATOM     18  C   UNL     1       4.266   4.073  17.429  0.00  0.00    +0.000 C 
BRANCH  18  19
ATOM     19  C   UNL     1       5.742   4.102  17.794  0.00  0.00    +0.000 C 
ATOM     20  O   UNL     1       6.155   4.250  18.936  0.00  0.00    +0.000 OA
BRANCH  19  21
ATOM     21  O   UNL     1       6.582   3.982  16.739  0.00  0.00    +0.000 OA
ATOM     22  H   UNL     1       6.592   4.757  16.126  0.00  0.00    +0.000 HD
ENDBRANCH  19  21
ENDBRANCH  18  19
ENDBRANCH  15  18
ENDBRANCH   6  10
BRANCH   1  24
ATOM     23  C   UNL     1      -3.309  12.181  23.679  0.00  0.00    +0.000 C 
ATOM     24  O   UNL     1      -2.322  12.417  22.682  0.00  0.00    +0.000 OA
ENDBRANCH   1  24
BRANCH   7  25
ATOM     25  C   UNL     1       0.460  10.722  18.330  0.00  0.00    +0.000 C 
BRANCH  25  26
ATOM     26  C   UNL     1       0.927  12.154  18.394  0.00  0.00    +0.000 A 
ATOM     27  C   UNL     1       2.286  12.454  18.553  0.00  0.00    +0.000 A 
ATOM     28  C   UNL     1       2.698  13.764  18.807  0.00  0.00    +0.000 A 
ATOM     29  C   UNL     1       1.759  14.794  18.910  0.00  0.00    +0.000 A 
ATOM     30  C   UNL     1       2.163  16.168  19.352  0.00  0.00    +0.000 C 
ATOM     31  C   UNL     1       0.418  14.519  18.627  0.00  0.00    +0.000 A 
ATOM     32  C   UNL     1       0.006  13.211  18.372  0.00  0.00    +0.000 A 
ENDBRANCH  25  26
ENDBRANCH   7  25
TORSDOF 7
ENDMDL
MODEL 7
REMARK VINA RESULT:      -7.1      0.901      1.209
REMARK  Name = 
REMARK  9 active torsions:
REMARK  status: ('A' for Active; 'I' for Inactive)
REMARK    1  A    between atoms: C_1  and  O_2
REMARK    2  A    between atoms: O_2  and  C_3
REMARK    3  A    between atoms: C_8  and  C_9
REMARK    4  A    between atoms: N_14  and  C_15
REMARK    5  A    between atoms: C_15  and  C_16
REMARK    6  A    between atoms: C_16  and  O_18
REMARK    7  A    between atoms: N_21  and  C_22
REMARK    8  A    between atoms: C_22  and  C_23
REMARK    9  A    between atoms: C_26  and  C_27
REMARK                            x       y       z     vdW  Elec       q    Type
REMARK                         _______ _______ _______ _____ _____    ______ ____
ROOT
ATOM      1  C   UNL     1       3.292   2.441  21.222  0.00  0.00    +0.000 A 
ATOM      2  C   UNL     1       1.951   2.621  21.565  0.00  0.00    +0.000 A 
ATOM      3  C   UNL     1       1.244   3.746  21.121  0.00  0.00    +0.000 A 
ATOM      4  C   UNL     1       1.901   4.695  20.329  0.00  0.00    +0.000 A 
ATOM      5  N   UNL     1       1.415   5.855  19.795  0.00  0.00    +0.000 NA
ATOM      6  C   UNL     1       2.430   6.426  19.176  0.00  0.00    +0.000 A 
ATOM      7  N   UNL     1       3.566   5.633  19.252  0.00  0.00    +0.000 N 
ATOM      8  C   UNL     1       3.239   4.517  20.005  0.00  0.00    +0.000 A 
ATOM      9  C   UNL     1       3.960   3.395  20.437  0.00  0.00    +0.000 A 
ENDROOT
BRANCH   6  10
ATOM     10  C   UNL     1       2.411   7.688  18.540  0.00  0.00    +0.000 C 
ATOM     11  C   UNL     1       1.732   8.725  19.047  0.00  0.00    +0.000 C 
ATOM     12  S   UNL     1       0.936   8.822  20.569  0.00  0.00    +0.000 S 
ATOM     13  C   UNL     1       0.680  10.554  20.430  0.00  0.00    +0.000 C 
ATOM     14  S   UNL     1       0.099  11.462  21.699  0.00  0.00    +0.000 S 
ATOM     15  N   UNL     1       1.037  10.974  19.166  0.00  0.00    +0.000 N 
ATOM     16  C   UNL     1       1.629  10.030  18.349  0.00  0.00    +0.000 C 
ATOM     17  O   UNL     1       2.094  10.273  17.242  0.00  0.00    +0.000 OA
BRANCH  15  18
ATOM     18  C   UNL     1       0.883  12.340  18.665  0.00  0.00    +0.000 C 
BRANCH  18  19
ATOM     19  C   UNL     1       2.155  13.151  18.859  0.00  0.00    +0.000 C 
ATOM     20  O   UNL     1       2.382  13.829  19.852  0.00  0.00    +0.000 OA
BRANCH  19  21
ATOM     21  O   UNL     1       3.021  13.093  17.819  0.00  0.00    +0.000 OA
ATOM     22  H   UNL     1       2.609  13.214  16.929  0.00  0.00    +0.000 HD
ENDBRANCH  19  21
ENDBRANCH  18  19
ENDBRANCH  15  18
ENDBRANCH   6  10
BRANCH   1  24
ATOM     23  C   UNL     1       5.337   1.255  20.955  0.00  0.00    +0.000 C 
ATOM     24  O   UNL     1       4.072   1.377  21.593  0.00  0.00    +0.000 OA
ENDBRANCH   1  24
BRANCH   7  25
ATOM     25  C   UNL     1       4.900   5.923  18.730  0.00  0.00    +0.000 C 
BRANCH  25  26
ATOM     26  C   UNL     1       5.076   5.385  17.332  0.00  0.00    +0.000 A 
ATOM     27  C   UNL     1       5.275   4.015  17.115  0.00  0.00    +0.000 A 
ATOM     28  C   UNL     1       5.631   3.542  15.850  0.00  0.00    +0.000 A 
ATOM     29  C   UNL     1       5.796   4.429  14.783  0.00  0.00    +0.000 A 
ATOM     30  C   UNL     1       6.344   3.964  13.468  0.00  0.00    +0.000 C 
ATOM     31  C   UNL     1       5.475   5.778  14.967  0.00  0.00    +0.000 A 
ATOM     32  C   UNL     1       5.118   6.250  16.230  0.00  0.00    +0.000 A 
ENDBRANCH  25  26
ENDBRANCH   7  25
TORSDOF 7
ENDMDL
MODEL 8
REMARK VINA RESULT:      -7.0      3.162      8.855
REMARK  Name = 
REMARK  9 active torsions:
REMARK  status: ('A' for Active; 'I' for Inactive)
REMARK    1  A    between atoms: C_1  and  O_2
REMARK    2  A    between atoms: O_2  and  C_3
REMARK    3  A    between atoms: C_8  and  C_9
REMARK    4  A    between atoms: N_14  and  C_15
REMARK    5  A    between atoms: C_15  and  C_16
REMARK    6  A    between atoms: C_16  and  O_18
REMARK    7  A    between atoms: N_21  and  C_22
REMARK    8  A    between atoms: C_22  and  C_23
REMARK    9  A    between atoms: C_26  and  C_27
REMARK                            x       y       z     vdW  Elec       q    Type
REMARK                         _______ _______ _______ _____ _____    ______ ____
ROOT
ATOM      1  C   UNL     1      -1.131  11.429  22.481  0.00  0.00    +0.000 A 
ATOM      2  C   UNL     1      -0.873  10.465  23.457  0.00  0.00    +0.000 A 
ATOM      3  C   UNL     1      -0.057   9.362  23.176  0.00  0.00    +0.000 A 
ATOM      4  C   UNL     1       0.499   9.234  21.897  0.00  0.00    +0.000 A 
ATOM      5  N   UNL     1       1.311   8.250  21.406  0.00  0.00    +0.000 NA
ATOM      6  C   UNL     1       1.520   8.550  20.139  0.00  0.00    +0.000 A 
ATOM      7  N   UNL     1       0.900   9.743  19.801  0.00  0.00    +0.000 N 
ATOM      8  C   UNL     1       0.226  10.189  20.927  0.00  0.00    +0.000 A 
ATOM      9  C   UNL     1      -0.586  11.301  21.194  0.00  0.00    +0.000 A 
ENDROOT
BRANCH   6  10
ATOM     10  C   UNL     1       2.246   7.767  19.211  0.00  0.00    +0.000 C 
ATOM     11  C   UNL     1       2.212   6.429  19.236  0.00  0.00    +0.000 C 
ATOM     12  S   UNL     1       1.212   5.417  20.202  0.00  0.00    +0.000 S 
ATOM     13  C   UNL     1       1.652   3.970  19.309  0.00  0.00    +0.000 C 
ATOM     14  S   UNL     1       0.881   2.515  19.554  0.00  0.00    +0.000 S 
ATOM     15  N   UNL     1       2.674   4.262  18.431  0.00  0.00    +0.000 N 
ATOM     16  C   UNL     1       3.034   5.592  18.328  0.00  0.00    +0.000 C 
ATOM     17  O   UNL     1       3.848   6.024  17.520  0.00  0.00    +0.000 OA
BRANCH  15  18
ATOM     18  C   UNL     1       3.351   3.283  17.579  0.00  0.00    +0.000 C 
BRANCH  18  19
ATOM     19  C   UNL     1       4.119   2.263  18.406  0.00  0.00    +0.000 C 
ATOM     20  O   UNL     1       3.866   1.066  18.412  0.00  0.00    +0.000 OA
BRANCH  19  21
ATOM     21  O   UNL     1       5.101   2.791  19.176  0.00  0.00    +0.000 OA
ATOM     22  H   UNL     1       5.995   2.803  18.756  0.00  0.00    +0.000 HD
ENDBRANCH  19  21
ENDBRANCH  18  19
ENDBRANCH  15  18
ENDBRANCH   6  10
BRANCH   1  24
ATOM     23  C   UNL     1      -1.315  13.634  23.357  0.00  0.00    +0.000 C 
ATOM     24  O   UNL     1      -1.904  12.548  22.652  0.00  0.00    +0.000 OA
ENDBRANCH   1  24
BRANCH   7  25
ATOM     25  C   UNL     1       0.861  10.397  18.495  0.00  0.00    +0.000 C 
BRANCH  25  26
ATOM     26  C   UNL     1      -0.556  10.622  18.031  0.00  0.00    +0.000 A 
ATOM     27  C   UNL     1      -1.170  11.870  18.196  0.00  0.00    +0.000 A 
ATOM     28  C   UNL     1      -2.535  12.027  17.948  0.00  0.00    +0.000 A 
ATOM     29  C   UNL     1      -3.309  10.939  17.534  0.00  0.00    +0.000 A 
ATOM     30  C   UNL     1      -4.801  11.046  17.432  0.00  0.00    +0.000 C 
ATOM     31  C   UNL     1      -2.676   9.726  17.248  0.00  0.00    +0.000 A 
ATOM     32  C   UNL     1      -1.311   9.570  17.495  0.00  0.00    +0.000 A 
ENDBRANCH  25  26
ENDBRANCH   7  25
TORSDOF 7
ENDMDL
MODEL 9
REMARK VINA RESULT:      -7.0      3.114      8.740
REMARK  Name = 
REMARK  9 active torsions:
REMARK  status: ('A' for Active; 'I' for Inactive)
REMARK    1  A    between atoms: C_1  and  O_2
REMARK    2  A    between atoms: O_2  and  C_3
REMARK    3  A    between atoms: C_8  and  C_9
REMARK    4  A    between atoms: N_14  and  C_15
REMARK    5  A    between atoms: C_15  and  C_16
REMARK    6  A    between atoms: C_16  and  O_18
REMARK    7  A    between atoms: N_21  and  C_22
REMARK    8  A    between atoms: C_22  and  C_23
REMARK    9  A    between atoms: C_26  and  C_27
REMARK                            x       y       z     vdW  Elec       q    Type
REMARK                         _______ _______ _______ _____ _____    ______ ____
ROOT
ATOM      1  C   UNL     1      -1.657  11.868  22.506  0.00  0.00    +0.000 A 
ATOM      2  C   UNL     1      -1.439  10.903  23.490  0.00  0.00    +0.000 A 
ATOM      3  C   UNL     1      -0.586   9.817  23.252  0.00  0.00    +0.000 A 
ATOM      4  C   UNL     1       0.047   9.709  22.008  0.00  0.00    +0.000 A 
ATOM      5  N   UNL     1       0.905   8.744  21.561  0.00  0.00    +0.000 NA
ATOM      6  C   UNL     1       1.184   9.055  20.310  0.00  0.00    +0.000 A 
ATOM      7  N   UNL     1       0.561  10.238  19.943  0.00  0.00    +0.000 N 
ATOM      8  C   UNL     1      -0.187  10.664  21.028  0.00  0.00    +0.000 A 
ATOM      9  C   UNL     1      -1.034  11.759  21.252  0.00  0.00    +0.000 A 
ENDROOT
BRANCH   6  10
ATOM     10  C   UNL     1       1.978   8.293  19.423  0.00  0.00    +0.000 C 
ATOM     11  C   UNL     1       2.194   6.986  19.613  0.00  0.00    +0.000 C 
ATOM     12  S   UNL     1       1.465   5.955  20.782  0.00  0.00    +0.000 S 
ATOM     13  C   UNL     1       2.105   4.499  20.035  0.00  0.00    +0.000 C 
ATOM     14  S   UNL     1       1.635   2.980  20.524  0.00  0.00    +0.000 S 
ATOM     15  N   UNL     1       2.995   4.844  19.039  0.00  0.00    +0.000 N 
ATOM     16  C   UNL     1       3.094   6.190  18.743  0.00  0.00    +0.000 C 
ATOM     17  O   UNL     1       3.759   6.643  17.818  0.00  0.00    +0.000 OA
BRANCH  15  18
ATOM     18  C   UNL     1       3.782   3.891  18.256  0.00  0.00    +0.000 C 
BRANCH  18  19
ATOM     19  C   UNL     1       5.103   3.569  18.938  0.00  0.00    +0.000 C 
ATOM     20  O   UNL     1       6.062   4.329  18.952  0.00  0.00    +0.000 OA
BRANCH  19  21
ATOM     21  O   UNL     1       5.153   2.343  19.511  0.00  0.00    +0.000 OA
ATOM     22  H   UNL     1       5.488   1.623  18.923  0.00  0.00    +0.000 HD
ENDBRANCH  19  21
ENDBRANCH  18  19
ENDBRANCH  15  18
ENDBRANCH   6  10
BRANCH   1  24
ATOM     23  C   UNL     1      -3.824  12.819  22.259  0.00  0.00    +0.000 C 
ATOM     24  O   UNL     1      -2.461  12.970  22.637  0.00  0.00    +0.000 OA
ENDBRANCH   1  24
BRANCH   7  25
ATOM     25  C   UNL     1       0.587  10.900  18.640  0.00  0.00    +0.000 C 
BRANCH  25  26
ATOM     26  C   UNL     1      -0.706  10.697  17.890  0.00  0.00    +0.000 A 
ATOM     27  C   UNL     1      -0.988   9.471  17.275  0.00  0.00    +0.000 A 
ATOM     28  C   UNL     1      -2.086   9.342  16.422  0.00  0.00    +0.000 A 
ATOM     29  C   UNL     1      -2.917  10.436  16.167  0.00  0.00    +0.000 A 
ATOM     30  C   UNL     1      -3.992  10.365  15.124  0.00  0.00    +0.000 C 
ATOM     31  C   UNL     1      -2.712  11.623  16.876  0.00  0.00    +0.000 A 
ATOM     32  C   UNL     1      -1.615  11.752  17.730  0.00  0.00    +0.000 A 
ENDBRANCH  25  26
ENDBRANCH   7  25
TORSDOF 7
ENDMDL
