MODEL 1
REMARK VINA RESULT:      -8.8      0.000      0.000
REMARK  Name = 
REMARK  5 active torsions:
REMARK  status: ('A' for Active; 'I' for Inactive)
REMARK    1  A    between atoms: C_1  and  C_2
REMARK    2  A    between atoms: C_4  and  C_5
REMARK    3  A    between atoms: C_10  and  N_11
REMARK    4  A    between atoms: N_14  and  C_15
REMARK    5  A    between atoms: C_15  and  C_16
REMARK                            x       y       z     vdW  Elec       q    Type
REMARK                         _______ _______ _______ _____ _____    ______ ____
ROOT
ATOM      1  C   UNL     1       0.763   9.985  19.779  0.00  0.00    +0.000 A 
ATOM      2  N   UNL     1       0.768  10.726  18.658  0.00  0.00    +0.000 NA
ATOM      3  N   UNL     1       1.493  10.004  17.781  0.00  0.00    +0.000 N 
ATOM      4  C   UNL     1       1.930   8.800  18.264  0.00  0.00    +0.000 A 
ATOM      5  C   UNL     1       2.672   7.747  17.700  0.00  0.00    +0.000 A 
ATOM      6  C   UNL     1       2.902   6.654  18.541  0.00  0.00    +0.000 A 
ATOM      7  N   UNL     1       2.450   6.618  19.807  0.00  0.00    +0.000 NA
ATOM      8  C   UNL     1       1.736   7.634  20.333  0.00  0.00    +0.000 A 
ATOM      9  C   UNL     1       1.463   8.763  19.571  0.00  0.00    +0.000 A 
ATOM     10  H   UNL     1       1.642  10.398  16.860  0.00  0.00    +0.000 HD
ENDROOT
BRANCH   1  14
ATOM     11  C   UNL     1      -1.107  13.632  22.643  0.00  0.00    +0.000 C 
ATOM     12  C   UNL     1      -0.769  12.193  22.394  0.00  0.00    +0.000 A 
ATOM     13  C   UNL     1      -0.190  11.791  21.197  0.00  0.00    +0.000 A 
ATOM     14  C   UNL     1       0.111  10.439  21.007  0.00  0.00    +0.000 A 
ATOM     15  C   UNL     1      -0.206   9.534  22.020  0.00  0.00    +0.000 A 
ATOM     16  C   UNL     1      -0.776  10.021  23.182  0.00  0.00    +0.000 A 
ATOM     17  N   UNL     1      -1.059  11.322  23.389  0.00  0.00    +0.000 NA
ENDBRANCH   1  14
BRANCH   6  18
ATOM     18  N   UNL     1       3.627   5.539  18.056  0.00  0.00    +0.000 N 
ATOM     19  C   UNL     1       4.919   5.632  17.589  0.00  0.00    +0.000 C 
ATOM     20  O   UNL     1       5.603   6.658  17.520  0.00  0.00    +0.000 OA
ATOM     21  N   UNL     1       5.480   4.423  17.215  0.00  0.00    +0.000 N 
ATOM     22  H   UNL     1       3.193   4.632  18.093  0.00  0.00    +0.000 HD
ATOM     23  H   UNL     1       4.883   3.696  16.849  0.00  0.00    +0.000 HD
BRANCH  21  24
ATOM     24  C   UNL     1       6.850   4.497  16.734  0.00  0.00    +0.000 C 
BRANCH  24  25
ATOM     25  C   UNL     1       6.942   4.654  15.269  0.00  0.00    +0.000 A 
ATOM     26  C   UNL     1       6.394   3.972  14.206  0.00  0.00    +0.000 A 
ATOM     27  C   UNL     1       7.026   4.530  13.082  0.00  0.00    +0.000 A 
ATOM     28  N   UNL     1       7.882   5.498  13.416  0.00  0.00    +0.000 NA
ATOM     29  O   UNL     1       7.834   5.570  14.800  0.00  0.00    +0.000 OA
ENDBRANCH  24  25
ENDBRANCH  21  24
ENDBRANCH   6  18
TORSDOF 4
ENDMDL
MODEL 2
REMARK VINA RESULT:      -8.4      1.691      2.271
REMARK  Name = 
REMARK  5 active torsions:
REMARK  status: ('A' for Active; 'I' for Inactive)
REMARK    1  A    between atoms: C_1  and  C_2
REMARK    2  A    between atoms: C_4  and  C_5
REMARK    3  A    between atoms: C_10  and  N_11
REMARK    4  A    between atoms: N_14  and  C_15
REMARK    5  A    between atoms: C_15  and  C_16
REMARK                            x       y       z     vdW  Elec       q    Type
REMARK                         _______ _______ _______ _____ _____    ______ ____
ROOT
ATOM      1  C   UNL     1       0.854   9.759  20.348  0.00  0.00    +0.000 A 
ATOM      2  N   UNL     1       0.821   9.288  21.606  0.00  0.00    +0.000 NA
ATOM      3  N   UNL     1       1.392   8.071  21.524  0.00  0.00    +0.000 N 
ATOM      4  C   UNL     1       1.838   7.738  20.273  0.00  0.00    +0.000 A 
ATOM      5  C   UNL     1       2.500   6.611  19.753  0.00  0.00    +0.000 A 
ATOM      6  C   UNL     1       2.804   6.666  18.390  0.00  0.00    +0.000 A 
ATOM      7  N   UNL     1       2.475   7.723  17.626  0.00  0.00    +0.000 NA
ATOM      8  C   UNL     1       1.843   8.797  18.139  0.00  0.00    +0.000 A 
ATOM      9  C   UNL     1       1.499   8.829  19.484  0.00  0.00    +0.000 A 
ATOM     10  H   UNL     1       1.451   7.523  22.374  0.00  0.00    +0.000 HD
ENDROOT
BRANCH   1  14
ATOM     11  C   UNL     1       1.290  14.698  19.698  0.00  0.00    +0.000 C 
ATOM     12  C   UNL     1       0.484  13.433  19.696  0.00  0.00    +0.000 A 
ATOM     13  C   UNL     1       1.071  12.211  20.000  0.00  0.00    +0.000 A 
ATOM     14  C   UNL     1       0.282  11.057  19.989  0.00  0.00    +0.000 A 
ATOM     15  C   UNL     1      -1.066  11.170  19.646  0.00  0.00    +0.000 A 
ATOM     16  C   UNL     1      -1.569  12.426  19.364  0.00  0.00    +0.000 A 
ATOM     17  N   UNL     1      -0.828  13.552  19.385  0.00  0.00    +0.000 NA
ENDBRANCH   1  14
BRANCH   6  18
ATOM     18  N   UNL     1       3.484   5.584  17.780  0.00  0.00    +0.000 N 
ATOM     19  C   UNL     1       4.808   5.646  17.410  0.00  0.00    +0.000 C 
ATOM     20  O   UNL     1       5.564   6.615  17.543  0.00  0.00    +0.000 OA
ATOM     21  N   UNL     1       5.312   4.468  16.885  0.00  0.00    +0.000 N 
ATOM     22  H   UNL     1       2.988   4.719  17.649  0.00  0.00    +0.000 HD
ATOM     23  H   UNL     1       4.694   3.854  16.375  0.00  0.00    +0.000 HD
BRANCH  21  24
ATOM     24  C   UNL     1       6.714   4.508  16.502  0.00  0.00    +0.000 C 
BRANCH  24  25
ATOM     25  C   UNL     1       6.914   4.682  15.050  0.00  0.00    +0.000 A 
ATOM     26  C   UNL     1       6.399   4.052  13.940  0.00  0.00    +0.000 A 
ATOM     27  C   UNL     1       7.138   4.587  12.871  0.00  0.00    +0.000 A 
ATOM     28  N   UNL     1       8.026   5.496  13.281  0.00  0.00    +0.000 NA
ATOM     29  O   UNL     1       7.889   5.549  14.660  0.00  0.00    +0.000 OA
ENDBRANCH  24  25
ENDBRANCH  21  24
ENDBRANCH   6  18
TORSDOF 4
ENDMDL
MODEL 3
REMARK VINA RESULT:      -8.3      1.823      2.485
REMARK  Name = 
REMARK  5 active torsions:
REMARK  status: ('A' for Active; 'I' for Inactive)
REMARK    1  A    between atoms: C_1  and  C_2
REMARK    2  A    between atoms: C_4  and  C_5
REMARK    3  A    between atoms: C_10  and  N_11
REMARK    4  A    between atoms: N_14  and  C_15
REMARK    5  A    between atoms: C_15  and  C_16
REMARK                            x       y       z     vdW  Elec       q    Type
REMARK                         _______ _______ _______ _____ _____    ______ ____
ROOT
ATOM      1  C   UNL     1       0.921   9.496  20.115  0.00  0.00    +0.000 A 
ATOM      2  N   UNL     1       0.866   9.120  21.404  0.00  0.00    +0.000 NA
ATOM      3  N   UNL     1       1.505   7.934  21.435  0.00  0.00    +0.000 N 
ATOM      4  C   UNL     1       2.016   7.534  20.230  0.00  0.00    +0.000 A 
ATOM      5  C   UNL     1       2.758   6.412  19.821  0.00  0.00    +0.000 A 
ATOM      6  C   UNL     1       3.109   6.380  18.469  0.00  0.00    +0.000 A 
ATOM      7  N   UNL     1       2.752   7.356  17.615  0.00  0.00    +0.000 NA
ATOM      8  C   UNL     1       2.043   8.428  18.021  0.00  0.00    +0.000 A 
ATOM      9  C   UNL     1       1.647   8.542  19.348  0.00  0.00    +0.000 A 
ATOM     10  H   UNL     1       1.562   7.456  22.327  0.00  0.00    +0.000 HD
ENDROOT
BRANCH   1  14
ATOM     11  C   UNL     1      -3.147  12.169  18.974  0.00  0.00    +0.000 C 
ATOM     12  C   UNL     1      -1.660  12.007  19.069  0.00  0.00    +0.000 A 
ATOM     13  C   UNL     1      -1.098  10.838  19.569  0.00  0.00    +0.000 A 
ATOM     14  C   UNL     1       0.293  10.729  19.638  0.00  0.00    +0.000 A 
ATOM     15  C   UNL     1       1.072  11.811  19.227  0.00  0.00    +0.000 A 
ATOM     16  C   UNL     1       0.431  12.933  18.737  0.00  0.00    +0.000 A 
ATOM     17  N   UNL     1      -0.909  13.051  18.648  0.00  0.00    +0.000 NA
ENDBRANCH   1  14
BRANCH   6  18
ATOM     18  N   UNL     1       3.869   5.296  17.968  0.00  0.00    +0.000 N 
ATOM     19  C   UNL     1       5.119   5.453  17.412  0.00  0.00    +0.000 C 
ATOM     20  O   UNL     1       5.731   6.516  17.270  0.00  0.00    +0.000 OA
ATOM     21  N   UNL     1       5.730   4.269  17.035  0.00  0.00    +0.000 N 
ATOM     22  H   UNL     1       3.496   4.367  18.058  0.00  0.00    +0.000 HD
ATOM     23  H   UNL     1       5.157   3.496  16.730  0.00  0.00    +0.000 HD
BRANCH  21  24
ATOM     24  C   UNL     1       7.058   4.411  16.461  0.00  0.00    +0.000 C 
BRANCH  24  25
ATOM     25  C   UNL     1       7.039   4.607  14.998  0.00  0.00    +0.000 A 
ATOM     26  C   UNL     1       6.383   3.977  13.966  0.00  0.00    +0.000 A 
ATOM     27  C   UNL     1       6.945   4.544  12.809  0.00  0.00    +0.000 A 
ATOM     28  N   UNL     1       7.861   5.470  13.099  0.00  0.00    +0.000 NA
ATOM     29  O   UNL     1       7.926   5.504  14.483  0.00  0.00    +0.000 OA
ENDBRANCH  24  25
ENDBRANCH  21  24
ENDBRANCH   6  18
TORSDOF 4
ENDMDL
MODEL 4
REMARK VINA RESULT:      -8.2      2.927     10.068
REMARK  Name = 
REMARK  5 active torsions:
REMARK  status: ('A' for Active; 'I' for Inactive)
REMARK    1  A    between atoms: C_1  and  C_2
REMARK    2  A    between atoms: C_4  and  C_5
REMARK    3  A    between atoms: C_10  and  N_11
REMARK    4  A    between atoms: N_14  and  C_15
REMARK    5  A    between atoms: C_15  and  C_16
REMARK                            x       y       z     vdW  Elec       q    Type
REMARK                         _______ _______ _______ _____ _____    ______ ____
ROOT
ATOM      1  C   UNL     1       4.143   5.514  18.738  0.00  0.00    +0.000 A 
ATOM      2  N   UNL     1       3.813   4.701  19.756  0.00  0.00    +0.000 NA
ATOM      3  N   UNL     1       2.843   5.364  20.415  0.00  0.00    +0.000 N 
ATOM      4  C   UNL     1       2.490   6.560  19.850  0.00  0.00    +0.000 A 
ATOM      5  C   UNL     1       1.534   7.538  20.178  0.00  0.00    +0.000 A 
ATOM      6  C   UNL     1       1.474   8.636  19.316  0.00  0.00    +0.000 A 
ATOM      7  N   UNL     1       2.285   8.753  18.249  0.00  0.00    +0.000 NA
ATOM      8  C   UNL     1       3.194   7.806  17.944  0.00  0.00    +0.000 A 
ATOM      9  C   UNL     1       3.327   6.680  18.748  0.00  0.00    +0.000 A 
ATOM     10  H   UNL     1       2.459   4.929  21.245  0.00  0.00    +0.000 HD
ENDROOT
BRANCH   1  14
ATOM     11  C   UNL     1       5.673   4.228  14.155  0.00  0.00    +0.000 C 
ATOM     12  C   UNL     1       5.944   4.543  15.596  0.00  0.00    +0.000 A 
ATOM     13  C   UNL     1       4.912   4.898  16.456  0.00  0.00    +0.000 A 
ATOM     14  C   UNL     1       5.208   5.181  17.792  0.00  0.00    +0.000 A 
ATOM     15  C   UNL     1       6.538   5.124  18.211  0.00  0.00    +0.000 A 
ATOM     16  C   UNL     1       7.501   4.757  17.290  0.00  0.00    +0.000 A 
ATOM     17  N   UNL     1       7.233   4.465  16.001  0.00  0.00    +0.000 NA
ENDBRANCH   1  14
BRANCH   6  18
ATOM     18  N   UNL     1       0.532   9.665  19.557  0.00  0.00    +0.000 N 
ATOM     19  C   UNL     1       0.509  10.402  20.720  0.00  0.00    +0.000 C 
ATOM     20  O   UNL     1       1.271  10.275  21.684  0.00  0.00    +0.000 OA
ATOM     21  N   UNL     1      -0.447  11.403  20.745  0.00  0.00    +0.000 N 
ATOM     22  H   UNL     1      -0.125   9.893  18.830  0.00  0.00    +0.000 HD
ATOM     23  H   UNL     1      -1.310  11.270  20.238  0.00  0.00    +0.000 HD
BRANCH  21  24
ATOM     24  C   UNL     1      -0.476  12.203  21.958  0.00  0.00    +0.000 C 
BRANCH  24  25
ATOM     25  C   UNL     1      -1.843  12.448  22.459  0.00  0.00    +0.000 A 
ATOM     26  C   UNL     1      -2.748  13.469  22.283  0.00  0.00    +0.000 A 
ATOM     27  C   UNL     1      -3.787  13.160  23.177  0.00  0.00    +0.000 A 
ATOM     28  N   UNL     1      -3.558  12.024  23.840  0.00  0.00    +0.000 NA
ATOM     29  O   UNL     1      -2.324  11.579  23.391  0.00  0.00    +0.000 OA
ENDBRANCH  24  25
ENDBRANCH  21  24
ENDBRANCH   6  18
TORSDOF 4
ENDMDL
MODEL 5
REMARK VINA RESULT:      -8.2      3.674      9.746
REMARK  Name = 
REMARK  5 active torsions:
REMARK  status: ('A' for Active; 'I' for Inactive)
REMARK    1  A    between atoms: C_1  and  C_2
REMARK    2  A    between atoms: C_4  and  C_5
REMARK    3  A    between atoms: C_10  and  N_11
REMARK    4  A    between atoms: N_14  and  C_15
REMARK    5  A    between atoms: C_15  and  C_16
REMARK                            x       y       z     vdW  Elec       q    Type
REMARK                         _______ _______ _______ _____ _____    ______ ____
ROOT
ATOM      1  C   UNL     1       3.909   5.898  18.807  0.00  0.00    +0.000 A 
ATOM      2  N   UNL     1       3.516   5.227  19.902  0.00  0.00    +0.000 NA
ATOM      3  N   UNL     1       2.553   5.999  20.442  0.00  0.00    +0.000 N 
ATOM      4  C   UNL     1       2.266   7.129  19.725  0.00  0.00    +0.000 A 
ATOM      5  C   UNL     1       1.340   8.173  19.899  0.00  0.00    +0.000 A 
ATOM      6  C   UNL     1       1.351   9.161  18.911  0.00  0.00    +0.000 A 
ATOM      7  N   UNL     1       2.199   9.119  17.867  0.00  0.00    +0.000 NA
ATOM      8  C   UNL     1       3.078   8.110  17.711  0.00  0.00    +0.000 A 
ATOM      9  C   UNL     1       3.140   7.085  18.647  0.00  0.00    +0.000 A 
ATOM     10  H   UNL     1       2.126   5.682  21.304  0.00  0.00    +0.000 HD
ENDROOT
BRANCH   1  14
ATOM     11  C   UNL     1       5.580   4.288  14.378  0.00  0.00    +0.000 C 
ATOM     12  C   UNL     1       5.790   4.621  15.824  0.00  0.00    +0.000 A 
ATOM     13  C   UNL     1       4.751   5.119  16.601  0.00  0.00    +0.000 A 
ATOM     14  C   UNL     1       4.989   5.415  17.946  0.00  0.00    +0.000 A 
ATOM     15  C   UNL     1       6.274   5.224  18.457  0.00  0.00    +0.000 A 
ATOM     16  C   UNL     1       7.247   4.719  17.615  0.00  0.00    +0.000 A 
ATOM     17  N   UNL     1       7.032   4.413  16.319  0.00  0.00    +0.000 NA
ENDBRANCH   1  14
BRANCH   6  18
ATOM     18  N   UNL     1       0.443  10.244  18.993  0.00  0.00    +0.000 N 
ATOM     19  C   UNL     1      -0.669  10.352  18.189  0.00  0.00    +0.000 C 
ATOM     20  O   UNL     1      -1.020   9.556  17.311  0.00  0.00    +0.000 OA
ATOM     21  N   UNL     1      -1.467  11.450  18.460  0.00  0.00    +0.000 N 
ATOM     22  H   UNL     1       0.597  10.946  19.698  0.00  0.00    +0.000 HD
ATOM     23  H   UNL     1      -1.039  12.294  18.810  0.00  0.00    +0.000 HD
BRANCH  21  24
ATOM     24  C   UNL     1      -2.656  11.572  17.633  0.00  0.00    +0.000 C 
BRANCH  24  25
ATOM     25  C   UNL     1      -3.908  11.583  18.414  0.00  0.00    +0.000 A 
ATOM     26  C   UNL     1      -5.167  11.073  18.195  0.00  0.00    +0.000 A 
ATOM     27  C   UNL     1      -5.933  11.588  19.255  0.00  0.00    +0.000 A 
ATOM     28  N   UNL     1      -5.203  12.341  20.082  0.00  0.00    +0.000 NA
ATOM     29  O   UNL     1      -3.924  12.344  19.544  0.00  0.00    +0.000 OA
ENDBRANCH  24  25
ENDBRANCH  21  24
ENDBRANCH   6  18
TORSDOF 4
ENDMDL
MODEL 6
REMARK VINA RESULT:      -8.1      3.924      9.316
REMARK  Name = 
REMARK  5 active torsions:
REMARK  status: ('A' for Active; 'I' for Inactive)
REMARK    1  A    between atoms: C_1  and  C_2
REMARK    2  A    between atoms: C_4  and  C_5
REMARK    3  A    between atoms: C_10  and  N_11
REMARK    4  A    between atoms: N_14  and  C_15
REMARK    5  A    between atoms: C_15  and  C_16
REMARK                            x       y       z     vdW  Elec       q    Type
REMARK                         _______ _______ _______ _____ _____    ______ ____
ROOT
ATOM      1  C   UNL     1       2.580   6.532  19.269  0.00  0.00    +0.000 A 
ATOM      2  N   UNL     1       2.114   6.283  20.504  0.00  0.00    +0.000 NA
ATOM      3  N   UNL     1       1.505   7.427  20.871  0.00  0.00    +0.000 N 
ATOM      4  C   UNL     1       1.514   8.405  19.913  0.00  0.00    +0.000 A 
ATOM      5  C   UNL     1       0.987   9.708  19.859  0.00  0.00    +0.000 A 
ATOM      6  C   UNL     1       1.204  10.397  18.663  0.00  0.00    +0.000 A 
ATOM      7  N   UNL     1       1.880   9.853  17.636  0.00  0.00    +0.000 NA
ATOM      8  C   UNL     1       2.376   8.601  17.700  0.00  0.00    +0.000 A 
ATOM      9  C   UNL     1       2.212   7.842  18.853  0.00  0.00    +0.000 A 
ATOM     10  H   UNL     1       1.094   7.463  21.796  0.00  0.00    +0.000 HD
ENDROOT
BRANCH   1  14
ATOM     11  C   UNL     1       6.951   4.731  17.641  0.00  0.00    +0.000 C 
ATOM     12  C   UNL     1       5.455   4.690  17.718  0.00  0.00    +0.000 A 
ATOM     13  C   UNL     1       4.752   5.618  18.477  0.00  0.00    +0.000 A 
ATOM     14  C   UNL     1       3.357   5.545  18.518  0.00  0.00    +0.000 A 
ATOM     15  C   UNL     1       2.718   4.523  17.815  0.00  0.00    +0.000 A 
ATOM     16  C   UNL     1       3.494   3.646  17.080  0.00  0.00    +0.000 A 
ATOM     17  N   UNL     1       4.839   3.710  17.016  0.00  0.00    +0.000 NA
ENDBRANCH   1  14
BRANCH   6  18
ATOM     18  N   UNL     1       0.697  11.710  18.510  0.00  0.00    +0.000 N 
ATOM     19  C   UNL     1       1.268  12.808  19.114  0.00  0.00    +0.000 C 
ATOM     20  O   UNL     1       2.260  12.808  19.850  0.00  0.00    +0.000 OA
ATOM     21  N   UNL     1       0.666  14.014  18.795  0.00  0.00    +0.000 N 
ATOM     22  H   UNL     1      -0.091  11.851  17.902  0.00  0.00    +0.000 HD
ATOM     23  H   UNL     1      -0.322  14.031  18.594  0.00  0.00    +0.000 HD
BRANCH  21  24
ATOM     24  C   UNL     1       1.265  15.187  19.410  0.00  0.00    +0.000 C 
BRANCH  24  25
ATOM     25  C   UNL     1       1.135  16.404  18.584  0.00  0.00    +0.000 A 
ATOM     26  C   UNL     1       0.064  17.169  18.185  0.00  0.00    +0.000 A 
ATOM     27  C   UNL     1       0.617  18.081  17.271  0.00  0.00    +0.000 A 
ATOM     28  N   UNL     1       1.934  17.912  17.129  0.00  0.00    +0.000 NA
ATOM     29  O   UNL     1       2.259  16.845  17.953  0.00  0.00    +0.000 OA
ENDBRANCH  24  25
ENDBRANCH  21  24
ENDBRANCH   6  18
TORSDOF 4
ENDMDL
MODEL 7
REMARK VINA RESULT:      -8.0      2.603      9.798
REMARK  Name = 
REMARK  5 active torsions:
REMARK  status: ('A' for Active; 'I' for Inactive)
REMARK    1  A    between atoms: C_1  and  C_2
REMARK    2  A    between atoms: C_4  and  C_5
REMARK    3  A    between atoms: C_10  and  N_11
REMARK    4  A    between atoms: N_14  and  C_15
REMARK    5  A    between atoms: C_15  and  C_16
REMARK                            x       y       z     vdW  Elec       q    Type
REMARK                         _______ _______ _______ _____ _____    ______ ____
ROOT
ATOM      1  C   UNL     1       6.909   4.630  16.065  0.00  0.00    +0.000 A 
ATOM      2  N   UNL     1       7.929   4.194  16.825  0.00  0.00    +0.000 NA
ATOM      3  N   UNL     1       7.550   4.472  18.087  0.00  0.00    +0.000 N 
ATOM      4  C   UNL     1       6.306   5.034  18.195  0.00  0.00    +0.000 A 
ATOM      5  C   UNL     1       5.525   5.447  19.289  0.00  0.00    +0.000 A 
ATOM      6  C   UNL     1       4.270   5.971  18.971  0.00  0.00    +0.000 A 
ATOM      7  N   UNL     1       3.842   6.081  17.700  0.00  0.00    +0.000 NA
ATOM      8  C   UNL     1       4.600   5.677  16.661  0.00  0.00    +0.000 A 
ATOM      9  C   UNL     1       5.865   5.147  16.883  0.00  0.00    +0.000 A 
ATOM     10  H   UNL     1       8.196   4.239  18.832  0.00  0.00    +0.000 HD
ENDROOT
BRANCH   1  14
ATOM     11  C   UNL     1       5.350   2.634  11.755  0.00  0.00    +0.000 C 
ATOM     12  C   UNL     1       6.209   3.584  12.533  0.00  0.00    +0.000 A 
ATOM     13  C   UNL     1       6.121   3.659  13.918  0.00  0.00    +0.000 A 
ATOM     14  C   UNL     1       6.942   4.557  14.604  0.00  0.00    +0.000 A 
ATOM     15  C   UNL     1       7.806   5.370  13.870  0.00  0.00    +0.000 A 
ATOM     16  C   UNL     1       7.834   5.227  12.496  0.00  0.00    +0.000 A 
ATOM     17  N   UNL     1       7.061   4.355  11.818  0.00  0.00    +0.000 NA
ENDBRANCH   1  14
BRANCH   6  18
ATOM     18  N   UNL     1       3.406   6.399  20.007  0.00  0.00    +0.000 N 
ATOM     19  C   UNL     1       2.292   7.175  19.781  0.00  0.00    +0.000 C 
ATOM     20  O   UNL     1       1.902   7.599  18.687  0.00  0.00    +0.000 OA
ATOM     21  N   UNL     1       1.540   7.441  20.912  0.00  0.00    +0.000 N 
ATOM     22  H   UNL     1       3.594   6.089  20.946  0.00  0.00    +0.000 HD
ATOM     23  H   UNL     1       2.004   7.508  21.806  0.00  0.00    +0.000 HD
BRANCH  21  24
ATOM     24  C   UNL     1       0.349   8.246  20.691  0.00  0.00    +0.000 C 
BRANCH  24  25
ATOM     25  C   UNL     1       0.638   9.689  20.576  0.00  0.00    +0.000 A 
ATOM     26  C   UNL     1       0.721  10.557  19.512  0.00  0.00    +0.000 A 
ATOM     27  C   UNL     1       1.202  11.749  20.082  0.00  0.00    +0.000 A 
ATOM     28  N   UNL     1       1.381  11.638  21.400  0.00  0.00    +0.000 NA
ATOM     29  O   UNL     1       1.033  10.332  21.711  0.00  0.00    +0.000 OA
ENDBRANCH  24  25
ENDBRANCH  21  24
ENDBRANCH   6  18
TORSDOF 4
ENDMDL
MODEL 8
REMARK VINA RESULT:      -8.0      3.065      9.972
REMARK  Name = 
REMARK  5 active torsions:
REMARK  status: ('A' for Active; 'I' for Inactive)
REMARK    1  A    between atoms: C_1  and  C_2
REMARK    2  A    between atoms: C_4  and  C_5
REMARK    3  A    between atoms: C_10  and  N_11
REMARK    4  A    between atoms: N_14  and  C_15
REMARK    5  A    between atoms: C_15  and  C_16
REMARK                            x       y       z     vdW  Elec       q    Type
REMARK                         _______ _______ _______ _____ _____    ______ ____
ROOT
ATOM      1  C   UNL     1       4.380   4.131  18.772  0.00  0.00    +0.000 A 
ATOM      2  N   UNL     1       4.177   2.958  19.395  0.00  0.00    +0.000 NA
ATOM      3  N   UNL     1       3.172   3.206  20.258  0.00  0.00    +0.000 N 
ATOM      4  C   UNL     1       2.677   4.480  20.199  0.00  0.00    +0.000 A 
ATOM      5  C   UNL     1       1.641   5.145  20.879  0.00  0.00    +0.000 A 
ATOM      6  C   UNL     1       1.434   6.477  20.510  0.00  0.00    +0.000 A 
ATOM      7  N   UNL     1       2.184   7.084  19.573  0.00  0.00    +0.000 NA
ATOM      8  C   UNL     1       3.172   6.434  18.926  0.00  0.00    +0.000 A 
ATOM      9  C   UNL     1       3.451   5.107  19.231  0.00  0.00    +0.000 A 
ATOM     10  H   UNL     1       2.869   2.446  20.855  0.00  0.00    +0.000 HD
ENDROOT
BRANCH   1  14
ATOM     11  C   UNL     1       5.976   4.004  14.035  0.00  0.00    +0.000 C 
ATOM     12  C   UNL     1       6.209   4.227  15.500  0.00  0.00    +0.000 A 
ATOM     13  C   UNL     1       5.173   4.093  16.417  0.00  0.00    +0.000 A 
ATOM     14  C   UNL     1       5.434   4.308  17.772  0.00  0.00    +0.000 A 
ATOM     15  C   UNL     1       6.724   4.677  18.157  0.00  0.00    +0.000 A 
ATOM     16  C   UNL     1       7.696   4.782  17.179  0.00  0.00    +0.000 A 
ATOM     17  N   UNL     1       7.467   4.563  15.869  0.00  0.00    +0.000 NA
ENDBRANCH   1  14
BRANCH   6  18
ATOM     18  N   UNL     1       0.403   7.223  21.130  0.00  0.00    +0.000 N 
ATOM     19  C   UNL     1       0.633   8.400  21.807  0.00  0.00    +0.000 C 
ATOM     20  O   UNL     1       1.727   8.950  21.971  0.00  0.00    +0.000 OA
ATOM     21  N   UNL     1      -0.509   9.015  22.291  0.00  0.00    +0.000 N 
ATOM     22  H   UNL     1      -0.545   6.900  21.036  0.00  0.00    +0.000 HD
ATOM     23  H   UNL     1      -1.295   8.444  22.564  0.00  0.00    +0.000 HD
BRANCH  21  24
ATOM     24  C   UNL     1      -0.288  10.268  22.995  0.00  0.00    +0.000 C 
BRANCH  24  25
ATOM     25  C   UNL     1      -1.257  11.319  22.625  0.00  0.00    +0.000 A 
ATOM     26  C   UNL     1      -1.264  12.306  21.667  0.00  0.00    +0.000 A 
ATOM     27  C   UNL     1      -2.405  13.067  21.971  0.00  0.00    +0.000 A 
ATOM     28  N   UNL     1      -3.069  12.578  23.021  0.00  0.00    +0.000 NA
ATOM     29  O   UNL     1      -2.337  11.477  23.439  0.00  0.00    +0.000 OA
ENDBRANCH  24  25
ENDBRANCH  21  24
ENDBRANCH   6  18
TORSDOF 4
ENDMDL
MODEL 9
REMARK VINA RESULT:      -7.9      3.837     10.349
REMARK  Name = 
REMARK  5 active torsions:
REMARK  status: ('A' for Active; 'I' for Inactive)
REMARK    1  A    between atoms: C_1  and  C_2
REMARK    2  A    between atoms: C_4  and  C_5
REMARK    3  A    between atoms: C_10  and  N_11
REMARK    4  A    between atoms: N_14  and  C_15
REMARK    5  A    between atoms: C_15  and  C_16
REMARK                            x       y       z     vdW  Elec       q    Type
REMARK                         _______ _______ _______ _____ _____    ______ ____
ROOT
ATOM      1  C   UNL     1       2.309   7.950  18.208  0.00  0.00    +0.000 A 
ATOM      2  N   UNL     1       2.234   8.885  17.246  0.00  0.00    +0.000 NA
ATOM      3  N   UNL     1       1.556   9.900  17.816  0.00  0.00    +0.000 N 
ATOM      4  C   UNL     1       1.217   9.690  19.126  0.00  0.00    +0.000 A 
ATOM      5  C   UNL     1       0.551  10.470  20.087  0.00  0.00    +0.000 A 
ATOM      6  C   UNL     1       0.414   9.886  21.349  0.00  0.00    +0.000 A 
ATOM      7  N   UNL     1       0.882   8.655  21.622  0.00  0.00    +0.000 NA
ATOM      8  C   UNL     1       1.523   7.920  20.692  0.00  0.00    +0.000 A 
ATOM      9  C   UNL     1       1.701   8.419  19.407  0.00  0.00    +0.000 A 
ATOM     10  H   UNL     1       1.367  10.716  17.246  0.00  0.00    +0.000 HD
ENDROOT
BRANCH   1  14
ATOM     11  C   UNL     1       2.067   2.963  17.950  0.00  0.00    +0.000 C 
ATOM     12  C   UNL     1       2.830   4.252  17.877  0.00  0.00    +0.000 A 
ATOM     13  C   UNL     1       2.190   5.472  18.055  0.00  0.00    +0.000 A 
ATOM     14  C   UNL     1       2.939   6.649  17.981  0.00  0.00    +0.000 A 
ATOM     15  C   UNL     1       4.303   6.559  17.702  0.00  0.00    +0.000 A 
ATOM     16  C   UNL     1       4.860   5.303  17.544  0.00  0.00    +0.000 A 
ATOM     17  N   UNL     1       4.157   4.157  17.628  0.00  0.00    +0.000 NA
ENDBRANCH   1  14
BRANCH   6  18
ATOM     18  N   UNL     1      -0.230  10.603  22.387  0.00  0.00    +0.000 N 
ATOM     19  C   UNL     1      -1.067  11.670  22.151  0.00  0.00    +0.000 C 
ATOM     20  O   UNL     1      -1.362  12.143  21.048  0.00  0.00    +0.000 OA
ATOM     21  N   UNL     1      -1.650  12.202  23.288  0.00  0.00    +0.000 N 
ATOM     22  H   UNL     1      -0.101  10.293  23.335  0.00  0.00    +0.000 HD
ATOM     23  H   UNL     1      -1.146  12.165  24.162  0.00  0.00    +0.000 HD
BRANCH  21  24
ATOM     24  C   UNL     1      -2.551  13.320  23.059  0.00  0.00    +0.000 C 
BRANCH  24  25
ATOM     25  C   UNL     1      -3.954  13.013  23.399  0.00  0.00    +0.000 A 
ATOM     26  C   UNL     1      -5.156  13.608  23.092  0.00  0.00    +0.000 A 
ATOM     27  C   UNL     1      -6.091  12.912  23.877  0.00  0.00    +0.000 A 
ATOM     28  N   UNL     1      -5.520  11.944  24.597  0.00  0.00    +0.000 NA
ATOM     29  O   UNL     1      -4.167  12.014  24.301  0.00  0.00    +0.000 OA
ENDBRANCH  24  25
ENDBRANCH  21  24
ENDBRANCH   6  18
TORSDOF 4
ENDMDL
