MODEL 1
REMARK VINA RESULT:      -8.1      0.000      0.000
REMARK  Name = 
REMARK  7 active torsions:
REMARK  status: ('A' for Active; 'I' for Inactive)
REMARK    1  A    between atoms: C_2  and  C_3
REMARK    2  A    between atoms: C_3  and  N_4
REMARK    3  A    between atoms: N_7  and  C_8
REMARK    4  A    between atoms: C_8  and  C_9
REMARK    5  A    between atoms: N_18  and  C_19
REMARK    6  A    between atoms: C_19  and  C_20
REMARK    7  A    between atoms: C_20  and  C_21
REMARK                            x       y       z     vdW  Elec       q    Type
REMARK                         _______ _______ _______ _____ _____    ______ ____
ROOT
ATOM      1  N   UNL     1       5.725   6.457  16.832  0.00  0.00    +0.000 NA
ATOM      2  C   UNL     1       5.174   5.687  15.691  0.00  0.00    +0.000 C 
ATOM      3  C   UNL     1       5.068   4.155  15.892  0.00  0.00    +0.000 C 
ATOM      4  N   UNL     1       4.418   3.718  17.147  0.00  0.00    +0.000 NA
ATOM      5  C   UNL     1       4.966   4.485  18.281  0.00  0.00    +0.000 C 
ATOM      6  C   UNL     1       5.005   6.022  18.057  0.00  0.00    +0.000 C 
ENDROOT
BRANCH   1   7
ATOM      7  C   UNL     1       7.182   6.227  17.025  0.00  0.00    +0.000 C 
BRANCH   7   9
ATOM      8  O   UNL     1       8.382   6.906  18.996  0.00  0.00    +0.000 OA
ATOM      9  C   UNL     1       7.884   7.249  17.920  0.00  0.00    +0.000 C 
ATOM     10  N   UNL     1       7.897   8.559  17.497  0.00  0.00    +0.000 N 
ATOM     11  H   UNL     1       7.303   8.811  16.714  0.00  0.00    +0.000 HD
BRANCH  10  12
ATOM     12  C   UNL     1       8.597   9.575  18.263  0.00  0.00    +0.000 C 
BRANCH  12  13
ATOM     13  C   UNL     1       8.168  11.004  17.889  0.00  0.00    +0.000 C 
BRANCH  13  14
ATOM     14  C   UNL     1       9.346  11.950  17.900  0.00  0.00    +0.000 A 
ATOM     15  C   UNL     1       9.130  13.335  17.867  0.00  0.00    +0.000 A 
ATOM     16  C   UNL     1      10.208  14.218  17.799  0.00  0.00    +0.000 A 
ATOM     17  C   UNL     1      11.511  13.726  17.760  0.00  0.00    +0.000 A 
ATOM     18  C   UNL     1      11.737  12.351  17.808  0.00  0.00    +0.000 A 
ATOM     19  C   UNL     1      10.659  11.465  17.879  0.00  0.00    +0.000 A 
ENDBRANCH  13  14
ENDBRANCH  12  13
ENDBRANCH  10  12
ENDBRANCH   7   9
ENDBRANCH   1   7
BRANCH   4  20
ATOM     20  C   UNL     1       2.949   3.820  17.101  0.00  0.00    +0.000 C 
BRANCH  20  21
ATOM     21  C   UNL     1       2.297   3.463  18.419  0.00  0.00    +0.000 A 
ATOM     22  C   UNL     1       1.525   4.406  19.118  0.00  0.00    +0.000 A 
ATOM     23  C   UNL     1       1.043   4.115  20.394  0.00  0.00    +0.000 A 
ATOM     24  C   UNL     1       1.296   2.875  20.958  0.00  0.00    +0.000 A 
ATOM     25  F   UNL     1       0.863   2.599  22.191  0.00  0.00    +0.000 F 
ATOM     26  C   UNL     1       2.028   1.909  20.262  0.00  0.00    +0.000 A 
ATOM     27  C   UNL     1       2.523   2.198  18.993  0.00  0.00    +0.000 A 
ENDBRANCH  20  21
ENDBRANCH   4  20
TORSDOF 7
ENDMDL
MODEL 2
REMARK VINA RESULT:      -7.8      1.033      1.907
REMARK  Name = 
REMARK  7 active torsions:
REMARK  status: ('A' for Active; 'I' for Inactive)
REMARK    1  A    between atoms: C_2  and  C_3
REMARK    2  A    between atoms: C_3  and  N_4
REMARK    3  A    between atoms: N_7  and  C_8
REMARK    4  A    between atoms: C_8  and  C_9
REMARK    5  A    between atoms: N_18  and  C_19
REMARK    6  A    between atoms: C_19  and  C_20
REMARK    7  A    between atoms: C_20  and  C_21
REMARK                            x       y       z     vdW  Elec       q    Type
REMARK                         _______ _______ _______ _____ _____    ______ ____
ROOT
ATOM      1  N   UNL     1       7.116   5.764  17.545  0.00  0.00    +0.000 NA
ATOM      2  C   UNL     1       6.163   5.624  18.672  0.00  0.00    +0.000 C 
ATOM      3  C   UNL     1       4.670   5.863  18.335  0.00  0.00    +0.000 C 
ATOM      4  N   UNL     1       4.156   5.132  17.155  0.00  0.00    +0.000 NA
ATOM      5  C   UNL     1       5.105   5.270  16.035  0.00  0.00    +0.000 C 
ATOM      6  C   UNL     1       6.584   4.970  16.406  0.00  0.00    +0.000 C 
ENDROOT
BRANCH   1   7
ATOM      7  C   UNL     1       7.282   7.176  17.109  0.00  0.00    +0.000 C 
BRANCH   7   9
ATOM      8  O   UNL     1       8.657   7.568  19.044  0.00  0.00    +0.000 OA
ATOM      9  C   UNL     1       8.080   8.059  18.069  0.00  0.00    +0.000 C 
ATOM     10  N   UNL     1       8.092   9.413  17.823  0.00  0.00    +0.000 N 
ATOM     11  H   UNL     1       7.442   9.776  17.134  0.00  0.00    +0.000 HD
BRANCH  10  12
ATOM     12  C   UNL     1       8.878  10.308  18.654  0.00  0.00    +0.000 C 
BRANCH  12  13
ATOM     13  C   UNL     1      10.095  10.891  17.917  0.00  0.00    +0.000 C 
BRANCH  13  14
ATOM     14  C   UNL     1      10.024  12.398  17.849  0.00  0.00    +0.000 A 
ATOM     15  C   UNL     1      11.005  13.113  17.146  0.00  0.00    +0.000 A 
ATOM     16  C   UNL     1      10.996  14.508  17.139  0.00  0.00    +0.000 A 
ATOM     17  C   UNL     1      10.008  15.202  17.835  0.00  0.00    +0.000 A 
ATOM     18  C   UNL     1       9.020  14.501  18.524  0.00  0.00    +0.000 A 
ATOM     19  C   UNL     1       9.025  13.104  18.530  0.00  0.00    +0.000 A 
ENDBRANCH  13  14
ENDBRANCH  12  13
ENDBRANCH  10  12
ENDBRANCH   7   9
ENDBRANCH   1   7
BRANCH   4  20
ATOM     20  C   UNL     1       3.873   3.713  17.436  0.00  0.00    +0.000 C 
BRANCH  20  21
ATOM     21  C   UNL     1       3.088   3.517  18.715  0.00  0.00    +0.000 A 
ATOM     22  C   UNL     1       3.695   2.957  19.852  0.00  0.00    +0.000 A 
ATOM     23  C   UNL     1       2.933   2.652  20.980  0.00  0.00    +0.000 A 
ATOM     24  C   UNL     1       1.577   2.939  20.990  0.00  0.00    +0.000 A 
ATOM     25  F   UNL     1       0.834   2.623  22.055  0.00  0.00    +0.000 F 
ATOM     26  C   UNL     1       0.963   3.532  19.884  0.00  0.00    +0.000 A 
ATOM     27  C   UNL     1       1.715   3.826  18.750  0.00  0.00    +0.000 A 
ENDBRANCH  20  21
ENDBRANCH   4  20
TORSDOF 7
ENDMDL
MODEL 3
REMARK VINA RESULT:      -7.7      0.984      1.640
REMARK  Name = 
REMARK  7 active torsions:
REMARK  status: ('A' for Active; 'I' for Inactive)
REMARK    1  A    between atoms: C_2  and  C_3
REMARK    2  A    between atoms: C_3  and  N_4
REMARK    3  A    between atoms: N_7  and  C_8
REMARK    4  A    between atoms: C_8  and  C_9
REMARK    5  A    between atoms: N_18  and  C_19
REMARK    6  A    between atoms: C_19  and  C_20
REMARK    7  A    between atoms: C_20  and  C_21
REMARK                            x       y       z     vdW  Elec       q    Type
REMARK                         _______ _______ _______ _____ _____    ______ ____
ROOT
ATOM      1  N   UNL     1       5.741   6.620  16.806  0.00  0.00    +0.000 NA
ATOM      2  C   UNL     1       5.170   5.840  15.682  0.00  0.00    +0.000 C 
ATOM      3  C   UNL     1       5.158   4.301  15.859  0.00  0.00    +0.000 C 
ATOM      4  N   UNL     1       4.602   3.810  17.139  0.00  0.00    +0.000 NA
ATOM      5  C   UNL     1       5.168   4.587  18.256  0.00  0.00    +0.000 C 
ATOM      6  C   UNL     1       5.112   6.127  18.060  0.00  0.00    +0.000 C 
ENDROOT
BRANCH   1   7
ATOM      7  C   UNL     1       7.216   6.468  16.917  0.00  0.00    +0.000 C 
BRANCH   7   9
ATOM      8  O   UNL     1       8.360   6.931  18.982  0.00  0.00    +0.000 OA
ATOM      9  C   UNL     1       7.886   7.388  17.938  0.00  0.00    +0.000 C 
ATOM     10  N   UNL     1       7.897   8.737  17.663  0.00  0.00    +0.000 N 
ATOM     11  H   UNL     1       7.320   9.070  16.898  0.00  0.00    +0.000 HD
BRANCH  10  12
ATOM     12  C   UNL     1       8.568   9.667  18.555  0.00  0.00    +0.000 C 
BRANCH  12  13
ATOM     13  C   UNL     1       9.642  10.505  17.843  0.00  0.00    +0.000 C 
BRANCH  13  14
ATOM     14  C   UNL     1      10.098  11.658  18.706  0.00  0.00    +0.000 A 
ATOM     15  C   UNL     1      11.466  11.853  18.947  0.00  0.00    +0.000 A 
ATOM     16  C   UNL     1      11.897  12.865  19.805  0.00  0.00    +0.000 A 
ATOM     17  C   UNL     1      10.966  13.692  20.431  0.00  0.00    +0.000 A 
ATOM     18  C   UNL     1       9.605  13.517  20.186  0.00  0.00    +0.000 A 
ATOM     19  C   UNL     1       9.171  12.505  19.325  0.00  0.00    +0.000 A 
ENDBRANCH  13  14
ENDBRANCH  12  13
ENDBRANCH  10  12
ENDBRANCH   7   9
ENDBRANCH   1   7
BRANCH   4  20
ATOM     20  C   UNL     1       3.129   3.832  17.173  0.00  0.00    +0.000 C 
BRANCH  20  21
ATOM     21  C   UNL     1       2.572   3.531  18.548  0.00  0.00    +0.000 A 
ATOM     22  C   UNL     1       2.811   2.290  19.164  0.00  0.00    +0.000 A 
ATOM     23  C   UNL     1       2.182   1.968  20.367  0.00  0.00    +0.000 A 
ATOM     24  C   UNL     1       1.348   2.893  20.974  0.00  0.00    +0.000 A 
ATOM     25  F   UNL     1       0.719   2.581  22.111  0.00  0.00    +0.000 F 
ATOM     26  C   UNL     1       1.130   4.147  20.398  0.00  0.00    +0.000 A 
ATOM     27  C   UNL     1       1.744   4.469  19.190  0.00  0.00    +0.000 A 
ENDBRANCH  20  21
ENDBRANCH   4  20
TORSDOF 7
ENDMDL
MODEL 4
REMARK VINA RESULT:      -7.7      1.408      1.823
REMARK  Name = 
REMARK  7 active torsions:
REMARK  status: ('A' for Active; 'I' for Inactive)
REMARK    1  A    between atoms: C_2  and  C_3
REMARK    2  A    between atoms: C_3  and  N_4
REMARK    3  A    between atoms: N_7  and  C_8
REMARK    4  A    between atoms: C_8  and  C_9
REMARK    5  A    between atoms: N_18  and  C_19
REMARK    6  A    between atoms: C_19  and  C_20
REMARK    7  A    between atoms: C_20  and  C_21
REMARK                            x       y       z     vdW  Elec       q    Type
REMARK                         _______ _______ _______ _____ _____    ______ ____
ROOT
ATOM      1  N   UNL     1       6.966   5.505  17.645  0.00  0.00    +0.000 NA
ATOM      2  C   UNL     1       6.014   5.291  18.761  0.00  0.00    +0.000 C 
ATOM      3  C   UNL     1       4.511   5.423  18.409  0.00  0.00    +0.000 C 
ATOM      4  N   UNL     1       4.064   4.661  17.221  0.00  0.00    +0.000 NA
ATOM      5  C   UNL     1       5.013   4.872  16.112  0.00  0.00    +0.000 C 
ATOM      6  C   UNL     1       6.505   4.679  16.498  0.00  0.00    +0.000 C 
ENDROOT
BRANCH   1   7
ATOM      7  C   UNL     1       7.033   6.927  17.216  0.00  0.00    +0.000 C 
BRANCH   7   9
ATOM      8  O   UNL     1       8.630   7.329  18.970  0.00  0.00    +0.000 OA
ATOM      9  C   UNL     1       7.969   7.808  18.044  0.00  0.00    +0.000 C 
ATOM     10  N   UNL     1       8.009   9.150  17.741  0.00  0.00    +0.000 N 
ATOM     11  H   UNL     1       7.301   9.516  17.112  0.00  0.00    +0.000 HD
BRANCH  10  12
ATOM     12  C   UNL     1       8.918  10.039  18.443  0.00  0.00    +0.000 C 
BRANCH  12  13
ATOM     13  C   UNL     1       8.811  11.498  17.967  0.00  0.00    +0.000 C 
BRANCH  13  14
ATOM     14  C   UNL     1       9.554  12.432  18.893  0.00  0.00    +0.000 A 
ATOM     15  C   UNL     1       9.370  12.334  20.279  0.00  0.00    +0.000 A 
ATOM     16  C   UNL     1       9.988  13.239  21.142  0.00  0.00    +0.000 A 
ATOM     17  C   UNL     1      10.796  14.252  20.627  0.00  0.00    +0.000 A 
ATOM     18  C   UNL     1      10.998  14.348  19.251  0.00  0.00    +0.000 A 
ATOM     19  C   UNL     1      10.382  13.441  18.386  0.00  0.00    +0.000 A 
ENDBRANCH  13  14
ENDBRANCH  12  13
ENDBRANCH  10  12
ENDBRANCH   7   9
ENDBRANCH   1   7
BRANCH   4  20
ATOM     20  C   UNL     1       3.882   3.225  17.494  0.00  0.00    +0.000 C 
BRANCH  20  21
ATOM     21  C   UNL     1       3.042   2.967  18.727  0.00  0.00    +0.000 A 
ATOM     22  C   UNL     1       1.651   3.167  18.704  0.00  0.00    +0.000 A 
ATOM     23  C   UNL     1       0.905   3.061  19.877  0.00  0.00    +0.000 A 
ATOM     24  C   UNL     1       1.534   2.719  21.063  0.00  0.00    +0.000 A 
ATOM     25  F   UNL     1       0.831   2.644  22.197  0.00  0.00    +0.000 F 
ATOM     26  C   UNL     1       2.910   2.477  21.099  0.00  0.00    +0.000 A 
ATOM     27  C   UNL     1       3.663   2.595  19.934  0.00  0.00    +0.000 A 
ENDBRANCH  20  21
ENDBRANCH   4  20
TORSDOF 7
ENDMDL
MODEL 5
REMARK VINA RESULT:      -7.6      0.599      1.168
REMARK  Name = 
REMARK  7 active torsions:
REMARK  status: ('A' for Active; 'I' for Inactive)
REMARK    1  A    between atoms: C_2  and  C_3
REMARK    2  A    between atoms: C_3  and  N_4
REMARK    3  A    between atoms: N_7  and  C_8
REMARK    4  A    between atoms: C_8  and  C_9
REMARK    5  A    between atoms: N_18  and  C_19
REMARK    6  A    between atoms: C_19  and  C_20
REMARK    7  A    between atoms: C_20  and  C_21
REMARK                            x       y       z     vdW  Elec       q    Type
REMARK                         _______ _______ _______ _____ _____    ______ ____
ROOT
ATOM      1  N   UNL     1       5.807   6.890  16.927  0.00  0.00    +0.000 NA
ATOM      2  C   UNL     1       5.235   6.150  15.778  0.00  0.00    +0.000 C 
ATOM      3  C   UNL     1       5.127   4.614  15.944  0.00  0.00    +0.000 C 
ATOM      4  N   UNL     1       4.494   4.150  17.199  0.00  0.00    +0.000 NA
ATOM      5  C   UNL     1       5.062   4.888  18.342  0.00  0.00    +0.000 C 
ATOM      6  C   UNL     1       5.104   6.429  18.153  0.00  0.00    +0.000 C 
ENDROOT
BRANCH   1   7
ATOM      7  C   UNL     1       7.266   6.651  17.092  0.00  0.00    +0.000 C 
BRANCH   7   9
ATOM      8  O   UNL     1       8.524   7.194  19.070  0.00  0.00    +0.000 OA
ATOM      9  C   UNL     1       7.974   7.613  18.047  0.00  0.00    +0.000 C 
ATOM     10  N   UNL     1       7.935   8.954  17.741  0.00  0.00    +0.000 N 
ATOM     11  H   UNL     1       7.303   9.254  17.006  0.00  0.00    +0.000 HD
BRANCH  10  12
ATOM     12  C   UNL     1       8.636   9.921  18.566  0.00  0.00    +0.000 C 
BRANCH  12  13
ATOM     13  C   UNL     1       9.835  10.561  17.846  0.00  0.00    +0.000 C 
BRANCH  13  14
ATOM     14  C   UNL     1       9.710  12.065  17.804  0.00  0.00    +0.000 A 
ATOM     15  C   UNL     1      10.853  12.857  17.628  0.00  0.00    +0.000 A 
ATOM     16  C   UNL     1      10.764  14.249  17.665  0.00  0.00    +0.000 A 
ATOM     17  C   UNL     1       9.531  14.863  17.880  0.00  0.00    +0.000 A 
ATOM     18  C   UNL     1       8.386  14.085  18.040  0.00  0.00    +0.000 A 
ATOM     19  C   UNL     1       8.473  12.691  18.001  0.00  0.00    +0.000 A 
ENDBRANCH  13  14
ENDBRANCH  12  13
ENDBRANCH  10  12
ENDBRANCH   7   9
ENDBRANCH   1   7
BRANCH   4  20
ATOM     20  C   UNL     1       3.025   4.258  17.177  0.00  0.00    +0.000 C 
BRANCH  20  21
ATOM     21  C   UNL     1       2.387   3.797  18.470  0.00  0.00    +0.000 A 
ATOM     22  C   UNL     1       1.777   4.718  19.339  0.00  0.00    +0.000 A 
ATOM     23  C   UNL     1       1.314   4.306  20.589  0.00  0.00    +0.000 A 
ATOM     24  C   UNL     1       1.423   2.975  20.957  0.00  0.00    +0.000 A 
ATOM     25  F   UNL     1       1.009   2.579  22.164  0.00  0.00    +0.000 F 
ATOM     26  C   UNL     1       1.990   2.037  20.091  0.00  0.00    +0.000 A 
ATOM     27  C   UNL     1       2.466   2.443  18.847  0.00  0.00    +0.000 A 
ENDBRANCH  20  21
ENDBRANCH   4  20
TORSDOF 7
ENDMDL
MODEL 6
REMARK VINA RESULT:      -7.3      2.162      2.584
REMARK  Name = 
REMARK  7 active torsions:
REMARK  status: ('A' for Active; 'I' for Inactive)
REMARK    1  A    between atoms: C_2  and  C_3
REMARK    2  A    between atoms: C_3  and  N_4
REMARK    3  A    between atoms: N_7  and  C_8
REMARK    4  A    between atoms: C_8  and  C_9
REMARK    5  A    between atoms: N_18  and  C_19
REMARK    6  A    between atoms: C_19  and  C_20
REMARK    7  A    between atoms: C_20  and  C_21
REMARK                            x       y       z     vdW  Elec       q    Type
REMARK                         _______ _______ _______ _____ _____    ______ ____
ROOT
ATOM      1  N   UNL     1       6.920   7.073  16.992  0.00  0.00    +0.000 NA
ATOM      2  C   UNL     1       7.332   5.862  16.243  0.00  0.00    +0.000 C 
ATOM      3  C   UNL     1       7.186   4.515  16.993  0.00  0.00    +0.000 C 
ATOM      4  N   UNL     1       5.874   4.280  17.636  0.00  0.00    +0.000 NA
ATOM      5  C   UNL     1       5.464   5.485  18.380  0.00  0.00    +0.000 C 
ATOM      6  C   UNL     1       5.577   6.807  17.571  0.00  0.00    +0.000 C 
ENDROOT
BRANCH   1   7
ATOM      7  C   UNL     1       7.859   7.410  18.094  0.00  0.00    +0.000 C 
BRANCH   7   9
ATOM      8  O   UNL     1       7.699   9.725  17.459  0.00  0.00    +0.000 OA
ATOM      9  C   UNL     1       8.227   8.891  18.200  0.00  0.00    +0.000 C 
ATOM     10  N   UNL     1       9.192   9.240  19.117  0.00  0.00    +0.000 N 
ATOM     11  H   UNL     1       9.728   8.494  19.549  0.00  0.00    +0.000 HD
BRANCH  10  12
ATOM     12  C   UNL     1       9.550  10.633  19.318  0.00  0.00    +0.000 C 
BRANCH  12  13
ATOM     13  C   UNL     1       9.294  11.113  20.756  0.00  0.00    +0.000 C 
BRANCH  13  14
ATOM     14  C   UNL     1       9.407  12.615  20.860  0.00  0.00    +0.000 A 
ATOM     15  C   UNL     1       9.470  13.226  22.121  0.00  0.00    +0.000 A 
ATOM     16  C   UNL     1       9.496  14.616  22.234  0.00  0.00    +0.000 A 
ATOM     17  C   UNL     1       9.458  15.410  21.089  0.00  0.00    +0.000 A 
ATOM     18  C   UNL     1       9.411  14.812  19.830  0.00  0.00    +0.000 A 
ATOM     19  C   UNL     1       9.387  13.420  19.715  0.00  0.00    +0.000 A 
ENDBRANCH  13  14
ENDBRANCH  12  13
ENDBRANCH  10  12
ENDBRANCH   7   9
ENDBRANCH   1   7
BRANCH   4  20
ATOM     20  C   UNL     1       4.831   3.868  16.681  0.00  0.00    +0.000 C 
BRANCH  20  21
ATOM     21  C   UNL     1       3.547   3.447  17.363  0.00  0.00    +0.000 A 
ATOM     22  C   UNL     1       2.425   4.295  17.369  0.00  0.00    +0.000 A 
ATOM     23  C   UNL     1       1.295   3.961  18.115  0.00  0.00    +0.000 A 
ATOM     24  C   UNL     1       1.266   2.771  18.823  0.00  0.00    +0.000 A 
ATOM     25  F   UNL     1       0.199   2.458  19.564  0.00  0.00    +0.000 F 
ATOM     26  C   UNL     1       2.356   1.896  18.798  0.00  0.00    +0.000 A 
ATOM     27  C   UNL     1       3.493   2.229  18.066  0.00  0.00    +0.000 A 
ENDBRANCH  20  21
ENDBRANCH   4  20
TORSDOF 7
ENDMDL
MODEL 7
REMARK VINA RESULT:      -7.3      2.637      3.282
REMARK  Name = 
REMARK  7 active torsions:
REMARK  status: ('A' for Active; 'I' for Inactive)
REMARK    1  A    between atoms: C_2  and  C_3
REMARK    2  A    between atoms: C_3  and  N_4
REMARK    3  A    between atoms: N_7  and  C_8
REMARK    4  A    between atoms: C_8  and  C_9
REMARK    5  A    between atoms: N_18  and  C_19
REMARK    6  A    between atoms: C_19  and  C_20
REMARK    7  A    between atoms: C_20  and  C_21
REMARK                            x       y       z     vdW  Elec       q    Type
REMARK                         _______ _______ _______ _____ _____    ______ ____
ROOT
ATOM      1  N   UNL     1       6.980   7.132  17.045  0.00  0.00    +0.000 NA
ATOM      2  C   UNL     1       7.394   5.914  16.309  0.00  0.00    +0.000 C 
ATOM      3  C   UNL     1       7.301   4.581  17.093  0.00  0.00    +0.000 C 
ATOM      4  N   UNL     1       6.014   4.333  17.781  0.00  0.00    +0.000 NA
ATOM      5  C   UNL     1       5.602   5.546  18.512  0.00  0.00    +0.000 C 
ATOM      6  C   UNL     1       5.661   6.851  17.672  0.00  0.00    +0.000 C 
ENDROOT
BRANCH   1   7
ATOM      7  C   UNL     1       7.946   7.513  18.110  0.00  0.00    +0.000 C 
BRANCH   7   9
ATOM      8  O   UNL     1       7.784   9.797  17.373  0.00  0.00    +0.000 OA
ATOM      9  C   UNL     1       8.264   9.007  18.190  0.00  0.00    +0.000 C 
ATOM     10  N   UNL     1       9.131   9.417  19.177  0.00  0.00    +0.000 N 
ATOM     11  H   UNL     1       9.645   8.704  19.684  0.00  0.00    +0.000 HD
BRANCH  10  12
ATOM     12  C   UNL     1       9.433  10.827  19.355  0.00  0.00    +0.000 C 
BRANCH  12  13
ATOM     13  C   UNL     1       9.890  11.162  20.784  0.00  0.00    +0.000 C 
BRANCH  13  14
ATOM     14  C   UNL     1       8.901  12.070  21.477  0.00  0.00    +0.000 A 
ATOM     15  C   UNL     1       8.720  13.384  21.022  0.00  0.00    +0.000 A 
ATOM     16  C   UNL     1       7.868  14.257  21.699  0.00  0.00    +0.000 A 
ATOM     17  C   UNL     1       7.189  13.825  22.837  0.00  0.00    +0.000 A 
ATOM     18  C   UNL     1       7.349  12.516  23.288  0.00  0.00    +0.000 A 
ATOM     19  C   UNL     1       8.200  11.640  22.610  0.00  0.00    +0.000 A 
ENDBRANCH  13  14
ENDBRANCH  12  13
ENDBRANCH  10  12
ENDBRANCH   7   9
ENDBRANCH   1   7
BRANCH   4  20
ATOM     20  C   UNL     1       4.951   3.879  16.868  0.00  0.00    +0.000 C 
BRANCH  20  21
ATOM     21  C   UNL     1       3.677   3.506  17.595  0.00  0.00    +0.000 A 
ATOM     22  C   UNL     1       3.575   2.286  18.287  0.00  0.00    +0.000 A 
ATOM     23  C   UNL     1       2.357   1.888  18.837  0.00  0.00    +0.000 A 
ATOM     24  C   UNL     1       1.252   2.718  18.732  0.00  0.00    +0.000 A 
ATOM     25  F   UNL     1       0.075   2.330  19.230  0.00  0.00    +0.000 F 
ATOM     26  C   UNL     1       1.343   3.952  18.083  0.00  0.00    +0.000 A 
ATOM     27  C   UNL     1       2.553   4.350  17.520  0.00  0.00    +0.000 A 
ENDBRANCH  20  21
ENDBRANCH   4  20
TORSDOF 7
ENDMDL
MODEL 8
REMARK VINA RESULT:      -7.2      1.131      1.827
REMARK  Name = 
REMARK  7 active torsions:
REMARK  status: ('A' for Active; 'I' for Inactive)
REMARK    1  A    between atoms: C_2  and  C_3
REMARK    2  A    between atoms: C_3  and  N_4
REMARK    3  A    between atoms: N_7  and  C_8
REMARK    4  A    between atoms: C_8  and  C_9
REMARK    5  A    between atoms: N_18  and  C_19
REMARK    6  A    between atoms: C_19  and  C_20
REMARK    7  A    between atoms: C_20  and  C_21
REMARK                            x       y       z     vdW  Elec       q    Type
REMARK                         _______ _______ _______ _____ _____    ______ ____
ROOT
ATOM      1  N   UNL     1       5.960   5.752  18.166  0.00  0.00    +0.000 NA
ATOM      2  C   UNL     1       4.632   5.553  18.795  0.00  0.00    +0.000 C 
ATOM      3  C   UNL     1       3.493   5.097  17.849  0.00  0.00    +0.000 C 
ATOM      4  N   UNL     1       3.809   3.942  16.979  0.00  0.00    +0.000 NA
ATOM      5  C   UNL     1       5.130   4.140  16.355  0.00  0.00    +0.000 C 
ATOM      6  C   UNL     1       6.254   4.546  17.348  0.00  0.00    +0.000 C 
ENDROOT
BRANCH   1   7
ATOM      7  C   UNL     1       6.002   6.950  17.286  0.00  0.00    +0.000 C 
BRANCH   7   9
ATOM      8  O   UNL     1       8.235   7.191  16.424  0.00  0.00    +0.000 OA
ATOM      9  C   UNL     1       7.368   7.630  17.184  0.00  0.00    +0.000 C 
ATOM     10  N   UNL     1       7.598   8.714  18.000  0.00  0.00    +0.000 N 
ATOM     11  H   UNL     1       6.929   8.902  18.740  0.00  0.00    +0.000 HD
BRANCH  10  12
ATOM     12  C   UNL     1       8.848   9.449  17.917  0.00  0.00    +0.000 C 
BRANCH  12  13
ATOM     13  C   UNL     1       8.924  10.612  18.921  0.00  0.00    +0.000 C 
BRANCH  13  14
ATOM     14  C   UNL     1       9.609  11.814  18.316  0.00  0.00    +0.000 A 
ATOM     15  C   UNL     1      10.876  11.676  17.731  0.00  0.00    +0.000 A 
ATOM     16  C   UNL     1      11.554  12.791  17.238  0.00  0.00    +0.000 A 
ATOM     17  C   UNL     1      10.973  14.055  17.326  0.00  0.00    +0.000 A 
ATOM     18  C   UNL     1       9.707  14.201  17.891  0.00  0.00    +0.000 A 
ATOM     19  C   UNL     1       9.026  13.085  18.383  0.00  0.00    +0.000 A 
ENDBRANCH  13  14
ENDBRANCH  12  13
ENDBRANCH  10  12
ENDBRANCH   7   9
ENDBRANCH   1   7
BRANCH   4  20
ATOM     20  C   UNL     1       3.747   2.653  17.689  0.00  0.00    +0.000 C 
BRANCH  20  21
ATOM     21  C   UNL     1       2.941   2.728  18.967  0.00  0.00    +0.000 A 
ATOM     22  C   UNL     1       3.568   2.609  20.220  0.00  0.00    +0.000 A 
ATOM     23  C   UNL     1       2.805   2.542  21.386  0.00  0.00    +0.000 A 
ATOM     24  C   UNL     1       1.424   2.630  21.309  0.00  0.00    +0.000 A 
ATOM     25  F   UNL     1       0.685   2.536  22.418  0.00  0.00    +0.000 F 
ATOM     26  C   UNL     1       0.785   2.788  20.076  0.00  0.00    +0.000 A 
ATOM     27  C   UNL     1       1.540   2.843  18.908  0.00  0.00    +0.000 A 
ENDBRANCH  20  21
ENDBRANCH   4  20
TORSDOF 7
ENDMDL
MODEL 9
REMARK VINA RESULT:      -7.2      1.128      1.710
REMARK  Name = 
REMARK  7 active torsions:
REMARK  status: ('A' for Active; 'I' for Inactive)
REMARK    1  A    between atoms: C_2  and  C_3
REMARK    2  A    between atoms: C_3  and  N_4
REMARK    3  A    between atoms: N_7  and  C_8
REMARK    4  A    between atoms: C_8  and  C_9
REMARK    5  A    between atoms: N_18  and  C_19
REMARK    6  A    between atoms: C_19  and  C_20
REMARK    7  A    between atoms: C_20  and  C_21
REMARK                            x       y       z     vdW  Elec       q    Type
REMARK                         _______ _______ _______ _____ _____    ______ ____
ROOT
ATOM      1  N   UNL     1       5.519   6.154  18.680  0.00  0.00    +0.000 NA
ATOM      2  C   UNL     1       4.803   6.436  17.413  0.00  0.00    +0.000 C 
ATOM      3  C   UNL     1       4.676   5.250  16.425  0.00  0.00    +0.000 C 
ATOM      4  N   UNL     1       4.178   3.984  17.007  0.00  0.00    +0.000 NA
ATOM      5  C   UNL     1       4.889   3.705  18.268  0.00  0.00    +0.000 C 
ATOM      6  C   UNL     1       4.946   4.906  19.251  0.00  0.00    +0.000 C 
ENDROOT
BRANCH   1   7
ATOM      7  C   UNL     1       6.980   5.964  18.481  0.00  0.00    +0.000 C 
BRANCH   7   9
ATOM      8  O   UNL     1       7.870   7.321  16.705  0.00  0.00    +0.000 OA
ATOM      9  C   UNL     1       7.719   7.181  17.921  0.00  0.00    +0.000 C 
ATOM     10  N   UNL     1       8.239   8.078  18.827  0.00  0.00    +0.000 N 
ATOM     11  H   UNL     1       8.259   7.807  19.805  0.00  0.00    +0.000 HD
BRANCH  10  12
ATOM     12  C   UNL     1       8.900   9.288  18.371  0.00  0.00    +0.000 C 
BRANCH  12  13
ATOM     13  C   UNL     1       9.347  10.195  19.529  0.00  0.00    +0.000 C 
BRANCH  13  14
ATOM     14  C   UNL     1      10.365  11.211  19.068  0.00  0.00    +0.000 A 
ATOM     15  C   UNL     1      11.269  11.762  19.987  0.00  0.00    +0.000 A 
ATOM     16  C   UNL     1      12.163  12.758  19.592  0.00  0.00    +0.000 A 
ATOM     17  C   UNL     1      12.161  13.213  18.275  0.00  0.00    +0.000 A 
ATOM     18  C   UNL     1      11.277  12.660  17.349  0.00  0.00    +0.000 A 
ATOM     19  C   UNL     1      10.383  11.662  17.742  0.00  0.00    +0.000 A 
ENDBRANCH  13  14
ENDBRANCH  12  13
ENDBRANCH  10  12
ENDBRANCH   7   9
ENDBRANCH   1   7
BRANCH   4  20
ATOM     20  C   UNL     1       2.719   3.979  17.210  0.00  0.00    +0.000 C 
BRANCH  20  21
ATOM     21  C   UNL     1       2.328   3.598  18.622  0.00  0.00    +0.000 A 
ATOM     22  C   UNL     1       2.344   2.253  19.033  0.00  0.00    +0.000 A 
ATOM     23  C   UNL     1       1.852   1.896  20.289  0.00  0.00    +0.000 A 
ATOM     24  C   UNL     1       1.380   2.876  21.147  0.00  0.00    +0.000 A 
ATOM     25  F   UNL     1       0.880   2.538  22.339  0.00  0.00    +0.000 F 
ATOM     26  C   UNL     1       1.393   4.222  20.771  0.00  0.00    +0.000 A 
ATOM     27  C   UNL     1       1.870   4.585  19.514  0.00  0.00    +0.000 A 
ENDBRANCH  20  21
ENDBRANCH   4  20
TORSDOF 7
ENDMDL
