MODEL 1
REMARK VINA RESULT:      -7.6      0.000      0.000
REMARK  Name = 
REMARK  7 active torsions:
REMARK  status: ('A' for Active; 'I' for Inactive)
REMARK    1  A    between atoms: C_1  and  N_2
REMARK    2  A    between atoms: N_2  and  C_3
REMARK    3  A    between atoms: N_2  and  C_12
REMARK    4  A    between atoms: C_14  and  C_15
REMARK    5  A    between atoms: C_15  and  S_16
REMARK    6  A    between atoms: S_16  and  C_19
REMARK    7  A    between atoms: C_22  and  C_23
REMARK                            x       y       z     vdW  Elec       q    Type
REMARK                         _______ _______ _______ _____ _____    ______ ____
ROOT
ATOM      1  C   UNL     1       3.093   2.910  18.017  0.00  0.00    +0.000 C 
ATOM      2  C   UNL     1       1.837   3.173  18.894  0.00  0.00    +0.000 C 
ATOM      3  C   UNL     1       1.808   4.637  18.370  0.00  0.00    +0.000 C 
ATOM      4  C   UNL     1       2.598   4.097  17.141  0.00  0.00    +0.000 C 
ENDROOT
BRANCH   1   6
ATOM      5  C   UNL     1       4.384   2.843  20.161  0.00  0.00    +0.000 C 
ATOM      6  N   UNL     1       4.349   3.128  18.718  0.00  0.00    +0.000 N 
BRANCH   6   7
ATOM      7  C   UNL     1       5.336   4.087  18.340  0.00  0.00    +0.000 A 
ATOM      8  N   UNL     1       5.868   4.878  19.324  0.00  0.00    +0.000 NA
ATOM      9  C   UNL     1       6.822   5.783  19.040  0.00  0.00    +0.000 A 
ATOM     10  N   UNL     1       7.387   6.028  17.856  0.00  0.00    +0.000 NA
ATOM     11  C   UNL     1       6.866   5.245  16.903  0.00  0.00    +0.000 A 
ATOM     12  N   UNL     1       7.285   5.275  15.602  0.00  0.00    +0.000 N 
ATOM     13  C   UNL     1       6.545   4.397  14.860  0.00  0.00    +0.000 A 
ATOM     14  C   UNL     1       5.643   3.792  15.712  0.00  0.00    +0.000 A 
ATOM     15  C   UNL     1       5.860   4.291  17.035  0.00  0.00    +0.000 A 
ATOM     16  H   UNL     1       8.034   5.865  15.269  0.00  0.00    +0.000 HD
ENDBRANCH   6   7
ENDBRANCH   1   6
BRANCH   3  17
ATOM     17  C   UNL     1       2.483   5.726  19.201  0.00  0.00    +0.000 C 
BRANCH  17  18
ATOM     18  S   UNL     1       2.546   7.285  18.328  0.00  0.00    +0.000 S 
ATOM     19  O   UNL     1       3.924   7.532  17.960  0.00  0.00    +0.000 OA
ATOM     20  O   UNL     1       1.495   7.322  17.328  0.00  0.00    +0.000 OA
BRANCH  18  21
ATOM     21  C   UNL     1       2.110   8.484  19.580  0.00  0.00    +0.000 C 
ATOM     22  C   UNL     1       1.149   9.535  19.036  0.00  0.00    +0.000 C 
ATOM     23  C   UNL     1       0.519  10.112  20.290  0.00  0.00    +0.000 C 
ATOM     24  C   UNL     1       0.295   8.895  21.188  0.00  0.00    +0.000 C 
ATOM     25  C   UNL     1       1.392   7.890  20.798  0.00  0.00    +0.000 C 
BRANCH  24  26
ATOM     26  C   UNL     1       0.341   9.248  22.613  0.00  0.00    +0.000 C 
ATOM     27  N   UNL     1       0.378   9.549  23.732  0.00  0.00    +0.000 NA
ENDBRANCH  24  26
ENDBRANCH  18  21
ENDBRANCH  17  18
ENDBRANCH   3  17
TORSDOF 6
ENDMDL
MODEL 2
REMARK VINA RESULT:      -7.5      2.966      7.532
REMARK  Name = 
REMARK  7 active torsions:
REMARK  status: ('A' for Active; 'I' for Inactive)
REMARK    1  A    between atoms: C_1  and  N_2
REMARK    2  A    between atoms: N_2  and  C_3
REMARK    3  A    between atoms: N_2  and  C_12
REMARK    4  A    between atoms: C_14  and  C_15
REMARK    5  A    between atoms: C_15  and  S_16
REMARK    6  A    between atoms: S_16  and  C_19
REMARK    7  A    between atoms: C_22  and  C_23
REMARK                            x       y       z     vdW  Elec       q    Type
REMARK                         _______ _______ _______ _____ _____    ______ ____
ROOT
ATOM      1  C   UNL     1       3.842   4.617  19.648  0.00  0.00    +0.000 C 
ATOM      2  C   UNL     1       4.575   3.462  18.909  0.00  0.00    +0.000 C 
ATOM      3  C   UNL     1       5.612   4.491  18.379  0.00  0.00    +0.000 C 
ATOM      4  C   UNL     1       5.206   5.367  19.601  0.00  0.00    +0.000 C 
ENDROOT
BRANCH   1   6
ATOM      5  C   UNL     1       2.298   4.491  17.681  0.00  0.00    +0.000 C 
ATOM      6  N   UNL     1       2.769   5.218  18.870  0.00  0.00    +0.000 N 
BRANCH   6   7
ATOM      7  C   UNL     1       2.522   6.620  18.771  0.00  0.00    +0.000 A 
ATOM      8  N   UNL     1       2.900   7.254  17.616  0.00  0.00    +0.000 NA
ATOM      9  C   UNL     1       2.673   8.569  17.447  0.00  0.00    +0.000 A 
ATOM     10  N   UNL     1       2.067   9.407  18.290  0.00  0.00    +0.000 NA
ATOM     11  C   UNL     1       1.695   8.777  19.411  0.00  0.00    +0.000 A 
ATOM     12  N   UNL     1       1.031   9.399  20.431  0.00  0.00    +0.000 N 
ATOM     13  C   UNL     1       0.823   8.514  21.452  0.00  0.00    +0.000 A 
ATOM     14  C   UNL     1       1.359   7.303  21.066  0.00  0.00    +0.000 A 
ATOM     15  C   UNL     1       1.887   7.438  19.744  0.00  0.00    +0.000 A 
ATOM     16  H   UNL     1       0.747  10.368  20.405  0.00  0.00    +0.000 HD
ENDBRANCH   6   7
ENDBRANCH   1   6
BRANCH   3  17
ATOM     17  C   UNL     1       5.401   5.098  16.993  0.00  0.00    +0.000 C 
BRANCH  17  18
ATOM     18  S   UNL     1       6.939   5.254  16.095  0.00  0.00    +0.000 S 
ATOM     19  O   UNL     1       7.438   6.597  16.301  0.00  0.00    +0.000 OA
ATOM     20  O   UNL     1       7.777   4.102  16.368  0.00  0.00    +0.000 OA
BRANCH  18  21
ATOM     21  C   UNL     1       6.437   5.133  14.384  0.00  0.00    +0.000 C 
ATOM     22  C   UNL     1       7.637   4.938  13.462  0.00  0.00    +0.000 C 
ATOM     23  C   UNL     1       7.018   4.362  12.202  0.00  0.00    +0.000 C 
ATOM     24  C   UNL     1       5.962   3.385  12.720  0.00  0.00    +0.000 C 
ATOM     25  C   UNL     1       5.514   3.946  14.079  0.00  0.00    +0.000 C 
BRANCH  24  26
ATOM     26  C   UNL     1       4.842   3.238  11.779  0.00  0.00    +0.000 C 
ATOM     27  N   UNL     1       3.974   3.126  11.021  0.00  0.00    +0.000 NA
ENDBRANCH  24  26
ENDBRANCH  18  21
ENDBRANCH  17  18
ENDBRANCH   3  17
TORSDOF 6
ENDMDL
MODEL 3
REMARK VINA RESULT:      -7.2      3.552      7.301
REMARK  Name = 
REMARK  7 active torsions:
REMARK  status: ('A' for Active; 'I' for Inactive)
REMARK    1  A    between atoms: C_1  and  N_2
REMARK    2  A    between atoms: N_2  and  C_3
REMARK    3  A    between atoms: N_2  and  C_12
REMARK    4  A    between atoms: C_14  and  C_15
REMARK    5  A    between atoms: C_15  and  S_16
REMARK    6  A    between atoms: S_16  and  C_19
REMARK    7  A    between atoms: C_22  and  C_23
REMARK                            x       y       z     vdW  Elec       q    Type
REMARK                         _______ _______ _______ _____ _____    ______ ____
ROOT
ATOM      1  C   UNL     1       2.960   6.359  18.534  0.00  0.00    +0.000 C 
ATOM      2  C   UNL     1       4.416   6.521  19.053  0.00  0.00    +0.000 C 
ATOM      3  C   UNL     1       4.922   6.453  17.584  0.00  0.00    +0.000 C 
ATOM      4  C   UNL     1       3.493   6.926  17.185  0.00  0.00    +0.000 C 
ENDROOT
BRANCH   1   6
ATOM      5  C   UNL     1       1.533   4.606  17.457  0.00  0.00    +0.000 C 
ATOM      6  N   UNL     1       2.505   4.978  18.497  0.00  0.00    +0.000 N 
BRANCH   6   7
ATOM      7  C   UNL     1       2.426   4.117  19.633  0.00  0.00    +0.000 A 
ATOM      8  N   UNL     1       1.289   4.170  20.396  0.00  0.00    +0.000 NA
ATOM      9  C   UNL     1       1.139   3.367  21.465  0.00  0.00    +0.000 A 
ATOM     10  N   UNL     1       1.987   2.438  21.912  0.00  0.00    +0.000 NA
ATOM     11  C   UNL     1       3.090   2.389  21.156  0.00  0.00    +0.000 A 
ATOM     12  N   UNL     1       4.109   1.506  21.380  0.00  0.00    +0.000 N 
ATOM     13  C   UNL     1       5.111   1.720  20.475  0.00  0.00    +0.000 A 
ATOM     14  C   UNL     1       4.713   2.755  19.653  0.00  0.00    +0.000 A 
ATOM     15  C   UNL     1       3.402   3.171  20.046  0.00  0.00    +0.000 A 
ATOM     16  H   UNL     1       4.095   0.810  22.112  0.00  0.00    +0.000 HD
ENDBRANCH   6   7
ENDBRANCH   1   6
BRANCH   3  17
ATOM     17  C   UNL     1       5.384   5.107  17.029  0.00  0.00    +0.000 C 
BRANCH  17  18
ATOM     18  S   UNL     1       6.930   5.250  16.143  0.00  0.00    +0.000 S 
ATOM     19  O   UNL     1       7.439   6.589  16.351  0.00  0.00    +0.000 OA
ATOM     20  O   UNL     1       7.758   4.091  16.425  0.00  0.00    +0.000 OA
BRANCH  18  21
ATOM     21  C   UNL     1       6.442   5.130  14.428  0.00  0.00    +0.000 C 
ATOM     22  C   UNL     1       7.651   4.969  13.513  0.00  0.00    +0.000 C 
ATOM     23  C   UNL     1       7.053   4.389  12.244  0.00  0.00    +0.000 C 
ATOM     24  C   UNL     1       6.016   3.384  12.749  0.00  0.00    +0.000 C 
ATOM     25  C   UNL     1       5.548   3.925  14.109  0.00  0.00    +0.000 C 
BRANCH  24  26
ATOM     26  C   UNL     1       4.906   3.219  11.800  0.00  0.00    +0.000 C 
ATOM     27  N   UNL     1       4.019   3.077  11.068  0.00  0.00    +0.000 NA
ENDBRANCH  24  26
ENDBRANCH  18  21
ENDBRANCH  17  18
ENDBRANCH   3  17
TORSDOF 6
ENDMDL
MODEL 4
REMARK VINA RESULT:      -7.0      3.632      7.422
REMARK  Name = 
REMARK  7 active torsions:
REMARK  status: ('A' for Active; 'I' for Inactive)
REMARK    1  A    between atoms: C_1  and  N_2
REMARK    2  A    between atoms: N_2  and  C_3
REMARK    3  A    between atoms: N_2  and  C_12
REMARK    4  A    between atoms: C_14  and  C_15
REMARK    5  A    between atoms: C_15  and  S_16
REMARK    6  A    between atoms: S_16  and  C_19
REMARK    7  A    between atoms: C_22  and  C_23
REMARK                            x       y       z     vdW  Elec       q    Type
REMARK                         _______ _______ _______ _____ _____    ______ ____
ROOT
ATOM      1  C   UNL     1       3.024   6.378  18.300  0.00  0.00    +0.000 C 
ATOM      2  C   UNL     1       4.321   6.139  19.123  0.00  0.00    +0.000 C 
ATOM      3  C   UNL     1       5.150   6.292  17.817  0.00  0.00    +0.000 C 
ATOM      4  C   UNL     1       3.940   7.107  17.273  0.00  0.00    +0.000 C 
ENDROOT
BRANCH   1   6
ATOM      5  C   UNL     1       1.092   5.263  17.164  0.00  0.00    +0.000 C 
ATOM      6  N   UNL     1       2.402   5.152  17.825  0.00  0.00    +0.000 N 
BRANCH   6   7
ATOM      7  C   UNL     1       2.601   3.862  18.402  0.00  0.00    +0.000 A 
ATOM      8  N   UNL     1       3.232   2.913  17.640  0.00  0.00    +0.000 NA
ATOM      9  C   UNL     1       3.474   1.685  18.133  0.00  0.00    +0.000 A 
ATOM     10  N   UNL     1       3.193   1.225  19.353  0.00  0.00    +0.000 NA
ATOM     11  C   UNL     1       2.583   2.161  20.091  0.00  0.00    +0.000 A 
ATOM     12  N   UNL     1       2.207   1.959  21.390  0.00  0.00    +0.000 N 
ATOM     13  C   UNL     1       1.576   3.075  21.866  0.00  0.00    +0.000 A 
ATOM     14  C   UNL     1       1.561   4.007  20.848  0.00  0.00    +0.000 A 
ATOM     15  C   UNL     1       2.238   3.457  19.714  0.00  0.00    +0.000 A 
ATOM     16  H   UNL     1       2.385   1.104  21.897  0.00  0.00    +0.000 HD
ENDBRANCH   6   7
ENDBRANCH   1   6
BRANCH   3  17
ATOM     17  C   UNL     1       5.538   5.033  17.043  0.00  0.00    +0.000 C 
BRANCH  17  18
ATOM     18  S   UNL     1       7.050   5.262  16.117  0.00  0.00    +0.000 S 
ATOM     19  O   UNL     1       7.499   6.622  16.330  0.00  0.00    +0.000 OA
ATOM     20  O   UNL     1       7.940   4.142  16.360  0.00  0.00    +0.000 OA
BRANCH  18  21
ATOM     21  C   UNL     1       6.520   5.141  14.415  0.00  0.00    +0.000 C 
ATOM     22  C   UNL     1       7.705   4.963  13.472  0.00  0.00    +0.000 C 
ATOM     23  C   UNL     1       7.071   4.385  12.220  0.00  0.00    +0.000 C 
ATOM     24  C   UNL     1       6.036   3.393  12.753  0.00  0.00    +0.000 C 
ATOM     25  C   UNL     1       5.606   3.945  14.122  0.00  0.00    +0.000 C 
BRANCH  24  26
ATOM     26  C   UNL     1       4.901   3.236  11.832  0.00  0.00    +0.000 C 
ATOM     27  N   UNL     1       4.010   3.134  11.099  0.00  0.00    +0.000 NA
ENDBRANCH  24  26
ENDBRANCH  18  21
ENDBRANCH  17  18
ENDBRANCH   3  17
TORSDOF 6
ENDMDL
MODEL 5
REMARK VINA RESULT:      -6.9      3.315      8.676
REMARK  Name = 
REMARK  7 active torsions:
REMARK  status: ('A' for Active; 'I' for Inactive)
REMARK    1  A    between atoms: C_1  and  N_2
REMARK    2  A    between atoms: N_2  and  C_3
REMARK    3  A    between atoms: N_2  and  C_12
REMARK    4  A    between atoms: C_14  and  C_15
REMARK    5  A    between atoms: C_15  and  S_16
REMARK    6  A    between atoms: S_16  and  C_19
REMARK    7  A    between atoms: C_22  and  C_23
REMARK                            x       y       z     vdW  Elec       q    Type
REMARK                         _______ _______ _______ _____ _____    ______ ____
ROOT
ATOM      1  C   UNL     1       0.291   9.684  20.987  0.00  0.00    +0.000 C 
ATOM      2  C   UNL     1      -0.038   8.165  20.954  0.00  0.00    +0.000 C 
ATOM      3  C   UNL     1       1.485   7.861  20.884  0.00  0.00    +0.000 C 
ATOM      4  C   UNL     1       1.684   9.260  21.538  0.00  0.00    +0.000 C 
ENDROOT
BRANCH   1   6
ATOM      5  C   UNL     1       1.381  11.258  19.374  0.00  0.00    +0.000 C 
ATOM      6  N   UNL     1       0.300  10.306  19.672  0.00  0.00    +0.000 N 
BRANCH   6   7
ATOM      7  C   UNL     1      -0.862  10.554  18.881  0.00  0.00    +0.000 A 
ATOM      8  N   UNL     1      -0.978   9.885  17.691  0.00  0.00    +0.000 NA
ATOM      9  C   UNL     1      -2.061  10.053  16.910  0.00  0.00    +0.000 A 
ATOM     10  N   UNL     1      -3.131  10.813  17.151  0.00  0.00    +0.000 NA
ATOM     11  C   UNL     1      -3.011  11.456  18.319  0.00  0.00    +0.000 A 
ATOM     12  N   UNL     1      -3.980  12.281  18.819  0.00  0.00    +0.000 N 
ATOM     13  C   UNL     1      -3.559  12.822  20.002  0.00  0.00    +0.000 A 
ATOM     14  C   UNL     1      -2.300  12.320  20.262  0.00  0.00    +0.000 A 
ATOM     15  C   UNL     1      -1.946  11.410  19.216  0.00  0.00    +0.000 A 
ATOM     16  H   UNL     1      -4.865  12.446  18.361  0.00  0.00    +0.000 HD
ENDBRANCH   6   7
ENDBRANCH   1   6
BRANCH   3  17
ATOM     17  C   UNL     1       2.127   7.642  19.515  0.00  0.00    +0.000 C 
BRANCH  17  18
ATOM     18  S   UNL     1       2.476   5.915  19.214  0.00  0.00    +0.000 S 
ATOM     19  O   UNL     1       2.445   5.227  20.487  0.00  0.00    +0.000 OA
ATOM     20  O   UNL     1       1.672   5.446  18.100  0.00  0.00    +0.000 OA
BRANCH  18  21
ATOM     21  C   UNL     1       4.175   5.921  18.659  0.00  0.00    +0.000 C 
ATOM     22  C   UNL     1       5.002   4.861  19.377  0.00  0.00    +0.000 C 
ATOM     23  C   UNL     1       6.196   4.670  18.460  0.00  0.00    +0.000 C 
ATOM     24  C   UNL     1       5.596   4.714  17.054  0.00  0.00    +0.000 C 
ATOM     25  C   UNL     1       4.351   5.610  17.167  0.00  0.00    +0.000 C 
BRANCH  24  26
ATOM     26  C   UNL     1       6.558   5.215  16.062  0.00  0.00    +0.000 C 
ATOM     27  N   UNL     1       7.331   5.595  15.288  0.00  0.00    +0.000 NA
ENDBRANCH  24  26
ENDBRANCH  18  21
ENDBRANCH  17  18
ENDBRANCH   3  17
TORSDOF 6
ENDMDL
MODEL 6
REMARK VINA RESULT:      -6.9      6.136     11.569
REMARK  Name = 
REMARK  7 active torsions:
REMARK  status: ('A' for Active; 'I' for Inactive)
REMARK    1  A    between atoms: C_1  and  N_2
REMARK    2  A    between atoms: N_2  and  C_3
REMARK    3  A    between atoms: N_2  and  C_12
REMARK    4  A    between atoms: C_14  and  C_15
REMARK    5  A    between atoms: C_15  and  S_16
REMARK    6  A    between atoms: S_16  and  C_19
REMARK    7  A    between atoms: C_22  and  C_23
REMARK                            x       y       z     vdW  Elec       q    Type
REMARK                         _______ _______ _______ _____ _____    ______ ____
ROOT
ATOM      1  C   UNL     1      -4.498  14.105  23.212  0.00  0.00    +0.000 C 
ATOM      2  C   UNL     1      -4.140  12.770  23.923  0.00  0.00    +0.000 C 
ATOM      3  C   UNL     1      -2.675  12.927  23.425  0.00  0.00    +0.000 C 
ATOM      4  C   UNL     1      -2.985  14.450  23.332  0.00  0.00    +0.000 C 
ENDROOT
BRANCH   1   6
ATOM      5  C   UNL     1      -5.112  15.126  21.010  0.00  0.00    +0.000 C 
ATOM      6  N   UNL     1      -4.996  13.929  21.857  0.00  0.00    +0.000 N 
BRANCH   6   7
ATOM      7  C   UNL     1      -5.894  12.897  21.448  0.00  0.00    +0.000 A 
ATOM      8  N   UNL     1      -6.980  12.643  22.245  0.00  0.00    +0.000 NA
ATOM      9  C   UNL     1      -7.878  11.702  21.904  0.00  0.00    +0.000 A 
ATOM     10  N   UNL     1      -7.885  10.938  20.809  0.00  0.00    +0.000 NA
ATOM     11  C   UNL     1      -6.824  11.199  20.034  0.00  0.00    +0.000 A 
ATOM     12  N   UNL     1      -6.602  10.574  18.839  0.00  0.00    +0.000 N 
ATOM     13  C   UNL     1      -5.427  11.017  18.299  0.00  0.00    +0.000 A 
ATOM     14  C   UNL     1      -4.899  11.952  19.167  0.00  0.00    +0.000 A 
ATOM     15  C   UNL     1      -5.800  12.114  20.266  0.00  0.00    +0.000 A 
ATOM     16  H   UNL     1      -7.231   9.892  18.440  0.00  0.00    +0.000 HD
ENDBRANCH   6   7
ENDBRANCH   1   6
BRANCH   3  17
ATOM     17  C   UNL     1      -2.261  12.226  22.133  0.00  0.00    +0.000 C 
BRANCH  17  18
ATOM     18  S   UNL     1      -0.574  11.637  22.209  0.00  0.00    +0.000 S 
ATOM     19  O   UNL     1       0.302  12.776  22.039  0.00  0.00    +0.000 OA
ATOM     20  O   UNL     1      -0.423  10.749  23.348  0.00  0.00    +0.000 OA
BRANCH  18  21
ATOM     21  C   UNL     1      -0.418  10.626  20.743  0.00  0.00    +0.000 C 
ATOM     22  C   UNL     1      -1.292  11.150  19.608  0.00  0.00    +0.000 C 
ATOM     23  C   UNL     1      -0.667  10.528  18.372  0.00  0.00    +0.000 C 
ATOM     24  C   UNL     1       0.838  10.627  18.627  0.00  0.00    +0.000 C 
ATOM     25  C   UNL     1       0.999  10.582  20.156  0.00  0.00    +0.000 C 
BRANCH  24  26
ATOM     26  C   UNL     1       1.580   9.551  17.955  0.00  0.00    +0.000 C 
ATOM     27  N   UNL     1       2.145   8.695  17.417  0.00  0.00    +0.000 NA
ENDBRANCH  24  26
ENDBRANCH  18  21
ENDBRANCH  17  18
ENDBRANCH   3  17
TORSDOF 6
ENDMDL
MODEL 7
REMARK VINA RESULT:      -6.9      0.884      1.793
REMARK  Name = 
REMARK  7 active torsions:
REMARK  status: ('A' for Active; 'I' for Inactive)
REMARK    1  A    between atoms: C_1  and  N_2
REMARK    2  A    between atoms: N_2  and  C_3
REMARK    3  A    between atoms: N_2  and  C_12
REMARK    4  A    between atoms: C_14  and  C_15
REMARK    5  A    between atoms: C_15  and  S_16
REMARK    6  A    between atoms: S_16  and  C_19
REMARK    7  A    between atoms: C_22  and  C_23
REMARK                            x       y       z     vdW  Elec       q    Type
REMARK                         _______ _______ _______ _____ _____    ______ ____
ROOT
ATOM      1  C   UNL     1       2.946   3.145  18.225  0.00  0.00    +0.000 C 
ATOM      2  C   UNL     1       2.194   3.550  19.524  0.00  0.00    +0.000 C 
ATOM      3  C   UNL     1       1.916   4.946  18.899  0.00  0.00    +0.000 C 
ATOM      4  C   UNL     1       2.098   4.245  17.521  0.00  0.00    +0.000 C 
ENDROOT
BRANCH   1   6
ATOM      5  C   UNL     1       5.011   3.459  19.605  0.00  0.00    +0.000 C 
ATOM      6  N   UNL     1       4.378   3.396  18.279  0.00  0.00    +0.000 N 
BRANCH   6   7
ATOM      7  C   UNL     1       5.113   4.132  17.301  0.00  0.00    +0.000 A 
ATOM      8  N   UNL     1       4.848   3.878  15.980  0.00  0.00    +0.000 NA
ATOM      9  C   UNL     1       5.486   4.555  15.009  0.00  0.00    +0.000 A 
ATOM     10  N   UNL     1       6.389   5.528  15.150  0.00  0.00    +0.000 NA
ATOM     11  C   UNL     1       6.635   5.773  16.443  0.00  0.00    +0.000 A 
ATOM     12  N   UNL     1       7.503   6.740  16.867  0.00  0.00    +0.000 N 
ATOM     13  C   UNL     1       7.575   6.727  18.232  0.00  0.00    +0.000 A 
ATOM     14  C   UNL     1       6.726   5.736  18.682  0.00  0.00    +0.000 A 
ATOM     15  C   UNL     1       6.082   5.139  17.554  0.00  0.00    +0.000 A 
ATOM     16  H   UNL     1       8.000   7.358  16.242  0.00  0.00    +0.000 HD
ENDBRANCH   6   7
ENDBRANCH   1   6
BRANCH   3  17
ATOM     17  C   UNL     1       2.868   6.097  19.219  0.00  0.00    +0.000 C 
BRANCH  17  18
ATOM     18  S   UNL     1       2.470   7.568  18.286  0.00  0.00    +0.000 S 
ATOM     19  O   UNL     1       3.696   8.067  17.700  0.00  0.00    +0.000 OA
ATOM     20  O   UNL     1       1.304   7.316  17.460  0.00  0.00    +0.000 OA
BRANCH  18  21
ATOM     21  C   UNL     1       1.971   8.738  19.541  0.00  0.00    +0.000 C 
ATOM     22  C   UNL     1       0.908   9.699  19.019  0.00  0.00    +0.000 C 
ATOM     23  C   UNL     1       0.268  10.233  20.287  0.00  0.00    +0.000 C 
ATOM     24  C   UNL     1       0.174   9.010  21.199  0.00  0.00    +0.000 C 
ATOM     25  C   UNL     1       1.340   8.098  20.784  0.00  0.00    +0.000 C 
BRANCH  24  26
ATOM     26  C   UNL     1       0.231   9.380  22.620  0.00  0.00    +0.000 C 
ATOM     27  N   UNL     1       0.258   9.660  23.744  0.00  0.00    +0.000 NA
ENDBRANCH  24  26
ENDBRANCH  18  21
ENDBRANCH  17  18
ENDBRANCH   3  17
TORSDOF 6
ENDMDL
MODEL 8
REMARK VINA RESULT:      -6.9      1.540      1.744
REMARK  Name = 
REMARK  7 active torsions:
REMARK  status: ('A' for Active; 'I' for Inactive)
REMARK    1  A    between atoms: C_1  and  N_2
REMARK    2  A    between atoms: N_2  and  C_3
REMARK    3  A    between atoms: N_2  and  C_12
REMARK    4  A    between atoms: C_14  and  C_15
REMARK    5  A    between atoms: C_15  and  S_16
REMARK    6  A    between atoms: S_16  and  C_19
REMARK    7  A    between atoms: C_22  and  C_23
REMARK                            x       y       z     vdW  Elec       q    Type
REMARK                         _______ _______ _______ _____ _____    ______ ____
ROOT
ATOM      1  C   UNL     1       3.382   2.800  17.633  0.00  0.00    +0.000 C 
ATOM      2  C   UNL     1       2.181   2.846  18.618  0.00  0.00    +0.000 C 
ATOM      3  C   UNL     1       1.843   4.272  18.102  0.00  0.00    +0.000 C 
ATOM      4  C   UNL     1       2.605   3.866  16.806  0.00  0.00    +0.000 C 
ENDROOT
BRANCH   1   6
ATOM      5  C   UNL     1       4.785   3.141  19.679  0.00  0.00    +0.000 C 
ATOM      6  N   UNL     1       4.635   3.251  18.219  0.00  0.00    +0.000 N 
BRANCH   6   7
ATOM      7  C   UNL     1       5.467   4.274  17.674  0.00  0.00    +0.000 A 
ATOM      8  N   UNL     1       5.849   5.296  18.504  0.00  0.00    +0.000 NA
ATOM      9  C   UNL     1       6.654   6.278  18.060  0.00  0.00    +0.000 A 
ATOM     10  N   UNL     1       7.197   6.403  16.847  0.00  0.00    +0.000 NA
ATOM     11  C   UNL     1       6.823   5.398  16.047  0.00  0.00    +0.000 A 
ATOM     12  N   UNL     1       7.257   5.270  14.757  0.00  0.00    +0.000 N 
ATOM     13  C   UNL     1       6.678   4.173  14.182  0.00  0.00    +0.000 A 
ATOM     14  C   UNL     1       5.866   3.588  15.133  0.00  0.00    +0.000 A 
ATOM     15  C   UNL     1       5.976   4.333  16.349  0.00  0.00    +0.000 A 
ATOM     16  H   UNL     1       7.910   5.906  14.321  0.00  0.00    +0.000 HD
ENDBRANCH   6   7
ENDBRANCH   1   6
BRANCH   3  17
ATOM     17  C   UNL     1       2.381   5.478  18.871  0.00  0.00    +0.000 C 
BRANCH  17  18
ATOM     18  S   UNL     1       1.675   5.589  20.510  0.00  0.00    +0.000 S 
ATOM     19  O   UNL     1       0.296   5.157  20.430  0.00  0.00    +0.000 OA
ATOM     20  O   UNL     1       2.585   4.989  21.469  0.00  0.00    +0.000 OA
BRANCH  18  21
ATOM     21  C   UNL     1       1.661   7.345  20.841  0.00  0.00    +0.000 C 
ATOM     22  C   UNL     1       1.661   8.157  19.550  0.00  0.00    +0.000 C 
ATOM     23  C   UNL     1       1.145   9.514  19.992  0.00  0.00    +0.000 C 
ATOM     24  C   UNL     1       0.031   9.182  20.986  0.00  0.00    +0.000 C 
ATOM     25  C   UNL     1       0.425   7.832  21.608  0.00  0.00    +0.000 C 
BRANCH  24  26
ATOM     26  C   UNL     1      -0.135  10.236  21.996  0.00  0.00    +0.000 C 
ATOM     27  N   UNL     1      -0.274  11.081  22.776  0.00  0.00    +0.000 NA
ENDBRANCH  24  26
ENDBRANCH  18  21
ENDBRANCH  17  18
ENDBRANCH   3  17
TORSDOF 6
ENDMDL
MODEL 9
REMARK VINA RESULT:      -6.8      3.201      7.717
REMARK  Name = 
REMARK  7 active torsions:
REMARK  status: ('A' for Active; 'I' for Inactive)
REMARK    1  A    between atoms: C_1  and  N_2
REMARK    2  A    between atoms: N_2  and  C_3
REMARK    3  A    between atoms: N_2  and  C_12
REMARK    4  A    between atoms: C_14  and  C_15
REMARK    5  A    between atoms: C_15  and  S_16
REMARK    6  A    between atoms: S_16  and  C_19
REMARK    7  A    between atoms: C_22  and  C_23
REMARK                            x       y       z     vdW  Elec       q    Type
REMARK                         _______ _______ _______ _____ _____    ______ ____
ROOT
ATOM      1  C   UNL     1       5.678   6.436  18.685  0.00  0.00    +0.000 C 
ATOM      2  C   UNL     1       6.619   5.227  18.949  0.00  0.00    +0.000 C 
ATOM      3  C   UNL     1       7.061   5.277  17.460  0.00  0.00    +0.000 C 
ATOM      4  C   UNL     1       6.621   6.770  17.492  0.00  0.00    +0.000 C 
ENDROOT
BRANCH   1   6
ATOM      5  C   UNL     1       3.507   7.031  17.589  0.00  0.00    +0.000 C 
ATOM      6  N   UNL     1       4.322   6.052  18.324  0.00  0.00    +0.000 N 
BRANCH   6   7
ATOM      7  C   UNL     1       3.516   5.130  19.056  0.00  0.00    +0.000 A 
ATOM      8  N   UNL     1       2.910   5.581  20.200  0.00  0.00    +0.000 NA
ATOM      9  C   UNL     1       2.117   4.770  20.924  0.00  0.00    +0.000 A 
ATOM     10  N   UNL     1       1.785   3.505  20.660  0.00  0.00    +0.000 NA
ATOM     11  C   UNL     1       2.376   3.077  19.537  0.00  0.00    +0.000 A 
ATOM     12  N   UNL     1       2.186   1.823  19.026  0.00  0.00    +0.000 N 
ATOM     13  C   UNL     1       2.946   1.665  17.901  0.00  0.00    +0.000 A 
ATOM     14  C   UNL     1       3.625   2.848  17.690  0.00  0.00    +0.000 A 
ATOM     15  C   UNL     1       3.242   3.781  18.705  0.00  0.00    +0.000 A 
ATOM     16  H   UNL     1       1.568   1.139  19.439  0.00  0.00    +0.000 HD
ENDBRANCH   6   7
ENDBRANCH   1   6
BRANCH   3  17
ATOM     17  C   UNL     1       6.356   4.370  16.454  0.00  0.00    +0.000 C 
BRANCH  17  18
ATOM     18  S   UNL     1       6.354   5.074  14.811  0.00  0.00    +0.000 S 
ATOM     19  O   UNL     1       5.397   6.159  14.794  0.00  0.00    +0.000 OA
ATOM     20  O   UNL     1       7.722   5.286  14.375  0.00  0.00    +0.000 OA
BRANCH  18  21
ATOM     21  C   UNL     1       5.686   3.764  13.795  0.00  0.00    +0.000 C 
ATOM     22  C   UNL     1       4.676   4.299  12.786  0.00  0.00    +0.000 C 
ATOM     23  C   UNL     1       4.621   3.206  11.734  0.00  0.00    +0.000 C 
ATOM     24  C   UNL     1       6.077   2.764  11.581  0.00  0.00    +0.000 C 
ATOM     25  C   UNL     1       6.732   3.028  12.947  0.00  0.00    +0.000 C 
BRANCH  24  26
ATOM     26  C   UNL     1       6.183   1.357  11.172  0.00  0.00    +0.000 C 
ATOM     27  N   UNL     1       6.287   0.246  10.859  0.00  0.00    +0.000 NA
ENDBRANCH  24  26
ENDBRANCH  18  21
ENDBRANCH  17  18
ENDBRANCH   3  17
TORSDOF 6
ENDMDL
