MODEL 1
REMARK VINA RESULT:      -4.9      0.000      0.000
REMARK  Name = 
REMARK  5 active torsions:
REMARK  status: ('A' for Active; 'I' for Inactive)
REMARK    1  A    between atoms: C_1  and  N_2
REMARK    2  A    between atoms: N_2  and  C_3
REMARK    3  A    between atoms: C_3  and  C_4
REMARK    4  A    between atoms: C_3  and  C_5
REMARK    5  A    between atoms: C_5  and  C_6
REMARK                            x       y       z     vdW  Elec       q    Type
REMARK                         _______ _______ _______ _____ _____    ______ ____
ROOT
ATOM      1  C   UNL     1       3.916   3.860  17.337  0.00  0.00    +0.000 C 
ENDROOT
BRANCH   1   2
ATOM      2  C   UNL     1       2.506   3.783  17.964  0.00  0.00    +0.000 C 
ATOM      3  C   UNL     1       1.994   2.358  18.176  0.00  0.00    +0.000 C 
ATOM      4  C   UNL     1       0.749   2.589  19.019  0.00  0.00    +0.000 C 
ATOM      5  C   UNL     1       1.065   3.831  19.873  0.00  0.00    +0.000 C 
ATOM      6  C   UNL     1       2.442   4.303  19.396  0.00  0.00    +0.000 C 
ENDBRANCH   1   2
BRANCH   1   7
ATOM      7  C   UNL     1       4.919   4.733  18.141  0.00  0.00    +0.000 C 
ATOM      8  C   UNL     1       5.120   6.068  17.401  0.00  0.00    +0.000 C 
BRANCH   7  10
ATOM      9  C   UNL     1       7.344   4.739  17.747  0.00  0.00    +0.000 C 
ATOM     10  N   UNL     1       6.205   4.021  18.325  0.00  0.00    +0.000 NA
ATOM     11  H   UNL     1       6.414   3.960  19.345  0.00  0.00    +0.000 HD
ENDBRANCH   7  10
ENDBRANCH   1   7
TORSDOF 3
ENDMDL
MODEL 2
REMARK VINA RESULT:      -4.8      1.280      1.695
REMARK  Name = 
REMARK  5 active torsions:
REMARK  status: ('A' for Active; 'I' for Inactive)
REMARK    1  A    between atoms: C_1  and  N_2
REMARK    2  A    between atoms: N_2  and  C_3
REMARK    3  A    between atoms: C_3  and  C_4
REMARK    4  A    between atoms: C_3  and  C_5
REMARK    5  A    between atoms: C_5  and  C_6
REMARK                            x       y       z     vdW  Elec       q    Type
REMARK                         _______ _______ _______ _____ _____    ______ ____
ROOT
ATOM      1  C   UNL     1       3.766   2.447  18.353  0.00  0.00    +0.000 C 
ENDROOT
BRANCH   1   2
ATOM      2  C   UNL     1       2.540   2.590  19.283  0.00  0.00    +0.000 C 
ATOM      3  C   UNL     1       2.891   2.675  20.769  0.00  0.00    +0.000 C 
ATOM      4  C   UNL     1       1.557   3.066  21.388  0.00  0.00    +0.000 C 
ATOM      5  C   UNL     1       0.857   3.932  20.325  0.00  0.00    +0.000 C 
ATOM      6  C   UNL     1       1.791   3.907  19.111  0.00  0.00    +0.000 C 
ENDBRANCH   1   2
BRANCH   1   7
ATOM      7  C   UNL     1       4.499   3.786  18.061  0.00  0.00    +0.000 C 
ATOM      8  C   UNL     1       4.616   3.965  16.536  0.00  0.00    +0.000 C 
BRANCH   7  10
ATOM      9  C   UNL     1       6.704   4.862  18.185  0.00  0.00    +0.000 C 
ATOM     10  N   UNL     1       5.830   3.808  18.709  0.00  0.00    +0.000 NA
ATOM     11  H   UNL     1       5.709   4.037  19.720  0.00  0.00    +0.000 HD
ENDBRANCH   7  10
ENDBRANCH   1   7
TORSDOF 3
ENDMDL
MODEL 3
REMARK VINA RESULT:      -4.8      1.165      1.765
REMARK  Name = 
REMARK  5 active torsions:
REMARK  status: ('A' for Active; 'I' for Inactive)
REMARK    1  A    between atoms: C_1  and  N_2
REMARK    2  A    between atoms: N_2  and  C_3
REMARK    3  A    between atoms: C_3  and  C_4
REMARK    4  A    between atoms: C_3  and  C_5
REMARK    5  A    between atoms: C_5  and  C_6
REMARK                            x       y       z     vdW  Elec       q    Type
REMARK                         _______ _______ _______ _____ _____    ______ ____
ROOT
ATOM      1  C   UNL     1       4.351   3.864  16.651  0.00  0.00    +0.000 C 
ENDROOT
BRANCH   1   2
ATOM      2  C   UNL     1       3.397   3.568  17.831  0.00  0.00    +0.000 C 
ATOM      3  C   UNL     1       2.081   4.345  17.779  0.00  0.00    +0.000 C 
ATOM      4  C   UNL     1       1.271   3.672  18.878  0.00  0.00    +0.000 C 
ATOM      5  C   UNL     1       1.735   2.203  18.878  0.00  0.00    +0.000 C 
ATOM      6  C   UNL     1       2.862   2.140  17.843  0.00  0.00    +0.000 C 
ENDBRANCH   1   2
BRANCH   1   7
ATOM      7  C   UNL     1       5.650   4.612  17.061  0.00  0.00    +0.000 C 
ATOM      8  C   UNL     1       6.722   4.370  15.983  0.00  0.00    +0.000 C 
BRANCH   7  10
ATOM      9  C   UNL     1       6.443   5.277  19.289  0.00  0.00    +0.000 C 
ATOM     10  N   UNL     1       6.115   4.164  18.393  0.00  0.00    +0.000 NA
ATOM     11  H   UNL     1       5.338   3.655  18.868  0.00  0.00    +0.000 HD
ENDBRANCH   7  10
ENDBRANCH   1   7
TORSDOF 3
ENDMDL
MODEL 4
REMARK VINA RESULT:      -4.8      1.080      1.080
REMARK  Name = 
REMARK  5 active torsions:
REMARK  status: ('A' for Active; 'I' for Inactive)
REMARK    1  A    between atoms: C_1  and  N_2
REMARK    2  A    between atoms: N_2  and  C_3
REMARK    3  A    between atoms: C_3  and  C_4
REMARK    4  A    between atoms: C_3  and  C_5
REMARK    5  A    between atoms: C_5  and  C_6
REMARK                            x       y       z     vdW  Elec       q    Type
REMARK                         _______ _______ _______ _____ _____    ______ ____
ROOT
ATOM      1  C   UNL     1       3.557   4.846  17.540  0.00  0.00    +0.000 C 
ENDROOT
BRANCH   1   2
ATOM      2  C   UNL     1       2.234   4.268  18.089  0.00  0.00    +0.000 C 
ATOM      3  C   UNL     1       2.129   2.746  17.988  0.00  0.00    +0.000 C 
ATOM      4  C   UNL     1       0.886   2.457  18.818  0.00  0.00    +0.000 C 
ATOM      5  C   UNL     1       0.876   3.536  19.917  0.00  0.00    +0.000 C 
ATOM      6  C   UNL     1       2.064   4.446  19.594  0.00  0.00    +0.000 C 
ENDBRANCH   1   2
BRANCH   1   7
ATOM      7  C   UNL     1       4.818   4.029  17.937  0.00  0.00    +0.000 C 
ATOM      8  C   UNL     1       5.680   4.879  18.890  0.00  0.00    +0.000 C 
BRANCH   7  10
ATOM      9  C   UNL     1       6.744   4.484  16.482  0.00  0.00    +0.000 C 
ATOM     10  N   UNL     1       5.583   3.627  16.734  0.00  0.00    +0.000 NA
ATOM     11  H   UNL     1       5.979   2.675  16.891  0.00  0.00    +0.000 HD
ENDBRANCH   7  10
ENDBRANCH   1   7
TORSDOF 3
ENDMDL
MODEL 5
REMARK VINA RESULT:      -4.8      1.234      1.676
REMARK  Name = 
REMARK  5 active torsions:
REMARK  status: ('A' for Active; 'I' for Inactive)
REMARK    1  A    between atoms: C_1  and  N_2
REMARK    2  A    between atoms: N_2  and  C_3
REMARK    3  A    between atoms: C_3  and  C_4
REMARK    4  A    between atoms: C_3  and  C_5
REMARK    5  A    between atoms: C_5  and  C_6
REMARK                            x       y       z     vdW  Elec       q    Type
REMARK                         _______ _______ _______ _____ _____    ______ ____
ROOT
ATOM      1  C   UNL     1       4.075   3.138  18.387  0.00  0.00    +0.000 C 
ENDROOT
BRANCH   1   2
ATOM      2  C   UNL     1       3.164   3.488  19.585  0.00  0.00    +0.000 C 
ATOM      3  C   UNL     1       2.241   4.682  19.338  0.00  0.00    +0.000 C 
ATOM      4  C   UNL     1       1.314   4.622  20.544  0.00  0.00    +0.000 C 
ATOM      5  C   UNL     1       1.186   3.124  20.880  0.00  0.00    +0.000 C 
ATOM      6  C   UNL     1       2.130   2.414  19.904  0.00  0.00    +0.000 C 
ENDBRANCH   1   2
BRANCH   1   7
ATOM      7  C   UNL     1       4.983   4.309  17.919  0.00  0.00    +0.000 C 
ATOM      8  C   UNL     1       4.929   4.395  16.382  0.00  0.00    +0.000 C 
BRANCH   7  10
ATOM      9  C   UNL     1       7.376   4.611  17.449  0.00  0.00    +0.000 C 
ATOM     10  N   UNL     1       6.372   4.119  18.398  0.00  0.00    +0.000 NA
ATOM     11  H   UNL     1       6.512   4.691  19.259  0.00  0.00    +0.000 HD
ENDBRANCH   7  10
ENDBRANCH   1   7
TORSDOF 3
ENDMDL
MODEL 6
REMARK VINA RESULT:      -4.8      1.216      1.581
REMARK  Name = 
REMARK  5 active torsions:
REMARK  status: ('A' for Active; 'I' for Inactive)
REMARK    1  A    between atoms: C_1  and  N_2
REMARK    2  A    between atoms: N_2  and  C_3
REMARK    3  A    between atoms: C_3  and  C_4
REMARK    4  A    between atoms: C_3  and  C_5
REMARK    5  A    between atoms: C_5  and  C_6
REMARK                            x       y       z     vdW  Elec       q    Type
REMARK                         _______ _______ _______ _____ _____    ______ ____
ROOT
ATOM      1  C   UNL     1       4.423   4.991  19.424  0.00  0.00    +0.000 C 
ENDROOT
BRANCH   1   2
ATOM      2  C   UNL     1       3.067   4.254  19.502  0.00  0.00    +0.000 C 
ATOM      3  C   UNL     1       3.065   3.051  20.446  0.00  0.00    +0.000 C 
ATOM      4  C   UNL     1       1.585   2.705  20.516  0.00  0.00    +0.000 C 
ATOM      5  C   UNL     1       0.849   4.050  20.373  0.00  0.00    +0.000 C 
ATOM      6  C   UNL     1       1.952   5.084  20.127  0.00  0.00    +0.000 C 
ENDBRANCH   1   2
BRANCH   1   7
ATOM      7  C   UNL     1       5.154   4.829  18.062  0.00  0.00    +0.000 C 
ATOM      8  C   UNL     1       4.186   4.184  17.053  0.00  0.00    +0.000 C 
BRANCH   7  10
ATOM      9  C   UNL     1       7.563   4.648  17.616  0.00  0.00    +0.000 C 
ATOM     10  N   UNL     1       6.384   4.020  18.220  0.00  0.00    +0.000 NA
ATOM     11  H   UNL     1       6.610   3.944  19.236  0.00  0.00    +0.000 HD
ENDBRANCH   7  10
ENDBRANCH   1   7
TORSDOF 3
ENDMDL
MODEL 7
REMARK VINA RESULT:      -4.8      1.268      1.712
REMARK  Name = 
REMARK  5 active torsions:
REMARK  status: ('A' for Active; 'I' for Inactive)
REMARK    1  A    between atoms: C_1  and  N_2
REMARK    2  A    between atoms: N_2  and  C_3
REMARK    3  A    between atoms: C_3  and  C_4
REMARK    4  A    between atoms: C_3  and  C_5
REMARK    5  A    between atoms: C_5  and  C_6
REMARK                            x       y       z     vdW  Elec       q    Type
REMARK                         _______ _______ _______ _____ _____    ______ ____
ROOT
ATOM      1  C   UNL     1       4.836   5.058  17.183  0.00  0.00    +0.000 C 
ENDROOT
BRANCH   1   2
ATOM      2  C   UNL     1       3.560   4.186  17.181  0.00  0.00    +0.000 C 
ATOM      3  C   UNL     1       3.738   2.818  17.842  0.00  0.00    +0.000 C 
ATOM      4  C   UNL     1       2.304   2.317  17.926  0.00  0.00    +0.000 C 
ATOM      5  C   UNL     1       1.446   3.581  18.121  0.00  0.00    +0.000 C 
ATOM      6  C   UNL     1       2.432   4.750  18.038  0.00  0.00    +0.000 C 
ENDBRANCH   1   2
BRANCH   1   7
ATOM      7  C   UNL     1       6.004   4.469  18.023  0.00  0.00    +0.000 C 
ATOM      8  C   UNL     1       6.281   5.407  19.212  0.00  0.00    +0.000 C 
BRANCH   7  10
ATOM      9  C   UNL     1       6.988   4.621  15.777  0.00  0.00    +0.000 C 
ATOM     10  N   UNL     1       7.213   4.288  17.187  0.00  0.00    +0.000 NA
ATOM     11  H   UNL     1       7.947   4.955  17.508  0.00  0.00    +0.000 HD
ENDBRANCH   7  10
ENDBRANCH   1   7
TORSDOF 3
ENDMDL
MODEL 8
REMARK VINA RESULT:      -4.7      1.784      2.685
REMARK  Name = 
REMARK  5 active torsions:
REMARK  status: ('A' for Active; 'I' for Inactive)
REMARK    1  A    between atoms: C_1  and  N_2
REMARK    2  A    between atoms: N_2  and  C_3
REMARK    3  A    between atoms: C_3  and  C_4
REMARK    4  A    between atoms: C_3  and  C_5
REMARK    5  A    between atoms: C_5  and  C_6
REMARK                            x       y       z     vdW  Elec       q    Type
REMARK                         _______ _______ _______ _____ _____    ______ ____
ROOT
ATOM      1  C   UNL     1       5.418   6.322  17.273  0.00  0.00    +0.000 C 
ENDROOT
BRANCH   1   2
ATOM      2  C   UNL     1       4.122   5.500  17.092  0.00  0.00    +0.000 C 
ATOM      3  C   UNL     1       4.310   3.992  17.270  0.00  0.00    +0.000 C 
ATOM      4  C   UNL     1       2.872   3.494  17.299  0.00  0.00    +0.000 C 
ATOM      5  C   UNL     1       2.064   4.633  17.949  0.00  0.00    +0.000 C 
ATOM      6  C   UNL     1       3.073   5.765  18.166  0.00  0.00    +0.000 C 
ENDBRANCH   1   2
BRANCH   1   7
ATOM      7  C   UNL     1       6.720   5.479  17.180  0.00  0.00    +0.000 C 
ATOM      8  C   UNL     1       7.610   5.805  18.394  0.00  0.00    +0.000 C 
BRANCH   7  10
ATOM      9  C   UNL     1       7.025   4.840  14.828  0.00  0.00    +0.000 C 
ATOM     10  N   UNL     1       7.429   5.746  15.907  0.00  0.00    +0.000 NA
ATOM     11  H   UNL     1       7.169   6.698  15.570  0.00  0.00    +0.000 HD
ENDBRANCH   7  10
ENDBRANCH   1   7
TORSDOF 3
ENDMDL
MODEL 9
REMARK VINA RESULT:      -4.7      0.969      1.165
REMARK  Name = 
REMARK  5 active torsions:
REMARK  status: ('A' for Active; 'I' for Inactive)
REMARK    1  A    between atoms: C_1  and  N_2
REMARK    2  A    between atoms: N_2  and  C_3
REMARK    3  A    between atoms: C_3  and  C_4
REMARK    4  A    between atoms: C_3  and  C_5
REMARK    5  A    between atoms: C_5  and  C_6
REMARK                            x       y       z     vdW  Elec       q    Type
REMARK                         _______ _______ _______ _____ _____    ______ ____
ROOT
ATOM      1  C   UNL     1       4.551   3.427  19.127  0.00  0.00    +0.000 C 
ENDROOT
BRANCH   1   2
ATOM      2  C   UNL     1       3.012   3.566  19.118  0.00  0.00    +0.000 C 
ATOM      3  C   UNL     1       2.267   2.239  18.964  0.00  0.00    +0.000 C 
ATOM      4  C   UNL     1       0.828   2.648  19.247  0.00  0.00    +0.000 C 
ATOM      5  C   UNL     1       0.929   3.793  20.272  0.00  0.00    +0.000 C 
ATOM      6  C   UNL     1       2.431   4.044  20.443  0.00  0.00    +0.000 C 
ENDBRANCH   1   2
BRANCH   1   7
ATOM      7  C   UNL     1       5.275   4.341  18.101  0.00  0.00    +0.000 C 
ATOM      8  C   UNL     1       4.718   4.049  16.695  0.00  0.00    +0.000 C 
BRANCH   7  10
ATOM      9  C   UNL     1       7.496   5.386  18.222  0.00  0.00    +0.000 C 
ATOM     10  N   UNL     1       6.740   4.131  18.153  0.00  0.00    +0.000 NA
ATOM     11  H   UNL     1       6.977   3.626  19.034  0.00  0.00    +0.000 HD
ENDBRANCH   7  10
ENDBRANCH   1   7
TORSDOF 3
ENDMDL
