MODEL 1
REMARK VINA RESULT:      -7.9      0.000      0.000
REMARK  Name = 
REMARK  4 active torsions:
REMARK  status: ('A' for Active; 'I' for Inactive)
REMARK    1  A    between atoms: O_1  and  C_2
REMARK    2  A    between atoms: C_2  and  C_3
REMARK    3  A    between atoms: N_6  and  C_7
REMARK    4  A    between atoms: C_12  and  C_13
REMARK                            x       y       z     vdW  Elec       q    Type
REMARK                         _______ _______ _______ _____ _____    ______ ____
ROOT
ATOM      1  C   UNL     1       2.861   3.889  18.709  0.00  0.00    +0.000 A 
ATOM      2  N   UNL     1       2.483   2.605  18.494  0.00  0.00    +0.000 NA
ATOM      3  C   UNL     1       1.375   2.173  19.128  0.00  0.00    +0.000 A 
ATOM      4  C   UNL     1       0.634   2.984  19.959  0.00  0.00    +0.000 A 
ATOM      5  N   UNL     1       0.971   4.267  20.191  0.00  0.00    +0.000 NA
ATOM      6  C   UNL     1       2.101   4.726  19.577  0.00  0.00    +0.000 A 
ENDROOT
BRANCH   6   7
ATOM      7  C   UNL     1       2.489   6.198  20.006  0.00  0.00    +0.000 C 
ATOM      8  C   UNL     1       2.264   7.334  18.993  0.00  0.00    +0.000 C 
ATOM      9  N   UNL     1       1.795   8.144  20.069  0.00  0.00    +0.000 N 
ATOM     10  C   UNL     1       1.017   9.310  19.994  0.00  0.00    +0.000 A 
ATOM     11  C   UNL     1       1.055  10.100  18.841  0.00  0.00    +0.000 A 
ATOM     12  C   UNL     1       0.295  11.268  18.769  0.00  0.00    +0.000 A 
ATOM     13  C   UNL     1      -0.480  11.628  19.859  0.00  0.00    +0.000 A 
ATOM     14 BR   UNL     1      -1.519  13.200  19.822  0.00  0.00    +0.000 Br
ATOM     15  C   UNL     1      -0.464  10.806  20.971  0.00  0.00    +0.000 A 
ATOM     16  N   UNL     1       0.263   9.665  21.058  0.00  0.00    +0.000 NA
ATOM     17  C   UNL     1       1.566   7.023  20.934  0.00  0.00    +0.000 C 
ENDBRANCH   6   7
BRANCH   1  21
ATOM     18  C   UNL     1       6.403   5.558  17.109  0.00  0.00    +0.000 C 
ATOM     19  C   UNL     1       6.208   5.265  18.614  0.00  0.00    +0.000 C 
ATOM     20  C   UNL     1       5.289   4.069  18.891  0.00  0.00    +0.000 C 
ATOM     21  N   UNL     1       4.055   4.325  18.153  0.00  0.00    +0.000 N 
ATOM     22  C   UNL     1       4.244   4.227  16.711  0.00  0.00    +0.000 C 
ATOM     23  C   UNL     1       5.088   5.434  16.299  0.00  0.00    +0.000 C 
BRANCH  18  24
ATOM     24  C   UNL     1       7.534   4.702  16.533  0.00  0.00    +0.000 C 
BRANCH  24  25
ATOM     25  O   UNL     1       8.256   4.086  17.592  0.00  0.00    +0.000 OA
ATOM     26  H   UNL     1       8.627   4.799  18.139  0.00  0.00    +0.000 HD
ENDBRANCH  24  25
ENDBRANCH  18  24
ENDBRANCH   1  21
TORSDOF 4
ENDMDL
MODEL 2
REMARK VINA RESULT:      -7.4      0.983      1.467
REMARK  Name = 
REMARK  4 active torsions:
REMARK  status: ('A' for Active; 'I' for Inactive)
REMARK    1  A    between atoms: O_1  and  C_2
REMARK    2  A    between atoms: C_2  and  C_3
REMARK    3  A    between atoms: N_6  and  C_7
REMARK    4  A    between atoms: C_12  and  C_13
REMARK                            x       y       z     vdW  Elec       q    Type
REMARK                         _______ _______ _______ _____ _____    ______ ____
ROOT
ATOM      1  C   UNL     1       3.352   4.184  18.243  0.00  0.00    +0.000 A 
ATOM      2  N   UNL     1       3.113   2.919  17.817  0.00  0.00    +0.000 NA
ATOM      3  C   UNL     1       1.975   2.331  18.236  0.00  0.00    +0.000 A 
ATOM      4  C   UNL     1       1.072   2.968  19.057  0.00  0.00    +0.000 A 
ATOM      5  N   UNL     1       1.269   4.226  19.496  0.00  0.00    +0.000 NA
ATOM      6  C   UNL     1       2.423   4.840  19.102  0.00  0.00    +0.000 A 
ENDROOT
BRANCH   6   7
ATOM      7  C   UNL     1       2.630   6.261  19.765  0.00  0.00    +0.000 C 
ATOM      8  C   UNL     1       2.393   7.510  18.897  0.00  0.00    +0.000 C 
ATOM      9  N   UNL     1       1.754   8.115  20.018  0.00  0.00    +0.000 N 
ATOM     10  C   UNL     1       0.880   9.214  20.022  0.00  0.00    +0.000 A 
ATOM     11  C   UNL     1       0.949  10.163  18.997  0.00  0.00    +0.000 A 
ATOM     12  C   UNL     1       0.092  11.264  19.005  0.00  0.00    +0.000 A 
ATOM     13  C   UNL     1      -0.810  11.399  20.048  0.00  0.00    +0.000 A 
ATOM     14 BR   UNL     1      -1.984  12.872  20.116  0.00  0.00    +0.000 Br
ATOM     15  C   UNL     1      -0.818  10.430  21.034  0.00  0.00    +0.000 A 
ATOM     16  N   UNL     1       0.001   9.351  21.041  0.00  0.00    +0.000 NA
ATOM     17  C   UNL     1       1.553   6.867  20.695  0.00  0.00    +0.000 C 
ENDBRANCH   6   7
BRANCH   1  21
ATOM     18  C   UNL     1       7.142   5.657  17.077  0.00  0.00    +0.000 C 
ATOM     19  C   UNL     1       5.928   5.589  16.123  0.00  0.00    +0.000 C 
ATOM     20  C   UNL     1       4.579   5.755  16.834  0.00  0.00    +0.000 C 
ATOM     21  N   UNL     1       4.565   4.771  17.913  0.00  0.00    +0.000 N 
ATOM     22  C   UNL     1       5.505   5.105  18.976  0.00  0.00    +0.000 C 
ATOM     23  C   UNL     1       6.906   4.890  18.402  0.00  0.00    +0.000 C 
BRANCH  18  24
ATOM     24  C   UNL     1       7.571   7.109  17.304  0.00  0.00    +0.000 C 
BRANCH  24  25
ATOM     25  O   UNL     1       8.226   7.225  18.561  0.00  0.00    +0.000 OA
ATOM     26  H   UNL     1       9.123   6.866  18.451  0.00  0.00    +0.000 HD
ENDBRANCH  24  25
ENDBRANCH  18  24
ENDBRANCH   1  21
TORSDOF 4
ENDMDL
MODEL 3
REMARK VINA RESULT:      -7.2      2.308      4.238
REMARK  Name = 
REMARK  4 active torsions:
REMARK  status: ('A' for Active; 'I' for Inactive)
REMARK    1  A    between atoms: O_1  and  C_2
REMARK    2  A    between atoms: C_2  and  C_3
REMARK    3  A    between atoms: N_6  and  C_7
REMARK    4  A    between atoms: C_12  and  C_13
REMARK                            x       y       z     vdW  Elec       q    Type
REMARK                         _______ _______ _______ _____ _____    ______ ____
ROOT
ATOM      1  C   UNL     1       5.072   4.878  18.283  0.00  0.00    +0.000 A 
ATOM      2  N   UNL     1       6.344   4.408  18.324  0.00  0.00    +0.000 NA
ATOM      3  C   UNL     1       7.327   5.259  17.970  0.00  0.00    +0.000 A 
ATOM      4  C   UNL     1       7.080   6.558  17.586  0.00  0.00    +0.000 A 
ATOM      5  N   UNL     1       5.832   7.064  17.540  0.00  0.00    +0.000 NA
ATOM      6  C   UNL     1       4.814   6.218  17.876  0.00  0.00    +0.000 A 
ENDROOT
BRANCH   6   7
ATOM      7  C   UNL     1       3.382   6.856  17.671  0.00  0.00    +0.000 C 
ATOM      8  C   UNL     1       2.510   7.102  18.917  0.00  0.00    +0.000 C 
ATOM      9  N   UNL     1       2.120   8.348  18.346  0.00  0.00    +0.000 N 
ATOM     10  C   UNL     1       1.555   9.456  18.998  0.00  0.00    +0.000 A 
ATOM     11  C   UNL     1       0.829   9.273  20.179  0.00  0.00    +0.000 A 
ATOM     12  C   UNL     1       0.253  10.369  20.823  0.00  0.00    +0.000 A 
ATOM     13  C   UNL     1       0.407  11.627  20.263  0.00  0.00    +0.000 A 
ATOM     14 BR   UNL     1      -0.357  13.142  21.083  0.00  0.00    +0.000 Br
ATOM     15  C   UNL     1       1.129  11.736  19.089  0.00  0.00    +0.000 A 
ATOM     16  N   UNL     1       1.701  10.684  18.453  0.00  0.00    +0.000 NA
ATOM     17  C   UNL     1       3.217   8.374  17.422  0.00  0.00    +0.000 C 
ENDBRANCH   6   7
BRANCH   1  21
ATOM     18  C   UNL     1       2.167   1.916  19.110  0.00  0.00    +0.000 C 
ATOM     19  C   UNL     1       2.970   2.647  20.209  0.00  0.00    +0.000 C 
ATOM     20  C   UNL     1       3.361   4.081  19.832  0.00  0.00    +0.000 C 
ATOM     21  N   UNL     1       4.036   3.991  18.540  0.00  0.00    +0.000 N 
ATOM     22  C   UNL     1       3.119   3.640  17.463  0.00  0.00    +0.000 C 
ATOM     23  C   UNL     1       2.721   2.180  17.688  0.00  0.00    +0.000 C 
BRANCH  18  24
ATOM     24  C   UNL     1       0.674   2.232  19.229  0.00  0.00    +0.000 C 
BRANCH  24  25
ATOM     25  O   UNL     1       0.433   2.967  20.422  0.00  0.00    +0.000 OA
ATOM     26  H   UNL     1       0.547   2.352  21.167  0.00  0.00    +0.000 HD
ENDBRANCH  24  25
ENDBRANCH  18  24
ENDBRANCH   1  21
TORSDOF 4
ENDMDL
MODEL 4
REMARK VINA RESULT:      -7.2      0.847      1.311
REMARK  Name = 
REMARK  4 active torsions:
REMARK  status: ('A' for Active; 'I' for Inactive)
REMARK    1  A    between atoms: O_1  and  C_2
REMARK    2  A    between atoms: C_2  and  C_3
REMARK    3  A    between atoms: N_6  and  C_7
REMARK    4  A    between atoms: C_12  and  C_13
REMARK                            x       y       z     vdW  Elec       q    Type
REMARK                         _______ _______ _______ _____ _____    ______ ____
ROOT
ATOM      1  C   UNL     1       3.102   3.806  18.892  0.00  0.00    +0.000 A 
ATOM      2  N   UNL     1       2.763   2.493  18.927  0.00  0.00    +0.000 NA
ATOM      3  C   UNL     1       1.663   2.159  19.631  0.00  0.00    +0.000 A 
ATOM      4  C   UNL     1       0.894   3.092  20.290  0.00  0.00    +0.000 A 
ATOM      5  N   UNL     1       1.193   4.405  20.272  0.00  0.00    +0.000 NA
ATOM      6  C   UNL     1       2.313   4.771  19.581  0.00  0.00    +0.000 A 
ENDROOT
BRANCH   6   7
ATOM      7  C   UNL     1       2.656   6.308  19.721  0.00  0.00    +0.000 C 
ATOM      8  C   UNL     1       2.052   7.284  18.694  0.00  0.00    +0.000 C 
ATOM      9  N   UNL     1       1.817   8.196  19.764  0.00  0.00    +0.000 N 
ATOM     10  C   UNL     1       0.936   9.290  19.786  0.00  0.00    +0.000 A 
ATOM     11  C   UNL     1       0.580   9.921  18.590  0.00  0.00    +0.000 A 
ATOM     12  C   UNL     1      -0.283  11.017  18.608  0.00  0.00    +0.000 A 
ATOM     13  C   UNL     1      -0.763  11.468  19.827  0.00  0.00    +0.000 A 
ATOM     14 BR   UNL     1      -1.923  12.950  19.914  0.00  0.00    +0.000 Br
ATOM     15  C   UNL     1      -0.363  10.804  20.972  0.00  0.00    +0.000 A 
ATOM     16  N   UNL     1       0.469   9.733  20.974  0.00  0.00    +0.000 NA
ATOM     17  C   UNL     1       1.944   7.188  20.776  0.00  0.00    +0.000 C 
ENDBRANCH   6   7
BRANCH   1  21
ATOM     18  C   UNL     1       6.814   4.539  17.001  0.00  0.00    +0.000 C 
ATOM     19  C   UNL     1       5.585   3.962  16.262  0.00  0.00    +0.000 C 
ATOM     20  C   UNL     1       4.246   4.445  16.831  0.00  0.00    +0.000 C 
ATOM     21  N   UNL     1       4.287   4.162  18.263  0.00  0.00    +0.000 N 
ATOM     22  C   UNL     1       5.235   5.017  18.967  0.00  0.00    +0.000 C 
ATOM     23  C   UNL     1       6.631   4.564  18.539  0.00  0.00    +0.000 C 
BRANCH  18  24
ATOM     24  C   UNL     1       7.196   5.908  16.430  0.00  0.00    +0.000 C 
BRANCH  24  25
ATOM     25  O   UNL     1       7.656   5.757  15.093  0.00  0.00    +0.000 OA
ATOM     26  H   UNL     1       8.017   6.616  14.814  0.00  0.00    +0.000 HD
ENDBRANCH  24  25
ENDBRANCH  18  24
ENDBRANCH   1  21
TORSDOF 4
ENDMDL
MODEL 5
REMARK VINA RESULT:      -7.1      0.984      1.062
REMARK  Name = 
REMARK  4 active torsions:
REMARK  status: ('A' for Active; 'I' for Inactive)
REMARK    1  A    between atoms: O_1  and  C_2
REMARK    2  A    between atoms: C_2  and  C_3
REMARK    3  A    between atoms: N_6  and  C_7
REMARK    4  A    between atoms: C_12  and  C_13
REMARK                            x       y       z     vdW  Elec       q    Type
REMARK                         _______ _______ _______ _____ _____    ______ ____
ROOT
ATOM      1  C   UNL     1       2.828   4.207  18.781  0.00  0.00    +0.000 A 
ATOM      2  N   UNL     1       2.577   2.876  18.855  0.00  0.00    +0.000 NA
ATOM      3  C   UNL     1       1.690   2.467  19.783  0.00  0.00    +0.000 A 
ATOM      4  C   UNL     1       1.045   3.342  20.629  0.00  0.00    +0.000 A 
ATOM      5  N   UNL     1       1.262   4.671  20.581  0.00  0.00    +0.000 NA
ATOM      6  C   UNL     1       2.170   5.113  19.662  0.00  0.00    +0.000 A 
ENDROOT
BRANCH   6   7
ATOM      7  C   UNL     1       2.454   6.665  19.763  0.00  0.00    +0.000 C 
ATOM      8  C   UNL     1       1.733   7.602  18.777  0.00  0.00    +0.000 C 
ATOM      9  N   UNL     1       1.537   8.515  19.854  0.00  0.00    +0.000 N 
ATOM     10  C   UNL     1       0.613   9.569  19.933  0.00  0.00    +0.000 A 
ATOM     11  C   UNL     1       0.142  10.171  18.762  0.00  0.00    +0.000 A 
ATOM     12  C   UNL     1      -0.765  11.229  18.836  0.00  0.00    +0.000 A 
ATOM     13  C   UNL     1      -1.174  11.671  20.083  0.00  0.00    +0.000 A 
ATOM     14 BR   UNL     1      -2.389  13.103  20.244  0.00  0.00    +0.000 Br
ATOM     15  C   UNL     1      -0.661  11.038  21.201  0.00  0.00    +0.000 A 
ATOM     16  N   UNL     1       0.215  10.005  21.149  0.00  0.00    +0.000 NA
ATOM     17  C   UNL     1       1.783   7.524  20.862  0.00  0.00    +0.000 C 
ENDBRANCH   6   7
BRANCH   1  21
ATOM     18  C   UNL     1       5.575   5.724  15.945  0.00  0.00    +0.000 C 
ATOM     19  C   UNL     1       5.106   6.522  17.182  0.00  0.00    +0.000 C 
ATOM     20  C   UNL     1       4.767   5.638  18.389  0.00  0.00    +0.000 C 
ATOM     21  N   UNL     1       3.814   4.642  17.907  0.00  0.00    +0.000 N 
ATOM     22  C   UNL     1       4.432   3.682  16.999  0.00  0.00    +0.000 C 
ATOM     23  C   UNL     1       4.741   4.441  15.708  0.00  0.00    +0.000 C 
BRANCH  18  24
ATOM     24  C   UNL     1       7.079   5.446  16.017  0.00  0.00    +0.000 C 
BRANCH  24  25
ATOM     25  O   UNL     1       7.757   6.600  16.496  0.00  0.00    +0.000 OA
ATOM     26  H   UNL     1       7.652   7.295  15.824  0.00  0.00    +0.000 HD
ENDBRANCH  24  25
ENDBRANCH  18  24
ENDBRANCH   1  21
TORSDOF 4
ENDMDL
MODEL 6
REMARK VINA RESULT:      -6.9      2.336      4.390
REMARK  Name = 
REMARK  4 active torsions:
REMARK  status: ('A' for Active; 'I' for Inactive)
REMARK    1  A    between atoms: O_1  and  C_2
REMARK    2  A    between atoms: C_2  and  C_3
REMARK    3  A    between atoms: N_6  and  C_7
REMARK    4  A    between atoms: C_12  and  C_13
REMARK                            x       y       z     vdW  Elec       q    Type
REMARK                         _______ _______ _______ _____ _____    ______ ____
ROOT
ATOM      1  C   UNL     1       4.210   5.539  18.311  0.00  0.00    +0.000 A 
ATOM      2  N   UNL     1       5.430   4.992  18.083  0.00  0.00    +0.000 NA
ATOM      3  C   UNL     1       6.305   5.717  17.358  0.00  0.00    +0.000 A 
ATOM      4  C   UNL     1       6.002   6.966  16.864  0.00  0.00    +0.000 A 
ATOM      5  N   UNL     1       4.805   7.546  17.075  0.00  0.00    +0.000 NA
ATOM      6  C   UNL     1       3.891   6.827  17.792  0.00  0.00    +0.000 A 
ENDROOT
BRANCH   6   7
ATOM      7  C   UNL     1       2.477   7.529  17.881  0.00  0.00    +0.000 C 
ATOM      8  C   UNL     1       1.895   7.816  19.277  0.00  0.00    +0.000 C 
ATOM      9  N   UNL     1       1.450   9.078  18.786  0.00  0.00    +0.000 N 
ATOM     10  C   UNL     1       1.083  10.211  19.529  0.00  0.00    +0.000 A 
ATOM     11  C   UNL     1       0.610  10.064  20.836  0.00  0.00    +0.000 A 
ATOM     12  C   UNL     1       0.229  11.186  21.573  0.00  0.00    +0.000 A 
ATOM     13  C   UNL     1       0.319  12.435  20.980  0.00  0.00    +0.000 A 
ATOM     14 BR   UNL     1      -0.191  13.984  21.924  0.00  0.00    +0.000 Br
ATOM     15  C   UNL     1       0.786  12.508  19.681  0.00  0.00    +0.000 A 
ATOM     16  N   UNL     1       1.166  11.431  18.951  0.00  0.00    +0.000 NA
ATOM     17  C   UNL     1       2.332   9.053  17.655  0.00  0.00    +0.000 C 
ENDBRANCH   6   7
BRANCH   1  21
ATOM     18  C   UNL     1       1.050   3.420  20.159  0.00  0.00    +0.000 C 
ATOM     19  C   UNL     1       1.452   3.224  18.680  0.00  0.00    +0.000 C 
ATOM     20  C   UNL     1       2.945   3.454  18.415  0.00  0.00    +0.000 C 
ATOM     21  N   UNL     1       3.257   4.770  18.964  0.00  0.00    +0.000 N 
ATOM     22  C   UNL     1       3.208   4.786  20.421  0.00  0.00    +0.000 C 
ATOM     23  C   UNL     1       1.735   4.648  20.808  0.00  0.00    +0.000 C 
BRANCH  18  24
ATOM     24  C   UNL     1       1.272   2.131  20.956  0.00  0.00    +0.000 C 
BRANCH  24  25
ATOM     25  O   UNL     1       1.492   2.445  22.325  0.00  0.00    +0.000 OA
ATOM     26  H   UNL     1       1.214   1.673  22.846  0.00  0.00    +0.000 HD
ENDBRANCH  24  25
ENDBRANCH  18  24
ENDBRANCH   1  21
TORSDOF 4
ENDMDL
MODEL 7
REMARK VINA RESULT:      -6.9      1.230      1.291
REMARK  Name = 
REMARK  4 active torsions:
REMARK  status: ('A' for Active; 'I' for Inactive)
REMARK    1  A    between atoms: O_1  and  C_2
REMARK    2  A    between atoms: C_2  and  C_3
REMARK    3  A    between atoms: N_6  and  C_7
REMARK    4  A    between atoms: C_12  and  C_13
REMARK                            x       y       z     vdW  Elec       q    Type
REMARK                         _______ _______ _______ _____ _____    ______ ____
ROOT
ATOM      1  C   UNL     1       3.483   3.616  18.018  0.00  0.00    +0.000 A 
ATOM      2  N   UNL     1       3.233   2.285  17.944  0.00  0.00    +0.000 NA
ATOM      3  C   UNL     1       2.331   1.777  18.806  0.00  0.00    +0.000 A 
ATOM      4  C   UNL     1       1.670   2.556  19.730  0.00  0.00    +0.000 A 
ATOM      5  N   UNL     1       1.884   3.882  19.829  0.00  0.00    +0.000 NA
ATOM      6  C   UNL     1       2.807   4.421  18.980  0.00  0.00    +0.000 A 
ENDROOT
BRANCH   6   7
ATOM      7  C   UNL     1       3.086   5.953  19.253  0.00  0.00    +0.000 C 
ATOM      8  C   UNL     1       2.519   6.984  18.259  0.00  0.00    +0.000 C 
ATOM      9  N   UNL     1       2.179   7.807  19.372  0.00  0.00    +0.000 N 
ATOM     10  C   UNL     1       1.262   8.869  19.410  0.00  0.00    +0.000 A 
ATOM     11  C   UNL     1       0.966   9.576  18.241  0.00  0.00    +0.000 A 
ATOM     12  C   UNL     1       0.066  10.642  18.276  0.00  0.00    +0.000 A 
ATOM     13  C   UNL     1      -0.512  10.986  19.488  0.00  0.00    +0.000 A 
ATOM     14 BR   UNL     1      -1.726  12.422  19.598  0.00  0.00    +0.000 Br
ATOM     15  C   UNL     1      -0.168  10.251  20.607  0.00  0.00    +0.000 A 
ATOM     16  N   UNL     1       0.699   9.209  20.591  0.00  0.00    +0.000 NA
ATOM     17  C   UNL     1       2.273   6.731  20.316  0.00  0.00    +0.000 C 
ENDBRANCH   6   7
BRANCH   1  21
ATOM     18  C   UNL     1       6.461   5.548  15.718  0.00  0.00    +0.000 C 
ATOM     19  C   UNL     1       6.675   5.103  17.182  0.00  0.00    +0.000 C 
ATOM     20  C   UNL     1       5.870   3.856  17.568  0.00  0.00    +0.000 C 
ATOM     21  N   UNL     1       4.483   4.143  17.213  0.00  0.00    +0.000 N 
ATOM     22  C   UNL     1       4.282   4.192  15.770  0.00  0.00    +0.000 C 
ATOM     23  C   UNL     1       4.979   5.460  15.276  0.00  0.00    +0.000 C 
BRANCH  18  24
ATOM     24  C   UNL     1       7.403   4.790  14.778  0.00  0.00    +0.000 C 
BRANCH  24  25
ATOM     25  O   UNL     1       8.233   5.713  14.085  0.00  0.00    +0.000 OA
ATOM     26  H   UNL     1       7.647   6.349  13.641  0.00  0.00    +0.000 HD
ENDBRANCH  24  25
ENDBRANCH  18  24
ENDBRANCH   1  21
TORSDOF 4
ENDMDL
MODEL 8
REMARK VINA RESULT:      -6.6      2.303      4.356
REMARK  Name = 
REMARK  4 active torsions:
REMARK  status: ('A' for Active; 'I' for Inactive)
REMARK    1  A    between atoms: O_1  and  C_2
REMARK    2  A    between atoms: C_2  and  C_3
REMARK    3  A    between atoms: N_6  and  C_7
REMARK    4  A    between atoms: C_12  and  C_13
REMARK                            x       y       z     vdW  Elec       q    Type
REMARK                         _______ _______ _______ _____ _____    ______ ____
ROOT
ATOM      1  C   UNL     1       4.659   5.403  18.183  0.00  0.00    +0.000 A 
ATOM      2  N   UNL     1       5.894   4.844  18.141  0.00  0.00    +0.000 NA
ATOM      3  C   UNL     1       6.893   5.594  17.634  0.00  0.00    +0.000 A 
ATOM      4  C   UNL     1       6.698   6.878  17.177  0.00  0.00    +0.000 A 
ATOM      5  N   UNL     1       5.488   7.470  17.210  0.00  0.00    +0.000 NA
ATOM      6  C   UNL     1       4.453   6.728  17.702  0.00  0.00    +0.000 A 
ENDROOT
BRANCH   6   7
ATOM      7  C   UNL     1       3.054   7.455  17.583  0.00  0.00    +0.000 C 
ATOM      8  C   UNL     1       2.136   7.470  18.819  0.00  0.00    +0.000 C 
ATOM      9  N   UNL     1       1.814   8.824  18.510  0.00  0.00    +0.000 N 
ATOM     10  C   UNL     1       1.258   9.793  19.361  0.00  0.00    +0.000 A 
ATOM     11  C   UNL     1       0.472   9.397  20.448  0.00  0.00    +0.000 A 
ATOM     12  C   UNL     1      -0.095  10.357  21.287  0.00  0.00    +0.000 A 
ATOM     13  C   UNL     1       0.126  11.697  21.013  0.00  0.00    +0.000 A 
ATOM     14 BR   UNL     1      -0.623  13.037  22.105  0.00  0.00    +0.000 Br
ATOM     15  C   UNL     1       0.904  12.019  19.916  0.00  0.00    +0.000 A 
ATOM     16  N   UNL     1       1.469  11.101  19.093  0.00  0.00    +0.000 NA
ATOM     17  C   UNL     1       2.952   8.997  17.655  0.00  0.00    +0.000 C 
ENDBRANCH   6   7
BRANCH   1  21
ATOM     18  C   UNL     1       1.239   3.315  19.535  0.00  0.00    +0.000 C 
ATOM     19  C   UNL     1       1.354   3.928  18.122  0.00  0.00    +0.000 C 
ATOM     20  C   UNL     1       2.789   3.954  17.580  0.00  0.00    +0.000 C 
ATOM     21  N   UNL     1       3.596   4.616  18.602  0.00  0.00    +0.000 N 
ATOM     22  C   UNL     1       3.745   3.800  19.801  0.00  0.00    +0.000 C 
ATOM     23  C   UNL     1       2.376   3.772  20.482  0.00  0.00    +0.000 C 
BRANCH  18  24
ATOM     24  C   UNL     1       1.114   1.790  19.456  0.00  0.00    +0.000 C 
BRANCH  24  25
ATOM     25  O   UNL     1       0.397   1.429  18.283  0.00  0.00    +0.000 OA
ATOM     26  H   UNL     1       1.038   1.401  17.551  0.00  0.00    +0.000 HD
ENDBRANCH  24  25
ENDBRANCH  18  24
ENDBRANCH   1  21
TORSDOF 4
ENDMDL
MODEL 9
REMARK VINA RESULT:      -6.6      4.276      8.318
REMARK  Name = 
REMARK  4 active torsions:
REMARK  status: ('A' for Active; 'I' for Inactive)
REMARK    1  A    between atoms: O_1  and  C_2
REMARK    2  A    between atoms: C_2  and  C_3
REMARK    3  A    between atoms: N_6  and  C_7
REMARK    4  A    between atoms: C_12  and  C_13
REMARK                            x       y       z     vdW  Elec       q    Type
REMARK                         _______ _______ _______ _____ _____    ______ ____
ROOT
ATOM      1  C   UNL     1      -0.165  11.861  18.725  0.00  0.00    +0.000 A 
ATOM      2  N   UNL     1      -1.312  12.433  18.281  0.00  0.00    +0.000 NA
ATOM      3  C   UNL     1      -2.164  11.651  17.588  0.00  0.00    +0.000 A 
ATOM      4  C   UNL     1      -1.909  10.322  17.334  0.00  0.00    +0.000 A 
ATOM      5  N   UNL     1      -0.786   9.716  17.765  0.00  0.00    +0.000 NA
ATOM      6  C   UNL     1       0.104  10.488  18.454  0.00  0.00    +0.000 A 
ENDROOT
BRANCH   6   7
ATOM      7  C   UNL     1       1.445   9.729  18.807  0.00  0.00    +0.000 C 
ATOM      8  C   UNL     1       1.374   8.548  19.793  0.00  0.00    +0.000 C 
ATOM      9  N   UNL     1       2.296   7.851  18.959  0.00  0.00    +0.000 N 
ATOM     10  C   UNL     1       2.553   6.471  18.924  0.00  0.00    +0.000 A 
ATOM     11  C   UNL     1       2.320   5.690  20.061  0.00  0.00    +0.000 A 
ATOM     12  C   UNL     1       2.589   4.321  20.036  0.00  0.00    +0.000 A 
ATOM     13  C   UNL     1       3.098   3.763  18.875  0.00  0.00    +0.000 A 
ATOM     14 BR   UNL     1       3.490   1.922  18.786  0.00  0.00    +0.000 Br
ATOM     15  C   UNL     1       3.315   4.594  17.791  0.00  0.00    +0.000 A 
ATOM     16  N   UNL     1       3.054   5.924  17.794  0.00  0.00    +0.000 NA
ATOM     17  C   UNL     1       2.056   8.699  17.827  0.00  0.00    +0.000 C 
ENDBRANCH   6   7
BRANCH   1  21
ATOM     18  C   UNL     1       2.475  14.608  20.562  0.00  0.00    +0.000 C 
ATOM     19  C   UNL     1       1.251  13.998  21.281  0.00  0.00    +0.000 C 
ATOM     20  C   UNL     1       0.899  12.585  20.800  0.00  0.00    +0.000 C 
ATOM     21  N   UNL     1       0.775  12.670  19.347  0.00  0.00    +0.000 N 
ATOM     22  C   UNL     1       2.060  12.894  18.696  0.00  0.00    +0.000 C 
ATOM     23  C   UNL     1       2.478  14.325  19.039  0.00  0.00    +0.000 C 
BRANCH  18  24
ATOM     24  C   UNL     1       3.775  14.176  21.245  0.00  0.00    +0.000 C 
BRANCH  24  25
ATOM     25  O   UNL     1       3.689  14.426  22.642  0.00  0.00    +0.000 OA
ATOM     26  H   UNL     1       3.445  15.361  22.752  0.00  0.00    +0.000 HD
ENDBRANCH  24  25
ENDBRANCH  18  24
ENDBRANCH   1  21
TORSDOF 4
ENDMDL
