MODEL 1
REMARK VINA RESULT:      -8.0      0.000      0.000
REMARK  Name = 
REMARK  9 active torsions:
REMARK  status: ('A' for Active; 'I' for Inactive)
REMARK    1  A    between atoms: C_1  and  C_2
REMARK    2  A    between atoms: C_2  and  O_3
REMARK    3  A    between atoms: O_3  and  C_4
REMARK    4  A    between atoms: C_7  and  N_8
REMARK    5  A    between atoms: C_9  and  C_11
REMARK    6  A    between atoms: C_15  and  S_16
REMARK    7  A    between atoms: S_16  and  N_19
REMARK    8  A    between atoms: N_19  and  C_20
REMARK    9  A    between atoms: C_20  and  C_21
REMARK                            x       y       z     vdW  Elec       q    Type
REMARK                         _______ _______ _______ _____ _____    ______ ____
ROOT
ATOM      1  C   UNL     1       7.942   7.706  18.168  0.00  0.00    +0.000 A 
ATOM      2  C   UNL     1       8.363   6.824  19.179  0.00  0.00    +0.000 A 
ATOM      3  C   UNL     1       8.007   5.478  19.150  0.00  0.00    +0.000 A 
ATOM      4  C   UNL     1       7.212   4.996  18.114  0.00  0.00    +0.000 A 
ATOM      5  C   UNL     1       6.775   5.868  17.112  0.00  0.00    +0.000 A 
ATOM      6  C   UNL     1       7.140   7.222  17.128  0.00  0.00    +0.000 A 
ENDROOT
BRANCH   1   8
ATOM      7  N   UNL     1       9.348   9.418  19.238  0.00  0.00    +0.000 N 
ATOM      8  C   UNL     1       8.392   9.124  18.280  0.00  0.00    +0.000 C 
ATOM      9  O   UNL     1       7.884   9.931  17.507  0.00  0.00    +0.000 OA
ATOM     10  H   UNL     1       9.793   8.667  19.743  0.00  0.00    +0.000 HD
BRANCH   7  14
ATOM     11  C   UNL     1      10.570  13.309  20.353  0.00  0.00    +0.000 A 
ATOM     12  C   UNL     1      11.015  12.762  19.154  0.00  0.00    +0.000 A 
ATOM     13  C   UNL     1      10.621  11.480  18.769  0.00  0.00    +0.000 A 
ATOM     14  C   UNL     1       9.782  10.720  19.584  0.00  0.00    +0.000 A 
ATOM     15  C   UNL     1       9.327  11.274  20.786  0.00  0.00    +0.000 A 
ATOM     16  C   UNL     1       9.737  12.557  21.181  0.00  0.00    +0.000 A 
BRANCH  11  17
ATOM     17  O   UNL     1      11.026  14.570  20.607  0.00  0.00    +0.000 OA
BRANCH  17  19
ATOM     18  C   UNL     1      10.236  16.398  19.317  0.00  0.00    +0.000 C 
ATOM     19  C   UNL     1      10.055  15.614  20.604  0.00  0.00    +0.000 C 
ENDBRANCH  17  19
ENDBRANCH  11  17
ENDBRANCH   7  14
ENDBRANCH   1   8
BRANCH   5  20
ATOM     20  S   UNL     1       5.845   5.213  15.739  0.00  0.00    +0.000 S 
ATOM     21  O   UNL     1       5.229   6.342  15.080  0.00  0.00    +0.000 OA
ATOM     22  O   UNL     1       6.708   4.286  15.043  0.00  0.00    +0.000 OA
BRANCH  20  23
ATOM     23  N   UNL     1       4.644   4.288  16.477  0.00  0.00    +0.000 NA
ATOM     24  H   UNL     1       5.001   3.436  16.908  0.00  0.00    +0.000 HD
BRANCH  23  25
ATOM     25  C   UNL     1       3.662   5.022  17.285  0.00  0.00    +0.000 C 
BRANCH  25  26
ATOM     26  C   UNL     1       2.992   4.146  18.301  0.00  0.00    +0.000 A 
ATOM     27  C   UNL     1       1.606   4.168  18.486  0.00  0.00    +0.000 A 
ATOM     28  C   UNL     1       1.031   3.368  19.469  0.00  0.00    +0.000 A 
ATOM     29  C   UNL     1       1.862   2.567  20.235  0.00  0.00    +0.000 A 
ATOM     30  N   UNL     1       3.203   2.517  20.084  0.00  0.00    +0.000 NA
ATOM     31  C   UNL     1       3.736   3.306  19.127  0.00  0.00    +0.000 A 
ENDBRANCH  25  26
ENDBRANCH  23  25
ENDBRANCH  20  23
ENDBRANCH   5  20
TORSDOF 8
ENDMDL
MODEL 2
REMARK VINA RESULT:      -7.9      0.953      1.333
REMARK  Name = 
REMARK  9 active torsions:
REMARK  status: ('A' for Active; 'I' for Inactive)
REMARK    1  A    between atoms: C_1  and  C_2
REMARK    2  A    between atoms: C_2  and  O_3
REMARK    3  A    between atoms: O_3  and  C_4
REMARK    4  A    between atoms: C_7  and  N_8
REMARK    5  A    between atoms: C_9  and  C_11
REMARK    6  A    between atoms: C_15  and  S_16
REMARK    7  A    between atoms: S_16  and  N_19
REMARK    8  A    between atoms: N_19  and  C_20
REMARK    9  A    between atoms: C_20  and  C_21
REMARK                            x       y       z     vdW  Elec       q    Type
REMARK                         _______ _______ _______ _____ _____    ______ ____
ROOT
ATOM      1  C   UNL     1       7.978   7.935  18.196  0.00  0.00    +0.000 A 
ATOM      2  C   UNL     1       8.455   7.011  19.141  0.00  0.00    +0.000 A 
ATOM      3  C   UNL     1       8.079   5.671  19.086  0.00  0.00    +0.000 A 
ATOM      4  C   UNL     1       7.209   5.238  18.090  0.00  0.00    +0.000 A 
ATOM      5  C   UNL     1       6.716   6.153  17.155  0.00  0.00    +0.000 A 
ATOM      6  C   UNL     1       7.100   7.501  17.196  0.00  0.00    +0.000 A 
ENDROOT
BRANCH   1   8
ATOM      7  N   UNL     1       9.308   9.632  19.381  0.00  0.00    +0.000 N 
ATOM      8  C   UNL     1       8.454   9.343  18.329  0.00  0.00    +0.000 C 
ATOM      9  O   UNL     1       8.058  10.146  17.490  0.00  0.00    +0.000 OA
ATOM     10  H   UNL     1       9.672   8.881  19.947  0.00  0.00    +0.000 HD
BRANCH   7  14
ATOM     11  C   UNL     1      10.691  13.487  20.429  0.00  0.00    +0.000 A 
ATOM     12  C   UNL     1       9.513  13.001  20.987  0.00  0.00    +0.000 A 
ATOM     13  C   UNL     1       9.043  11.730  20.653  0.00  0.00    +0.000 A 
ATOM     14  C   UNL     1       9.739  10.929  19.748  0.00  0.00    +0.000 A 
ATOM     15  C   UNL     1      10.929  11.416  19.195  0.00  0.00    +0.000 A 
ATOM     16  C   UNL     1      11.393  12.701  19.517  0.00  0.00    +0.000 A 
BRANCH  11  17
ATOM     17  O   UNL     1      11.040  14.741  20.842  0.00  0.00    +0.000 OA
BRANCH  17  19
ATOM     18  C   UNL     1       9.985  16.672  21.729  0.00  0.00    +0.000 C 
ATOM     19  C   UNL     1      10.385  15.235  22.008  0.00  0.00    +0.000 C 
ENDBRANCH  17  19
ENDBRANCH  11  17
ENDBRANCH   7  14
ENDBRANCH   1   8
BRANCH   5  20
ATOM     20  S   UNL     1       5.685   5.562  15.825  0.00  0.00    +0.000 S 
ATOM     21  O   UNL     1       5.152   6.731  15.163  0.00  0.00    +0.000 OA
ATOM     22  O   UNL     1       6.437   4.548  15.121  0.00  0.00    +0.000 OA
BRANCH  20  23
ATOM     23  N   UNL     1       4.430   4.764  16.620  0.00  0.00    +0.000 NA
ATOM     24  H   UNL     1       4.705   3.856  16.996  0.00  0.00    +0.000 HD
BRANCH  23  25
ATOM     25  C   UNL     1       3.607   5.579  17.521  0.00  0.00    +0.000 C 
BRANCH  25  26
ATOM     26  C   UNL     1       2.609   4.758  18.281  0.00  0.00    +0.000 A 
ATOM     27  C   UNL     1       2.280   5.051  19.608  0.00  0.00    +0.000 A 
ATOM     28  C   UNL     1       1.378   4.238  20.288  0.00  0.00    +0.000 A 
ATOM     29  C   UNL     1       0.829   3.158  19.616  0.00  0.00    +0.000 A 
ATOM     30  N   UNL     1       1.120   2.847  18.334  0.00  0.00    +0.000 NA
ATOM     31  C   UNL     1       2.001   3.648  17.699  0.00  0.00    +0.000 A 
ENDBRANCH  25  26
ENDBRANCH  23  25
ENDBRANCH  20  23
ENDBRANCH   5  20
TORSDOF 8
ENDMDL
MODEL 3
REMARK VINA RESULT:      -7.8      5.882      8.266
REMARK  Name = 
REMARK  9 active torsions:
REMARK  status: ('A' for Active; 'I' for Inactive)
REMARK    1  A    between atoms: C_1  and  C_2
REMARK    2  A    between atoms: C_2  and  O_3
REMARK    3  A    between atoms: O_3  and  C_4
REMARK    4  A    between atoms: C_7  and  N_8
REMARK    5  A    between atoms: C_9  and  C_11
REMARK    6  A    between atoms: C_15  and  S_16
REMARK    7  A    between atoms: S_16  and  N_19
REMARK    8  A    between atoms: N_19  and  C_20
REMARK    9  A    between atoms: C_20  and  C_21
REMARK                            x       y       z     vdW  Elec       q    Type
REMARK                         _______ _______ _______ _____ _____    ______ ____
ROOT
ATOM      1  C   UNL     1       2.454   6.645  19.892  0.00  0.00    +0.000 A 
ATOM      2  C   UNL     1       1.876   5.472  20.409  0.00  0.00    +0.000 A 
ATOM      3  C   UNL     1       2.518   4.242  20.284  0.00  0.00    +0.000 A 
ATOM      4  C   UNL     1       3.743   4.166  19.627  0.00  0.00    +0.000 A 
ATOM      5  C   UNL     1       4.317   5.324  19.095  0.00  0.00    +0.000 A 
ATOM      6  C   UNL     1       3.683   6.568  19.228  0.00  0.00    +0.000 A 
ENDROOT
BRANCH   1   8
ATOM      7  N   UNL     1       1.494   8.338  21.399  0.00  0.00    +0.000 N 
ATOM      8  C   UNL     1       1.697   7.915  20.095  0.00  0.00    +0.000 C 
ATOM      9  O   UNL     1       1.312   8.500  19.087  0.00  0.00    +0.000 OA
ATOM     10  H   UNL     1       1.952   7.853  22.155  0.00  0.00    +0.000 HD
BRANCH   7  14
ATOM     11  C   UNL     1      -0.876  11.664  22.493  0.00  0.00    +0.000 A 
ATOM     12  C   UNL     1      -1.061  10.442  23.132  0.00  0.00    +0.000 A 
ATOM     13  C   UNL     1      -0.288   9.334  22.785  0.00  0.00    +0.000 A 
ATOM     14  C   UNL     1       0.679   9.428  21.784  0.00  0.00    +0.000 A 
ATOM     15  C   UNL     1       0.872  10.660  21.147  0.00  0.00    +0.000 A 
ATOM     16  C   UNL     1       0.081  11.769  21.485  0.00  0.00    +0.000 A 
BRANCH  11  17
ATOM     17  O   UNL     1      -1.694  12.664  22.929  0.00  0.00    +0.000 OA
BRANCH  17  19
ATOM     18  C   UNL     1      -4.052  12.931  22.881  0.00  0.00    +0.000 C 
ATOM     19  C   UNL     1      -2.890  12.266  23.596  0.00  0.00    +0.000 C 
ENDBRANCH  17  19
ENDBRANCH  11  17
ENDBRANCH   7  14
ENDBRANCH   1   8
BRANCH   5  20
ATOM     20  S   UNL     1       5.933   5.225  18.348  0.00  0.00    +0.000 S 
ATOM     21  O   UNL     1       6.154   6.481  17.668  0.00  0.00    +0.000 OA
ATOM     22  O   UNL     1       6.838   4.719  19.355  0.00  0.00    +0.000 OA
BRANCH  20  23
ATOM     23  N   UNL     1       5.765   4.003  17.198  0.00  0.00    +0.000 NA
ATOM     24  H   UNL     1       5.550   3.093  17.606  0.00  0.00    +0.000 HD
BRANCH  23  25
ATOM     25  C   UNL     1       4.987   4.340  16.000  0.00  0.00    +0.000 C 
BRANCH  25  26
ATOM     26  C   UNL     1       5.841   4.428  14.771  0.00  0.00    +0.000 A 
ATOM     27  C   UNL     1       5.560   3.673  13.628  0.00  0.00    +0.000 A 
ATOM     28  C   UNL     1       6.403   3.755  12.524  0.00  0.00    +0.000 A 
ATOM     29  C   UNL     1       7.501   4.596  12.597  0.00  0.00    +0.000 A 
ATOM     30  N   UNL     1       7.804   5.342  13.681  0.00  0.00    +0.000 NA
ATOM     31  C   UNL     1       6.973   5.239  14.740  0.00  0.00    +0.000 A 
ENDBRANCH  25  26
ENDBRANCH  23  25
ENDBRANCH  20  23
ENDBRANCH   5  20
TORSDOF 8
ENDMDL
MODEL 4
REMARK VINA RESULT:      -7.7      6.148      8.307
REMARK  Name = 
REMARK  9 active torsions:
REMARK  status: ('A' for Active; 'I' for Inactive)
REMARK    1  A    between atoms: C_1  and  C_2
REMARK    2  A    between atoms: C_2  and  O_3
REMARK    3  A    between atoms: O_3  and  C_4
REMARK    4  A    between atoms: C_7  and  N_8
REMARK    5  A    between atoms: C_9  and  C_11
REMARK    6  A    between atoms: C_15  and  S_16
REMARK    7  A    between atoms: S_16  and  N_19
REMARK    8  A    between atoms: N_19  and  C_20
REMARK    9  A    between atoms: C_20  and  C_21
REMARK                            x       y       z     vdW  Elec       q    Type
REMARK                         _______ _______ _______ _____ _____    ______ ____
ROOT
ATOM      1  C   UNL     1       1.890   5.923  20.302  0.00  0.00    +0.000 A 
ATOM      2  C   UNL     1       0.884   5.004  20.647  0.00  0.00    +0.000 A 
ATOM      3  C   UNL     1       1.105   3.632  20.555  0.00  0.00    +0.000 A 
ATOM      4  C   UNL     1       2.334   3.159  20.105  0.00  0.00    +0.000 A 
ATOM      5  C   UNL     1       3.336   4.065  19.744  0.00  0.00    +0.000 A 
ATOM      6  C   UNL     1       3.125   5.448  19.846  0.00  0.00    +0.000 A 
ENDROOT
BRANCH   1   8
ATOM      7  N   UNL     1       0.596   7.714  21.386  0.00  0.00    +0.000 N 
ATOM      8  C   UNL     1       1.562   7.371  20.454  0.00  0.00    +0.000 C 
ATOM      9  O   UNL     1       2.178   8.159  19.742  0.00  0.00    +0.000 OA
ATOM     10  H   UNL     1       0.234   7.008  22.008  0.00  0.00    +0.000 HD
BRANCH   7  14
ATOM     11  C   UNL     1      -1.005  11.605  21.800  0.00  0.00    +0.000 A 
ATOM     12  C   UNL     1      -0.711  10.854  22.934  0.00  0.00    +0.000 A 
ATOM     13  C   UNL     1      -0.180   9.569  22.817  0.00  0.00    +0.000 A 
ATOM     14  C   UNL     1       0.055   9.009  21.560  0.00  0.00    +0.000 A 
ATOM     15  C   UNL     1      -0.233   9.768  20.420  0.00  0.00    +0.000 A 
ATOM     16  C   UNL     1      -0.783  11.054  20.539  0.00  0.00    +0.000 A 
BRANCH  11  17
ATOM     17  O   UNL     1      -1.515  12.845  22.055  0.00  0.00    +0.000 OA
BRANCH  17  19
ATOM     18  C   UNL     1      -2.525  14.500  23.424  0.00  0.00    +0.000 C 
ATOM     19  C   UNL     1      -2.031  13.065  23.366  0.00  0.00    +0.000 C 
ENDBRANCH  17  19
ENDBRANCH  11  17
ENDBRANCH   7  14
ENDBRANCH   1   8
BRANCH   5  20
ATOM     20  S   UNL     1       4.937   3.442  19.268  0.00  0.00    +0.000 S 
ATOM     21  O   UNL     1       5.877   4.522  19.463  0.00  0.00    +0.000 OA
ATOM     22  O   UNL     1       5.097   2.151  19.899  0.00  0.00    +0.000 OA
BRANCH  20  23
ATOM     23  N   UNL     1       4.774   3.151  17.615  0.00  0.00    +0.000 NA
ATOM     24  H   UNL     1       4.221   2.320  17.406  0.00  0.00    +0.000 HD
BRANCH  23  25
ATOM     25  C   UNL     1       4.476   4.317  16.775  0.00  0.00    +0.000 C 
BRANCH  25  26
ATOM     26  C   UNL     1       5.491   4.511  15.688  0.00  0.00    +0.000 A 
ATOM     27  C   UNL     1       5.386   3.847  14.462  0.00  0.00    +0.000 A 
ATOM     28  C   UNL     1       6.372   4.026  13.496  0.00  0.00    +0.000 A 
ATOM     29  C   UNL     1       7.432   4.869  13.787  0.00  0.00    +0.000 A 
ATOM     30  N   UNL     1       7.565   5.529  14.958  0.00  0.00    +0.000 NA
ATOM     31  C   UNL     1       6.598   5.334  15.879  0.00  0.00    +0.000 A 
ENDBRANCH  25  26
ENDBRANCH  23  25
ENDBRANCH  20  23
ENDBRANCH   5  20
TORSDOF 8
ENDMDL
MODEL 5
REMARK VINA RESULT:      -7.7      0.745      1.160
REMARK  Name = 
REMARK  9 active torsions:
REMARK  status: ('A' for Active; 'I' for Inactive)
REMARK    1  A    between atoms: C_1  and  C_2
REMARK    2  A    between atoms: C_2  and  O_3
REMARK    3  A    between atoms: O_3  and  C_4
REMARK    4  A    between atoms: C_7  and  N_8
REMARK    5  A    between atoms: C_9  and  C_11
REMARK    6  A    between atoms: C_15  and  S_16
REMARK    7  A    between atoms: S_16  and  N_19
REMARK    8  A    between atoms: N_19  and  C_20
REMARK    9  A    between atoms: C_20  and  C_21
REMARK                            x       y       z     vdW  Elec       q    Type
REMARK                         _______ _______ _______ _____ _____    ______ ____
ROOT
ATOM      1  C   UNL     1       8.128   7.948  18.248  0.00  0.00    +0.000 A 
ATOM      2  C   UNL     1       8.455   7.055  19.283  0.00  0.00    +0.000 A 
ATOM      3  C   UNL     1       8.118   5.706  19.199  0.00  0.00    +0.000 A 
ATOM      4  C   UNL     1       7.436   5.233  18.081  0.00  0.00    +0.000 A 
ATOM      5  C   UNL     1       7.092   6.117  17.054  0.00  0.00    +0.000 A 
ATOM      6  C   UNL     1       7.439   7.473  17.126  0.00  0.00    +0.000 A 
ENDROOT
BRANCH   1   8
ATOM      7  N   UNL     1       9.385   9.660  19.491  0.00  0.00    +0.000 N 
ATOM      8  C   UNL     1       8.549   9.368  18.425  0.00  0.00    +0.000 C 
ATOM      9  O   UNL     1       8.129  10.180  17.605  0.00  0.00    +0.000 OA
ATOM     10  H   UNL     1       9.773   8.907  20.038  0.00  0.00    +0.000 HD
BRANCH   7  14
ATOM     11  C   UNL     1      10.612  13.534  20.657  0.00  0.00    +0.000 A 
ATOM     12  C   UNL     1       9.460  12.980  21.205  0.00  0.00    +0.000 A 
ATOM     13  C   UNL     1       9.040  11.702  20.833  0.00  0.00    +0.000 A 
ATOM     14  C   UNL     1       9.763  10.961  19.898  0.00  0.00    +0.000 A 
ATOM     15  C   UNL     1      10.927  11.515  19.354  0.00  0.00    +0.000 A 
ATOM     16  C   UNL     1      11.339  12.808  19.715  0.00  0.00    +0.000 A 
BRANCH  11  17
ATOM     17  O   UNL     1      10.911  14.787  21.108  0.00  0.00    +0.000 OA
BRANCH  17  19
ATOM     18  C   UNL     1       9.662  16.686  20.427  0.00  0.00    +0.000 C 
ATOM     19  C   UNL     1      10.887  15.836  20.143  0.00  0.00    +0.000 C 
ENDBRANCH  17  19
ENDBRANCH  11  17
ENDBRANCH   7  14
ENDBRANCH   1   8
BRANCH   5  20
ATOM     20  S   UNL     1       6.310   5.475  15.585  0.00  0.00    +0.000 S 
ATOM     21  O   UNL     1       5.282   6.421  15.216  0.00  0.00    +0.000 OA
ATOM     22  O   UNL     1       7.366   5.084  14.678  0.00  0.00    +0.000 OA
BRANCH  20  23
ATOM     23  N   UNL     1       5.580   4.051  16.113  0.00  0.00    +0.000 NA
ATOM     24  H   UNL     1       6.024   3.654  16.942  0.00  0.00    +0.000 HD
BRANCH  23  25
ATOM     25  C   UNL     1       4.112   4.042  16.138  0.00  0.00    +0.000 C 
BRANCH  25  26
ATOM     26  C   UNL     1       3.566   3.881  17.525  0.00  0.00    +0.000 A 
ATOM     27  C   UNL     1       2.298   4.357  17.872  0.00  0.00    +0.000 A 
ATOM     28  C   UNL     1       1.847   4.222  19.182  0.00  0.00    +0.000 A 
ATOM     29  C   UNL     1       2.679   3.608  20.103  0.00  0.00    +0.000 A 
ATOM     30  N   UNL     1       3.908   3.133  19.805  0.00  0.00    +0.000 NA
ATOM     31  C   UNL     1       4.323   3.282  18.529  0.00  0.00    +0.000 A 
ENDBRANCH  25  26
ENDBRANCH  23  25
ENDBRANCH  20  23
ENDBRANCH   5  20
TORSDOF 8
ENDMDL
MODEL 6
REMARK VINA RESULT:      -7.7      6.637      9.832
REMARK  Name = 
REMARK  9 active torsions:
REMARK  status: ('A' for Active; 'I' for Inactive)
REMARK    1  A    between atoms: C_1  and  C_2
REMARK    2  A    between atoms: C_2  and  O_3
REMARK    3  A    between atoms: O_3  and  C_4
REMARK    4  A    between atoms: C_7  and  N_8
REMARK    5  A    between atoms: C_9  and  C_11
REMARK    6  A    between atoms: C_15  and  S_16
REMARK    7  A    between atoms: S_16  and  N_19
REMARK    8  A    between atoms: N_19  and  C_20
REMARK    9  A    between atoms: C_20  and  C_21
REMARK                            x       y       z     vdW  Elec       q    Type
REMARK                         _______ _______ _______ _____ _____    ______ ____
ROOT
ATOM      1  C   UNL     1       1.429   9.349  19.230  0.00  0.00    +0.000 A 
ATOM      2  C   UNL     1       1.123   8.805  20.490  0.00  0.00    +0.000 A 
ATOM      3  C   UNL     1       0.461   9.561  21.455  0.00  0.00    +0.000 A 
ATOM      4  C   UNL     1       0.105  10.877  21.177  0.00  0.00    +0.000 A 
ATOM      5  C   UNL     1       0.419  11.432  19.933  0.00  0.00    +0.000 A 
ATOM      6  C   UNL     1       1.075  10.674  18.952  0.00  0.00    +0.000 A 
ENDROOT
BRANCH   1   8
ATOM      7  N   UNL     1       2.613   7.249  18.738  0.00  0.00    +0.000 N 
ATOM      8  C   UNL     1       2.122   8.453  18.259  0.00  0.00    +0.000 C 
ATOM      9  O   UNL     1       2.204   8.846  17.099  0.00  0.00    +0.000 OA
ATOM     10  H   UNL     1       2.391   6.961  19.679  0.00  0.00    +0.000 HD
BRANCH   7  14
ATOM     11  C   UNL     1       4.961   4.475  16.578  0.00  0.00    +0.000 A 
ATOM     12  C   UNL     1       5.409   5.782  16.739  0.00  0.00    +0.000 A 
ATOM     13  C   UNL     1       4.648   6.711  17.450  0.00  0.00    +0.000 A 
ATOM     14  C   UNL     1       3.420   6.348  18.004  0.00  0.00    +0.000 A 
ATOM     15  C   UNL     1       2.974   5.031  17.849  0.00  0.00    +0.000 A 
ATOM     16  C   UNL     1       3.732   4.102  17.118  0.00  0.00    +0.000 A 
BRANCH  11  17
ATOM     17  O   UNL     1       5.802   3.670  15.866  0.00  0.00    +0.000 OA
BRANCH  17  19
ATOM     18  C   UNL     1       5.897   3.803  13.498  0.00  0.00    +0.000 C 
ATOM     19  C   UNL     1       6.520   4.282  14.797  0.00  0.00    +0.000 C 
ENDBRANCH  17  19
ENDBRANCH  11  17
ENDBRANCH   7  14
ENDBRANCH   1   8
BRANCH   5  20
ATOM     20  S   UNL     1      -0.134  13.086  19.557  0.00  0.00    +0.000 S 
ATOM     21  O   UNL     1       0.169  13.897  20.713  0.00  0.00    +0.000 OA
ATOM     22  O   UNL     1       0.352  13.407  18.234  0.00  0.00    +0.000 OA
BRANCH  20  23
ATOM     23  N   UNL     1      -1.807  12.924  19.426  0.00  0.00    +0.000 NA
ATOM     24  H   UNL     1      -2.220  13.555  18.739  0.00  0.00    +0.000 HD
BRANCH  23  25
ATOM     25  C   UNL     1      -2.328  11.552  19.393  0.00  0.00    +0.000 C 
BRANCH  25  26
ATOM     26  C   UNL     1      -2.796  11.153  18.025  0.00  0.00    +0.000 A 
ATOM     27  C   UNL     1      -2.014  10.348  17.191  0.00  0.00    +0.000 A 
ATOM     28  C   UNL     1      -2.469  10.034  15.914  0.00  0.00    +0.000 A 
ATOM     29  C   UNL     1      -3.697  10.534  15.512  0.00  0.00    +0.000 A 
ATOM     30  N   UNL     1      -4.480  11.312  16.290  0.00  0.00    +0.000 NA
ATOM     31  C   UNL     1      -4.013  11.605  17.523  0.00  0.00    +0.000 A 
ENDBRANCH  25  26
ENDBRANCH  23  25
ENDBRANCH  20  23
ENDBRANCH   5  20
TORSDOF 8
ENDMDL
MODEL 7
REMARK VINA RESULT:      -7.6      6.199      8.470
REMARK  Name = 
REMARK  9 active torsions:
REMARK  status: ('A' for Active; 'I' for Inactive)
REMARK    1  A    between atoms: C_1  and  C_2
REMARK    2  A    between atoms: C_2  and  O_3
REMARK    3  A    between atoms: O_3  and  C_4
REMARK    4  A    between atoms: C_7  and  N_8
REMARK    5  A    between atoms: C_9  and  C_11
REMARK    6  A    between atoms: C_15  and  S_16
REMARK    7  A    between atoms: S_16  and  N_19
REMARK    8  A    between atoms: N_19  and  C_20
REMARK    9  A    between atoms: C_20  and  C_21
REMARK                            x       y       z     vdW  Elec       q    Type
REMARK                         _______ _______ _______ _____ _____    ______ ____
ROOT
ATOM      1  C   UNL     1       2.616   7.136  19.188  0.00  0.00    +0.000 A 
ATOM      2  C   UNL     1       2.914   7.962  18.090  0.00  0.00    +0.000 A 
ATOM      3  C   UNL     1       3.814   7.552  17.109  0.00  0.00    +0.000 A 
ATOM      4  C   UNL     1       4.439   6.314  17.218  0.00  0.00    +0.000 A 
ATOM      5  C   UNL     1       4.161   5.492  18.314  0.00  0.00    +0.000 A 
ATOM      6  C   UNL     1       3.248   5.892  19.300  0.00  0.00    +0.000 A 
ENDROOT
BRANCH   1   8
ATOM      7  N   UNL     1       1.203   8.968  20.025  0.00  0.00    +0.000 N 
ATOM      8  C   UNL     1       1.626   7.657  20.174  0.00  0.00    +0.000 C 
ATOM      9  O   UNL     1       1.249   6.882  21.048  0.00  0.00    +0.000 OA
ATOM     10  H   UNL     1       1.477   9.488  19.205  0.00  0.00    +0.000 HD
BRANCH   7  14
ATOM     11  C   UNL     1      -1.242  11.150  22.696  0.00  0.00    +0.000 A 
ATOM     12  C   UNL     1      -0.546  10.034  23.151  0.00  0.00    +0.000 A 
ATOM     13  C   UNL     1       0.266   9.303  22.284  0.00  0.00    +0.000 A 
ATOM     14  C   UNL     1       0.389   9.671  20.943  0.00  0.00    +0.000 A 
ATOM     15  C   UNL     1      -0.304  10.800  20.489  0.00  0.00    +0.000 A 
ATOM     16  C   UNL     1      -1.135  11.525  21.358  0.00  0.00    +0.000 A 
BRANCH  11  17
ATOM     17  O   UNL     1      -1.996  11.776  23.646  0.00  0.00    +0.000 OA
BRANCH  17  19
ATOM     18  C   UNL     1      -4.146  12.696  24.050  0.00  0.00    +0.000 C 
ATOM     19  C   UNL     1      -2.900  12.778  23.186  0.00  0.00    +0.000 C 
ENDBRANCH  17  19
ENDBRANCH  11  17
ENDBRANCH   7  14
ENDBRANCH   1   8
BRANCH   5  20
ATOM     20  S   UNL     1       4.892   3.866  18.386  0.00  0.00    +0.000 S 
ATOM     21  O   UNL     1       5.705   3.830  19.579  0.00  0.00    +0.000 OA
ATOM     22  O   UNL     1       3.834   2.913  18.139  0.00  0.00    +0.000 OA
BRANCH  20  23
ATOM     23  N   UNL     1       5.900   3.824  17.035  0.00  0.00    +0.000 NA
ATOM     24  H   UNL     1       6.745   3.272  17.181  0.00  0.00    +0.000 HD
BRANCH  23  25
ATOM     25  C   UNL     1       5.243   3.612  15.740  0.00  0.00    +0.000 C 
BRANCH  25  26
ATOM     26  C   UNL     1       6.080   4.092  14.591  0.00  0.00    +0.000 A 
ATOM     27  C   UNL     1       5.888   3.608  13.294  0.00  0.00    +0.000 A 
ATOM     28  C   UNL     1       6.714   4.051  12.265  0.00  0.00    +0.000 A 
ATOM     29  C   UNL     1       7.705   4.971  12.567  0.00  0.00    +0.000 A 
ATOM     30  N   UNL     1       7.918   5.463  13.807  0.00  0.00    +0.000 NA
ATOM     31  C   UNL     1       7.106   5.013  14.787  0.00  0.00    +0.000 A 
ENDBRANCH  25  26
ENDBRANCH  23  25
ENDBRANCH  20  23
ENDBRANCH   5  20
TORSDOF 8
ENDMDL
MODEL 8
REMARK VINA RESULT:      -7.5      5.777      7.541
REMARK  Name = 
REMARK  9 active torsions:
REMARK  status: ('A' for Active; 'I' for Inactive)
REMARK    1  A    between atoms: C_1  and  C_2
REMARK    2  A    between atoms: C_2  and  O_3
REMARK    3  A    between atoms: O_3  and  C_4
REMARK    4  A    between atoms: C_7  and  N_8
REMARK    5  A    between atoms: C_9  and  C_11
REMARK    6  A    between atoms: C_15  and  S_16
REMARK    7  A    between atoms: S_16  and  N_19
REMARK    8  A    between atoms: N_19  and  C_20
REMARK    9  A    between atoms: C_20  and  C_21
REMARK                            x       y       z     vdW  Elec       q    Type
REMARK                         _______ _______ _______ _____ _____    ______ ____
ROOT
ATOM      1  C   UNL     1       2.218   6.341  19.842  0.00  0.00    +0.000 A 
ATOM      2  C   UNL     1       1.237   5.621  20.546  0.00  0.00    +0.000 A 
ATOM      3  C   UNL     1       1.408   4.268  20.832  0.00  0.00    +0.000 A 
ATOM      4  C   UNL     1       2.560   3.613  20.406  0.00  0.00    +0.000 A 
ATOM      5  C   UNL     1       3.534   4.317  19.691  0.00  0.00    +0.000 A 
ATOM      6  C   UNL     1       3.374   5.681  19.411  0.00  0.00    +0.000 A 
ENDROOT
BRANCH   1   8
ATOM      7  N   UNL     1       1.112   8.441  20.495  0.00  0.00    +0.000 N 
ATOM      8  C   UNL     1       1.949   7.789  19.603  0.00  0.00    +0.000 C 
ATOM      9  O   UNL     1       2.495   8.304  18.631  0.00  0.00    +0.000 OA
ATOM     10  H   UNL     1       0.808   7.963  21.329  0.00  0.00    +0.000 HD
BRANCH   7  14
ATOM     11  C   UNL     1      -0.352  12.368  19.940  0.00  0.00    +0.000 A 
ATOM     12  C   UNL     1       0.362  12.052  21.091  0.00  0.00    +0.000 A 
ATOM     13  C   UNL     1       0.854  10.762  21.291  0.00  0.00    +0.000 A 
ATOM     14  C   UNL     1       0.631   9.762  20.344  0.00  0.00    +0.000 A 
ATOM     15  C   UNL     1      -0.080  10.082  19.181  0.00  0.00    +0.000 A 
ATOM     16  C   UNL     1      -0.589  11.376  18.989  0.00  0.00    +0.000 A 
BRANCH  11  17
ATOM     17  O   UNL     1      -0.772  13.664  19.868  0.00  0.00    +0.000 OA
BRANCH  17  19
ATOM     18  C   UNL     1       1.012  14.800  18.793  0.00  0.00    +0.000 C 
ATOM     19  C   UNL     1       0.217  14.669  20.079  0.00  0.00    +0.000 C 
ENDBRANCH  17  19
ENDBRANCH  11  17
ENDBRANCH   7  14
ENDBRANCH   1   8
BRANCH   5  20
ATOM     20  S   UNL     1       5.048   3.488  19.244  0.00  0.00    +0.000 S 
ATOM     21  O   UNL     1       6.097   4.480  19.305  0.00  0.00    +0.000 OA
ATOM     22  O   UNL     1       5.100   2.257  20.000  0.00  0.00    +0.000 OA
BRANCH  20  23
ATOM     23  N   UNL     1       4.801   3.052  17.634  0.00  0.00    +0.000 NA
ATOM     24  H   UNL     1       4.276   2.183  17.528  0.00  0.00    +0.000 HD
BRANCH  23  25
ATOM     25  C   UNL     1       4.399   4.129  16.722  0.00  0.00    +0.000 C 
BRANCH  25  26
ATOM     26  C   UNL     1       5.443   4.419  15.685  0.00  0.00    +0.000 A 
ATOM     27  C   UNL     1       5.400   3.828  14.419  0.00  0.00    +0.000 A 
ATOM     28  C   UNL     1       6.412   4.094  13.501  0.00  0.00    +0.000 A 
ATOM     29  C   UNL     1       7.435   4.948  13.879  0.00  0.00    +0.000 A 
ATOM     30  N   UNL     1       7.508   5.539  15.091  0.00  0.00    +0.000 NA
ATOM     31  C   UNL     1       6.517   5.260  15.964  0.00  0.00    +0.000 A 
ENDBRANCH  25  26
ENDBRANCH  23  25
ENDBRANCH  20  23
ENDBRANCH   5  20
TORSDOF 8
ENDMDL
MODEL 9
REMARK VINA RESULT:      -7.5      6.068      8.553
REMARK  Name = 
REMARK  9 active torsions:
REMARK  status: ('A' for Active; 'I' for Inactive)
REMARK    1  A    between atoms: C_1  and  C_2
REMARK    2  A    between atoms: C_2  and  O_3
REMARK    3  A    between atoms: O_3  and  C_4
REMARK    4  A    between atoms: C_7  and  N_8
REMARK    5  A    between atoms: C_9  and  C_11
REMARK    6  A    between atoms: C_15  and  S_16
REMARK    7  A    between atoms: S_16  and  N_19
REMARK    8  A    between atoms: N_19  and  C_20
REMARK    9  A    between atoms: C_20  and  C_21
REMARK                            x       y       z     vdW  Elec       q    Type
REMARK                         _______ _______ _______ _____ _____    ______ ____
ROOT
ATOM      1  C   UNL     1       2.214   6.934  19.913  0.00  0.00    +0.000 A 
ATOM      2  C   UNL     1       1.712   5.851  20.655  0.00  0.00    +0.000 A 
ATOM      3  C   UNL     1       2.295   4.589  20.566  0.00  0.00    +0.000 A 
ATOM      4  C   UNL     1       3.384   4.390  19.723  0.00  0.00    +0.000 A 
ATOM      5  C   UNL     1       3.880   5.457  18.968  0.00  0.00    +0.000 A 
ATOM      6  C   UNL     1       3.306   6.733  19.062  0.00  0.00    +0.000 A 
ENDROOT
BRANCH   1   8
ATOM      7  N   UNL     1       0.867   8.467  21.289  0.00  0.00    +0.000 N 
ATOM      8  C   UNL     1       1.531   8.249  20.093  0.00  0.00    +0.000 C 
ATOM      9  O   UNL     1       1.612   9.049  19.166  0.00  0.00    +0.000 OA
ATOM     10  H   UNL     1       0.959   7.796  22.038  0.00  0.00    +0.000 HD
BRANCH   7  14
ATOM     11  C   UNL     1      -1.600  11.765  22.242  0.00  0.00    +0.000 A 
ATOM     12  C   UNL     1      -1.190  11.566  20.928  0.00  0.00    +0.000 A 
ATOM     13  C   UNL     1      -0.376  10.482  20.595  0.00  0.00    +0.000 A 
ATOM     14  C   UNL     1       0.048   9.584  21.575  0.00  0.00    +0.000 A 
ATOM     15  C   UNL     1      -0.373   9.780  22.895  0.00  0.00    +0.000 A 
ATOM     16  C   UNL     1      -1.177  10.880  23.232  0.00  0.00    +0.000 A 
BRANCH  11  17
ATOM     17  O   UNL     1      -2.394  12.859  22.430  0.00  0.00    +0.000 OA
BRANCH  17  19
ATOM     18  C   UNL     1      -4.655  12.786  21.710  0.00  0.00    +0.000 C 
ATOM     19  C   UNL     1      -3.720  12.613  22.894  0.00  0.00    +0.000 C 
ENDBRANCH  17  19
ENDBRANCH  11  17
ENDBRANCH   7  14
ENDBRANCH   1   8
BRANCH   5  20
ATOM     20  S   UNL     1       5.338   5.209  17.971  0.00  0.00    +0.000 S 
ATOM     21  O   UNL     1       5.885   6.519  17.702  0.00  0.00    +0.000 OA
ATOM     22  O   UNL     1       6.110   4.160  18.598  0.00  0.00    +0.000 OA
BRANCH  20  23
ATOM     23  N   UNL     1       4.732   4.564  16.535  0.00  0.00    +0.000 NA
ATOM     24  H   UNL     1       4.351   5.271  15.906  0.00  0.00    +0.000 HD
BRANCH  23  25
ATOM     25  C   UNL     1       5.557   3.540  15.883  0.00  0.00    +0.000 C 
BRANCH  25  26
ATOM     26  C   UNL     1       6.259   4.065  14.666  0.00  0.00    +0.000 A 
ATOM     27  C   UNL     1       5.992   3.556  13.391  0.00  0.00    +0.000 A 
ATOM     28  C   UNL     1       6.697   4.044  12.294  0.00  0.00    +0.000 A 
ATOM     29  C   UNL     1       7.645   5.031  12.507  0.00  0.00    +0.000 A 
ATOM     30  N   UNL     1       7.928   5.548  13.722  0.00  0.00    +0.000 NA
ATOM     31  C   UNL     1       7.234   5.054  14.770  0.00  0.00    +0.000 A 
ENDBRANCH  25  26
ENDBRANCH  23  25
ENDBRANCH  20  23
ENDBRANCH   5  20
TORSDOF 8
ENDMDL
