MODEL 1
REMARK VINA RESULT:      -7.3      0.000      0.000
REMARK  Name = 
REMARK  6 active torsions:
REMARK  status: ('A' for Active; 'I' for Inactive)
REMARK    1  A    between atoms: C_1  and  O_2
REMARK    2  A    between atoms: O_2  and  C_3
REMARK    3  A    between atoms: C_3  and  C_4
REMARK    4  A    between atoms: C_3  and  C_18
REMARK    5  A    between atoms: C_4  and  C_5
REMARK    6  A    between atoms: C_9  and  C_10
REMARK                            x       y       z     vdW  Elec       q    Type
REMARK                         _______ _______ _______ _____ _____    ______ ____
ROOT
ATOM      1  C   UNL     1       4.040   4.840  19.290  0.00  0.00    +0.000 A 
ATOM      2  S   UNL     1       4.132   3.177  19.739  0.00  0.00    +0.000 S 
ATOM      3  C   UNL     1       2.552   3.259  20.381  0.00  0.00    +0.000 A 
ATOM      4  N   UNL     1       1.962   4.431  20.325  0.00  0.00    +0.000 NA
ATOM      5  C   UNL     1       2.808   5.359  19.691  0.00  0.00    +0.000 A 
ENDROOT
BRANCH   5   6
ATOM      6  C   UNL     1       2.362   6.753  19.515  0.00  0.00    +0.000 C 
ATOM      7  O   UNL     1       2.455   7.319  18.428  0.00  0.00    +0.000 OA
ATOM      8  N   UNL     1       1.890   7.312  20.679  0.00  0.00    +0.000 N 
ATOM      9  C   UNL     1       1.350   8.567  20.690  0.00  0.00    +0.000 A 
ATOM     10  N   UNL     1       1.084   9.342  19.666  0.00  0.00    +0.000 NA
ATOM     11  C   UNL     1       0.548  10.530  20.106  0.00  0.00    +0.000 A 
ATOM     12  C   UNL     1       0.432  10.654  21.474  0.00  0.00    +0.000 A 
ATOM     13  S   UNL     1       0.964   9.202  22.227  0.00  0.00    +0.000 S 
ATOM     14  H   UNL     1       1.955   6.785  21.539  0.00  0.00    +0.000 HD
ENDBRANCH   5   6
BRANCH   1  15
ATOM     15  C   UNL     1       5.237   5.505  18.646  0.00  0.00    +0.000 C 
BRANCH  15  16
ATOM     16  C   UNL     1       6.337   4.542  18.133  0.00  0.00    +0.000 C 
BRANCH  16  17
ATOM     17  C   UNL     1       6.349   4.396  16.619  0.00  0.00    +0.000 A 
ATOM     18  C   UNL     1       7.373   4.965  15.847  0.00  0.00    +0.000 A 
ATOM     19  C   UNL     1       7.368   4.834  14.454  0.00  0.00    +0.000 A 
ATOM     20  C   UNL     1       6.338   4.137  13.825  0.00  0.00    +0.000 A 
ATOM     21 CL   UNL     1       6.349   3.950  12.114  0.00  0.00    +0.000 Cl
ATOM     22  C   UNL     1       5.299   3.592  14.572  0.00  0.00    +0.000 A 
ATOM     23  C   UNL     1       5.303   3.726  15.961  0.00  0.00    +0.000 A 
ENDBRANCH  16  17
BRANCH  16  25
ATOM     24  C   UNL     1       7.775   5.718  19.671  0.00  0.00    +0.000 C 
ATOM     25  O   UNL     1       7.666   4.989  18.461  0.00  0.00    +0.000 OA
ENDBRANCH  16  25
ENDBRANCH  15  16
ENDBRANCH   1  15
TORSDOF 5
ENDMDL
MODEL 2
REMARK VINA RESULT:      -7.3      4.610      6.792
REMARK  Name = 
REMARK  6 active torsions:
REMARK  status: ('A' for Active; 'I' for Inactive)
REMARK    1  A    between atoms: C_1  and  O_2
REMARK    2  A    between atoms: O_2  and  C_3
REMARK    3  A    between atoms: C_3  and  C_4
REMARK    4  A    between atoms: C_3  and  C_18
REMARK    5  A    between atoms: C_4  and  C_5
REMARK    6  A    between atoms: C_9  and  C_10
REMARK                            x       y       z     vdW  Elec       q    Type
REMARK                         _______ _______ _______ _____ _____    ______ ____
ROOT
ATOM      1  C   UNL     1       5.540   6.255  17.023  0.00  0.00    +0.000 A 
ATOM      2  S   UNL     1       5.094   5.172  15.756  0.00  0.00    +0.000 S 
ATOM      3  C   UNL     1       6.731   5.047  15.284  0.00  0.00    +0.000 A 
ATOM      4  N   UNL     1       7.589   5.771  15.965  0.00  0.00    +0.000 NA
ATOM      5  C   UNL     1       6.918   6.473  16.981  0.00  0.00    +0.000 A 
ENDROOT
BRANCH   5   6
ATOM      6  C   UNL     1       7.677   7.363  17.879  0.00  0.00    +0.000 C 
ATOM      7  O   UNL     1       8.218   6.931  18.894  0.00  0.00    +0.000 OA
ATOM      8  N   UNL     1       7.663   8.674  17.467  0.00  0.00    +0.000 N 
ATOM      9  C   UNL     1       8.388   9.628  18.124  0.00  0.00    +0.000 A 
ATOM     10  N   UNL     1       9.254   9.459  19.094  0.00  0.00    +0.000 NA
ATOM     11  C   UNL     1       9.762  10.677  19.483  0.00  0.00    +0.000 A 
ATOM     12  C   UNL     1       9.255  11.769  18.811  0.00  0.00    +0.000 A 
ATOM     13  S   UNL     1       8.142  11.238  17.613  0.00  0.00    +0.000 S 
ATOM     14  H   UNL     1       7.098   8.932  16.669  0.00  0.00    +0.000 HD
ENDBRANCH   5   6
BRANCH   1  15
ATOM     15  C   UNL     1       4.464   6.855  17.902  0.00  0.00    +0.000 C 
BRANCH  15  16
ATOM     16  C   UNL     1       3.030   6.319  17.660  0.00  0.00    +0.000 C 
BRANCH  16  17
ATOM     17  C   UNL     1       2.571   5.332  18.722  0.00  0.00    +0.000 A 
ATOM     18  C   UNL     1       2.668   5.645  20.087  0.00  0.00    +0.000 A 
ATOM     19  C   UNL     1       2.252   4.726  21.057  0.00  0.00    +0.000 A 
ATOM     20  C   UNL     1       1.743   3.488  20.668  0.00  0.00    +0.000 A 
ATOM     21 CL   UNL     1       1.204   2.370  21.861  0.00  0.00    +0.000 Cl
ATOM     22  C   UNL     1       1.669   3.149  19.321  0.00  0.00    +0.000 A 
ATOM     23  C   UNL     1       2.086   4.066  18.355  0.00  0.00    +0.000 A 
ENDBRANCH  16  17
BRANCH  16  25
ATOM     24  C   UNL     1       2.543   8.676  17.822  0.00  0.00    +0.000 C 
ATOM     25  O   UNL     1       2.036   7.360  17.681  0.00  0.00    +0.000 OA
ENDBRANCH  16  25
ENDBRANCH  15  16
ENDBRANCH   1  15
TORSDOF 5
ENDMDL
MODEL 3
REMARK VINA RESULT:      -7.2      0.457      1.086
REMARK  Name = 
REMARK  6 active torsions:
REMARK  status: ('A' for Active; 'I' for Inactive)
REMARK    1  A    between atoms: C_1  and  O_2
REMARK    2  A    between atoms: O_2  and  C_3
REMARK    3  A    between atoms: C_3  and  C_4
REMARK    4  A    between atoms: C_3  and  C_18
REMARK    5  A    between atoms: C_4  and  C_5
REMARK    6  A    between atoms: C_9  and  C_10
REMARK                            x       y       z     vdW  Elec       q    Type
REMARK                         _______ _______ _______ _____ _____    ______ ____
ROOT
ATOM      1  C   UNL     1       3.874   5.264  19.160  0.00  0.00    +0.000 A 
ATOM      2  S   UNL     1       4.101   3.610  19.594  0.00  0.00    +0.000 S 
ATOM      3  C   UNL     1       2.663   3.650  20.513  0.00  0.00    +0.000 A 
ATOM      4  N   UNL     1       2.035   4.803  20.560  0.00  0.00    +0.000 NA
ATOM      5  C   UNL     1       2.719   5.749  19.777  0.00  0.00    +0.000 A 
ENDROOT
BRANCH   5   6
ATOM      6  C   UNL     1       2.203   7.126  19.678  0.00  0.00    +0.000 C 
ATOM      7  O   UNL     1       2.295   7.768  18.633  0.00  0.00    +0.000 OA
ATOM      8  N   UNL     1       1.667   7.581  20.859  0.00  0.00    +0.000 N 
ATOM      9  C   UNL     1       1.059   8.802  20.935  0.00  0.00    +0.000 A 
ATOM     10  N   UNL     1       0.780   9.628  19.955  0.00  0.00    +0.000 NA
ATOM     11  C   UNL     1       0.168  10.754  20.454  0.00  0.00    +0.000 A 
ATOM     12  C   UNL     1       0.006  10.780  21.823  0.00  0.00    +0.000 A 
ATOM     13  S   UNL     1       0.596   9.312  22.497  0.00  0.00    +0.000 S 
ATOM     14  H   UNL     1       1.737   7.002  21.685  0.00  0.00    +0.000 HD
ENDBRANCH   5   6
BRANCH   1  15
ATOM     15  C   UNL     1       4.910   5.959  18.304  0.00  0.00    +0.000 C 
BRANCH  15  16
ATOM     16  C   UNL     1       6.145   5.103  17.927  0.00  0.00    +0.000 C 
BRANCH  16  17
ATOM     17  C   UNL     1       6.193   4.735  16.453  0.00  0.00    +0.000 A 
ATOM     18  C   UNL     1       5.202   3.925  15.878  0.00  0.00    +0.000 A 
ATOM     19  C   UNL     1       5.261   3.584  14.523  0.00  0.00    +0.000 A 
ATOM     20  C   UNL     1       6.313   4.046  13.735  0.00  0.00    +0.000 A 
ATOM     21 CL   UNL     1       6.369   3.651  12.061  0.00  0.00    +0.000 Cl
ATOM     22  C   UNL     1       7.321   4.825  14.294  0.00  0.00    +0.000 A 
ATOM     23  C   UNL     1       7.262   5.162  15.646  0.00  0.00    +0.000 A 
ENDBRANCH  16  17
BRANCH  16  25
ATOM     24  C   UNL     1       7.855   5.734  19.507  0.00  0.00    +0.000 C 
ATOM     25  O   UNL     1       7.390   5.784  18.169  0.00  0.00    +0.000 OA
ENDBRANCH  16  25
ENDBRANCH  15  16
ENDBRANCH   1  15
TORSDOF 5
ENDMDL
MODEL 4
REMARK VINA RESULT:      -7.2      0.914      1.348
REMARK  Name = 
REMARK  6 active torsions:
REMARK  status: ('A' for Active; 'I' for Inactive)
REMARK    1  A    between atoms: C_1  and  O_2
REMARK    2  A    between atoms: O_2  and  C_3
REMARK    3  A    between atoms: C_3  and  C_4
REMARK    4  A    between atoms: C_3  and  C_18
REMARK    5  A    between atoms: C_4  and  C_5
REMARK    6  A    between atoms: C_9  and  C_10
REMARK                            x       y       z     vdW  Elec       q    Type
REMARK                         _______ _______ _______ _____ _____    ______ ____
ROOT
ATOM      1  C   UNL     1       3.116   4.046  19.187  0.00  0.00    +0.000 A 
ATOM      2  S   UNL     1       3.257   2.528  19.994  0.00  0.00    +0.000 S 
ATOM      3  C   UNL     1       2.496   3.188  21.374  0.00  0.00    +0.000 A 
ATOM      4  N   UNL     1       2.172   4.459  21.306  0.00  0.00    +0.000 NA
ATOM      5  C   UNL     1       2.518   4.971  20.044  0.00  0.00    +0.000 A 
ENDROOT
BRANCH   5   6
ATOM      6  C   UNL     1       2.253   6.388  19.732  0.00  0.00    +0.000 C 
ATOM      7  O   UNL     1       2.486   6.849  18.617  0.00  0.00    +0.000 OA
ATOM      8  N   UNL     1       1.770   7.090  20.810  0.00  0.00    +0.000 N 
ATOM      9  C   UNL     1       1.382   8.394  20.687  0.00  0.00    +0.000 A 
ATOM     10  N   UNL     1       1.280   9.107  19.591  0.00  0.00    +0.000 NA
ATOM     11  C   UNL     1       0.859  10.380  19.900  0.00  0.00    +0.000 A 
ATOM     12  C   UNL     1       0.663  10.627  21.242  0.00  0.00    +0.000 A 
ATOM     13  S   UNL     1       0.969   9.192  22.139  0.00  0.00    +0.000 S 
ATOM     14  H   UNL     1       1.714   6.631  21.710  0.00  0.00    +0.000 HD
ENDBRANCH   5   6
BRANCH   1  15
ATOM     15  C   UNL     1       3.685   4.204  17.793  0.00  0.00    +0.000 C 
BRANCH  15  16
ATOM     16  C   UNL     1       5.222   4.385  17.719  0.00  0.00    +0.000 C 
BRANCH  16  17
ATOM     17  C   UNL     1       5.752   4.436  16.295  0.00  0.00    +0.000 A 
ATOM     18  C   UNL     1       4.978   3.972  15.220  0.00  0.00    +0.000 A 
ATOM     19  C   UNL     1       5.479   4.014  13.914  0.00  0.00    +0.000 A 
ATOM     20  C   UNL     1       6.757   4.516  13.675  0.00  0.00    +0.000 A 
ATOM     21 CL   UNL     1       7.360   4.595  12.066  0.00  0.00    +0.000 Cl
ATOM     22  C   UNL     1       7.550   4.952  14.732  0.00  0.00    +0.000 A 
ATOM     23  C   UNL     1       7.051   4.907  16.034  0.00  0.00    +0.000 A 
ENDBRANCH  16  17
BRANCH  16  25
ATOM     24  C   UNL     1       6.574   5.475  19.393  0.00  0.00    +0.000 C 
ATOM     25  O   UNL     1       5.667   5.618  18.313  0.00  0.00    +0.000 OA
ENDBRANCH  16  25
ENDBRANCH  15  16
ENDBRANCH   1  15
TORSDOF 5
ENDMDL
MODEL 5
REMARK VINA RESULT:      -7.1      4.665      7.067
REMARK  Name = 
REMARK  6 active torsions:
REMARK  status: ('A' for Active; 'I' for Inactive)
REMARK    1  A    between atoms: C_1  and  O_2
REMARK    2  A    between atoms: O_2  and  C_3
REMARK    3  A    between atoms: C_3  and  C_4
REMARK    4  A    between atoms: C_3  and  C_18
REMARK    5  A    between atoms: C_4  and  C_5
REMARK    6  A    between atoms: C_9  and  C_10
REMARK                            x       y       z     vdW  Elec       q    Type
REMARK                         _______ _______ _______ _____ _____    ______ ____
ROOT
ATOM      1  C   UNL     1       5.552   6.017  16.514  0.00  0.00    +0.000 A 
ATOM      2  S   UNL     1       5.263   4.782  15.345  0.00  0.00    +0.000 S 
ATOM      3  C   UNL     1       6.903   4.313  15.430  0.00  0.00    +0.000 A 
ATOM      4  N   UNL     1       7.668   5.019  16.231  0.00  0.00    +0.000 NA
ATOM      5  C   UNL     1       6.902   6.007  16.871  0.00  0.00    +0.000 A 
ENDROOT
BRANCH   5   6
ATOM      6  C   UNL     1       7.547   6.932  17.821  0.00  0.00    +0.000 C 
ATOM      7  O   UNL     1       7.934   6.547  18.922  0.00  0.00    +0.000 OA
ATOM      8  N   UNL     1       7.618   8.220  17.345  0.00  0.00    +0.000 N 
ATOM      9  C   UNL     1       8.264   9.198  18.048  0.00  0.00    +0.000 A 
ATOM     10  N   UNL     1       8.984   9.068  19.137  0.00  0.00    +0.000 NA
ATOM     11  C   UNL     1       9.459  10.298  19.531  0.00  0.00    +0.000 A 
ATOM     12  C   UNL     1       9.073  11.360  18.741  0.00  0.00    +0.000 A 
ATOM     13  S   UNL     1       8.126  10.781  17.427  0.00  0.00    +0.000 S 
ATOM     14  H   UNL     1       7.174   8.444  16.465  0.00  0.00    +0.000 HD
ENDBRANCH   5   6
BRANCH   1  15
ATOM     15  C   UNL     1       4.423   6.941  16.915  0.00  0.00    +0.000 C 
BRANCH  15  16
ATOM     16  C   UNL     1       3.559   6.458  18.107  0.00  0.00    +0.000 C 
BRANCH  16  17
ATOM     17  C   UNL     1       2.625   7.530  18.645  0.00  0.00    +0.000 A 
ATOM     18  C   UNL     1       2.136   7.468  19.959  0.00  0.00    +0.000 A 
ATOM     19  C   UNL     1       1.268   8.454  20.441  0.00  0.00    +0.000 A 
ATOM     20  C   UNL     1       0.880   9.505  19.611  0.00  0.00    +0.000 A 
ATOM     21 CL   UNL     1      -0.163  10.734  20.214  0.00  0.00    +0.000 Cl
ATOM     22  C   UNL     1       1.331   9.566  18.296  0.00  0.00    +0.000 A 
ATOM     23  C   UNL     1       2.194   8.581  17.816  0.00  0.00    +0.000 A 
ENDBRANCH  16  17
BRANCH  16  25
ATOM     24  C   UNL     1       2.987   4.132  18.389  0.00  0.00    +0.000 C 
ATOM     25  O   UNL     1       2.690   5.365  17.757  0.00  0.00    +0.000 OA
ENDBRANCH  16  25
ENDBRANCH  15  16
ENDBRANCH   1  15
TORSDOF 5
ENDMDL
MODEL 6
REMARK VINA RESULT:      -6.7      3.993      7.395
REMARK  Name = 
REMARK  6 active torsions:
REMARK  status: ('A' for Active; 'I' for Inactive)
REMARK    1  A    between atoms: C_1  and  O_2
REMARK    2  A    between atoms: O_2  and  C_3
REMARK    3  A    between atoms: C_3  and  C_4
REMARK    4  A    between atoms: C_3  and  C_18
REMARK    5  A    between atoms: C_4  and  C_5
REMARK    6  A    between atoms: C_9  and  C_10
REMARK                            x       y       z     vdW  Elec       q    Type
REMARK                         _______ _______ _______ _____ _____    ______ ____
ROOT
ATOM      1  C   UNL     1       2.758   4.678  19.804  0.00  0.00    +0.000 A 
ATOM      2  S   UNL     1       1.970   4.171  21.253  0.00  0.00    +0.000 S 
ATOM      3  C   UNL     1       1.808   2.595  20.615  0.00  0.00    +0.000 A 
ATOM      4  N   UNL     1       2.258   2.412  19.395  0.00  0.00    +0.000 NA
ATOM      5  C   UNL     1       2.817   3.607  18.911  0.00  0.00    +0.000 A 
ENDROOT
BRANCH   5   6
ATOM      6  C   UNL     1       3.388   3.650  17.552  0.00  0.00    +0.000 C 
ATOM      7  O   UNL     1       2.720   3.332  16.570  0.00  0.00    +0.000 OA
ATOM      8  N   UNL     1       4.706   4.038  17.540  0.00  0.00    +0.000 N 
ATOM      9  C   UNL     1       5.377   4.224  16.364  0.00  0.00    +0.000 A 
ATOM     10  N   UNL     1       4.893   4.199  15.145  0.00  0.00    +0.000 NA
ATOM     11  C   UNL     1       5.902   4.429  14.238  0.00  0.00    +0.000 A 
ATOM     12  C   UNL     1       7.156   4.606  14.783  0.00  0.00    +0.000 A 
ATOM     13  S   UNL     1       7.050   4.535  16.498  0.00  0.00    +0.000 S 
ATOM     14  H   UNL     1       5.185   4.178  18.419  0.00  0.00    +0.000 HD
ENDBRANCH   5   6
BRANCH   1  15
ATOM     15  C   UNL     1       3.180   6.124  19.653  0.00  0.00    +0.000 C 
BRANCH  15  16
ATOM     16  C   UNL     1       2.202   7.023  18.856  0.00  0.00    +0.000 C 
BRANCH  16  17
ATOM     17  C   UNL     1       1.578   8.125  19.698  0.00  0.00    +0.000 A 
ATOM     18  C   UNL     1       1.306   7.926  21.060  0.00  0.00    +0.000 A 
ATOM     19  C   UNL     1       0.723   8.943  21.824  0.00  0.00    +0.000 A 
ATOM     20  C   UNL     1       0.403  10.162  21.229  0.00  0.00    +0.000 A 
ATOM     21 CL   UNL     1      -0.286  11.423  22.176  0.00  0.00    +0.000 Cl
ATOM     22  C   UNL     1       0.637  10.367  19.873  0.00  0.00    +0.000 A 
ATOM     23  C   UNL     1       1.217   9.351  19.112  0.00  0.00    +0.000 A 
ENDBRANCH  16  17
BRANCH  16  25
ATOM     24  C   UNL     1       4.175   7.318  17.502  0.00  0.00    +0.000 C 
ATOM     25  O   UNL     1       2.843   7.718  17.771  0.00  0.00    +0.000 OA
ENDBRANCH  16  25
ENDBRANCH  15  16
ENDBRANCH   1  15
TORSDOF 5
ENDMDL
MODEL 7
REMARK VINA RESULT:      -6.7      1.520      1.677
REMARK  Name = 
REMARK  6 active torsions:
REMARK  status: ('A' for Active; 'I' for Inactive)
REMARK    1  A    between atoms: C_1  and  O_2
REMARK    2  A    between atoms: O_2  and  C_3
REMARK    3  A    between atoms: C_3  and  C_4
REMARK    4  A    between atoms: C_3  and  C_18
REMARK    5  A    between atoms: C_4  and  C_5
REMARK    6  A    between atoms: C_9  and  C_10
REMARK                            x       y       z     vdW  Elec       q    Type
REMARK                         _______ _______ _______ _____ _____    ______ ____
ROOT
ATOM      1  C   UNL     1       3.783   6.267  18.239  0.00  0.00    +0.000 A 
ATOM      2  S   UNL     1       4.242   4.757  18.937  0.00  0.00    +0.000 S 
ATOM      3  C   UNL     1       2.992   4.907  20.091  0.00  0.00    +0.000 A 
ATOM      4  N   UNL     1       2.275   6.005  20.031  0.00  0.00    +0.000 NA
ATOM      5  C   UNL     1       2.715   6.803  18.961  0.00  0.00    +0.000 A 
ENDROOT
BRANCH   5   6
ATOM      6  C   UNL     1       2.060   8.097  18.695  0.00  0.00    +0.000 C 
ATOM      7  O   UNL     1       2.075   8.600  17.574  0.00  0.00    +0.000 OA
ATOM      8  N   UNL     1       1.493   8.648  19.820  0.00  0.00    +0.000 N 
ATOM      9  C   UNL     1       0.764   9.802  19.750  0.00  0.00    +0.000 A 
ATOM     10  N   UNL     1       0.391  10.458  18.678  0.00  0.00    +0.000 NA
ATOM     11  C   UNL     1      -0.327  11.574  19.040  0.00  0.00    +0.000 A 
ATOM     12  C   UNL     1      -0.477  11.764  20.398  0.00  0.00    +0.000 A 
ATOM     13  S   UNL     1       0.268  10.464  21.243  0.00  0.00    +0.000 S 
ATOM     14  H   UNL     1       1.630   8.193  20.712  0.00  0.00    +0.000 HD
ENDBRANCH   5   6
BRANCH   1  15
ATOM     15  C   UNL     1       4.579   6.824  17.079  0.00  0.00    +0.000 C 
BRANCH  15  16
ATOM     16  C   UNL     1       5.998   6.228  16.898  0.00  0.00    +0.000 C 
BRANCH  16  17
ATOM     17  C   UNL     1       6.144   5.403  15.629  0.00  0.00    +0.000 A 
ATOM     18  C   UNL     1       7.296   5.502  14.833  0.00  0.00    +0.000 A 
ATOM     19  C   UNL     1       7.417   4.747  13.661  0.00  0.00    +0.000 A 
ATOM     20  C   UNL     1       6.385   3.893  13.275  0.00  0.00    +0.000 A 
ATOM     21 CL   UNL     1       6.547   2.943  11.850  0.00  0.00    +0.000 Cl
ATOM     22  C   UNL     1       5.223   3.806  14.035  0.00  0.00    +0.000 A 
ATOM     23  C   UNL     1       5.103   4.561  15.202  0.00  0.00    +0.000 A 
ENDBRANCH  16  17
BRANCH  16  25
ATOM     24  C   UNL     1       7.797   7.435  17.957  0.00  0.00    +0.000 C 
ATOM     25  O   UNL     1       7.017   7.238  16.791  0.00  0.00    +0.000 OA
ENDBRANCH  16  25
ENDBRANCH  15  16
ENDBRANCH   1  15
TORSDOF 5
ENDMDL
MODEL 8
REMARK VINA RESULT:      -6.6      3.924      7.226
REMARK  Name = 
REMARK  6 active torsions:
REMARK  status: ('A' for Active; 'I' for Inactive)
REMARK    1  A    between atoms: C_1  and  O_2
REMARK    2  A    between atoms: O_2  and  C_3
REMARK    3  A    between atoms: C_3  and  C_4
REMARK    4  A    between atoms: C_3  and  C_18
REMARK    5  A    between atoms: C_4  and  C_5
REMARK    6  A    between atoms: C_9  and  C_10
REMARK                            x       y       z     vdW  Elec       q    Type
REMARK                         _______ _______ _______ _____ _____    ______ ____
ROOT
ATOM      1  C   UNL     1       2.776   4.528  19.831  0.00  0.00    +0.000 A 
ATOM      2  S   UNL     1       1.998   4.003  21.278  0.00  0.00    +0.000 S 
ATOM      3  C   UNL     1       1.836   2.433  20.624  0.00  0.00    +0.000 A 
ATOM      4  N   UNL     1       2.279   2.265  19.400  0.00  0.00    +0.000 NA
ATOM      5  C   UNL     1       2.833   3.467  18.926  0.00  0.00    +0.000 A 
ENDROOT
BRANCH   5   6
ATOM      6  C   UNL     1       3.396   3.526  17.565  0.00  0.00    +0.000 C 
ATOM      7  O   UNL     1       2.734   3.188  16.586  0.00  0.00    +0.000 OA
ATOM      8  N   UNL     1       4.702   3.953  17.547  0.00  0.00    +0.000 N 
ATOM      9  C   UNL     1       5.362   4.158  16.367  0.00  0.00    +0.000 A 
ATOM     10  N   UNL     1       4.874   4.118  15.151  0.00  0.00    +0.000 NA
ATOM     11  C   UNL     1       5.871   4.377  14.239  0.00  0.00    +0.000 A 
ATOM     12  C   UNL     1       7.122   4.591  14.778  0.00  0.00    +0.000 A 
ATOM     13  S   UNL     1       7.026   4.518  16.494  0.00  0.00    +0.000 S 
ATOM     14  H   UNL     1       5.181   4.107  18.424  0.00  0.00    +0.000 HD
ENDBRANCH   5   6
BRANCH   1  15
ATOM     15  C   UNL     1       3.193   5.977  19.693  0.00  0.00    +0.000 C 
BRANCH  15  16
ATOM     16  C   UNL     1       2.309   6.837  18.755  0.00  0.00    +0.000 C 
BRANCH  16  17
ATOM     17  C   UNL     1       1.736   8.070  19.436  0.00  0.00    +0.000 A 
ATOM     18  C   UNL     1       1.454   9.233  18.703  0.00  0.00    +0.000 A 
ATOM     19  C   UNL     1       0.937  10.366  19.340  0.00  0.00    +0.000 A 
ATOM     20  C   UNL     1       0.702  10.345  20.714  0.00  0.00    +0.000 A 
ATOM     21 CL   UNL     1       0.037  11.728  21.491  0.00  0.00    +0.000 Cl
ATOM     22  C   UNL     1       1.004   9.211  21.461  0.00  0.00    +0.000 A 
ATOM     23  C   UNL     1       1.523   8.083  20.825  0.00  0.00    +0.000 A 
ENDBRANCH  16  17
BRANCH  16  25
ATOM     24  C   UNL     1       4.448   7.282  17.732  0.00  0.00    +0.000 C 
ATOM     25  O   UNL     1       3.036   7.354  17.626  0.00  0.00    +0.000 OA
ENDBRANCH  16  25
ENDBRANCH  15  16
ENDBRANCH   1  15
TORSDOF 5
ENDMDL
MODEL 9
REMARK VINA RESULT:      -6.6      3.942      7.395
REMARK  Name = 
REMARK  6 active torsions:
REMARK  status: ('A' for Active; 'I' for Inactive)
REMARK    1  A    between atoms: C_1  and  O_2
REMARK    2  A    between atoms: O_2  and  C_3
REMARK    3  A    between atoms: C_3  and  C_4
REMARK    4  A    between atoms: C_3  and  C_18
REMARK    5  A    between atoms: C_4  and  C_5
REMARK    6  A    between atoms: C_9  and  C_10
REMARK                            x       y       z     vdW  Elec       q    Type
REMARK                         _______ _______ _______ _____ _____    ______ ____
ROOT
ATOM      1  C   UNL     1       2.293   4.161  19.894  0.00  0.00    +0.000 A 
ATOM      2  S   UNL     1       0.862   3.261  20.239  0.00  0.00    +0.000 S 
ATOM      3  C   UNL     1       1.441   1.969  19.284  0.00  0.00    +0.000 A 
ATOM      4  N   UNL     1       2.599   2.155  18.694  0.00  0.00    +0.000 NA
ATOM      5  C   UNL     1       3.110   3.418  19.040  0.00  0.00    +0.000 A 
ENDROOT
BRANCH   5   6
ATOM      6  C   UNL     1       4.407   3.858  18.492  0.00  0.00    +0.000 C 
ATOM      7  O   UNL     1       5.357   4.111  19.229  0.00  0.00    +0.000 OA
ATOM      8  N   UNL     1       4.394   3.974  17.122  0.00  0.00    +0.000 N 
ATOM      9  C   UNL     1       5.531   4.282  16.429  0.00  0.00    +0.000 A 
ATOM     10  N   UNL     1       6.755   4.380  16.888  0.00  0.00    +0.000 NA
ATOM     11  C   UNL     1       7.612   4.714  15.865  0.00  0.00    +0.000 A 
ATOM     12  C   UNL     1       7.019   4.887  14.632  0.00  0.00    +0.000 A 
ATOM     13  S   UNL     1       5.334   4.565  14.757  0.00  0.00    +0.000 S 
ATOM     14  H   UNL     1       3.524   3.838  16.626  0.00  0.00    +0.000 HD
ENDBRANCH   5   6
BRANCH   1  15
ATOM     15  C   UNL     1       2.440   5.564  20.442  0.00  0.00    +0.000 C 
BRANCH  15  16
ATOM     16  C   UNL     1       2.289   6.704  19.403  0.00  0.00    +0.000 C 
BRANCH  16  17
ATOM     17  C   UNL     1       1.667   7.964  19.983  0.00  0.00    +0.000 A 
ATOM     18  C   UNL     1       1.336   9.050  19.157  0.00  0.00    +0.000 A 
ATOM     19  C   UNL     1       0.774  10.210  19.702  0.00  0.00    +0.000 A 
ATOM     20  C   UNL     1       0.545  10.293  21.074  0.00  0.00    +0.000 A 
ATOM     21 CL   UNL     1      -0.175  11.708  21.739  0.00  0.00    +0.000 Cl
ATOM     22  C   UNL     1       0.895   9.239  21.911  0.00  0.00    +0.000 A 
ATOM     23  C   UNL     1       1.458   8.084  21.367  0.00  0.00    +0.000 A 
ENDBRANCH  16  17
BRANCH  16  25
ATOM     24  C   UNL     1       3.590   7.285  17.457  0.00  0.00    +0.000 C 
ATOM     25  O   UNL     1       3.552   7.139  18.866  0.00  0.00    +0.000 OA
ENDBRANCH  16  25
ENDBRANCH  15  16
ENDBRANCH   1  15
TORSDOF 5
ENDMDL
