MODEL 1
REMARK VINA RESULT:      -8.2      0.000      0.000
REMARK  Name = 
REMARK  8 active torsions:
REMARK  status: ('A' for Active; 'I' for Inactive)
REMARK    1  A    between atoms: C_2  and  C_3
REMARK    2  A    between atoms: C_2  and  C_22
REMARK    3  A    between atoms: C_3  and  C_4
REMARK    4  A    between atoms: C_4  and  C_5
REMARK    5  A    between atoms: C_5  and  C_6
REMARK    6  A    between atoms: C_10  and  C_12
REMARK    7  A    between atoms: C_12  and  C_13
REMARK    8  A    between atoms: C_13  and  C_14
REMARK                            x       y       z     vdW  Elec       q    Type
REMARK                         _______ _______ _______ _____ _____    ______ ____
ROOT
ATOM      1  C   UNL     1       2.866   5.138  19.242  0.00  0.00    +0.000 C 
ATOM      2  C   UNL     1       2.787   5.826  17.867  0.00  0.00    +0.000 C 
ATOM      3  C   UNL     1       3.092   7.315  17.972  0.00  0.00    +0.000 C 
ATOM      4  N   UNL     1       2.154   7.953  18.886  0.00  0.00    +0.000 N 
ATOM      5  C   UNL     1       1.595   9.158  18.486  0.00  0.00    +0.000 C 
ATOM      6  O   UNL     1       1.927   9.706  17.429  0.00  0.00    +0.000 OA
ATOM      7  C   UNL     1       2.089   7.378  20.238  0.00  0.00    +0.000 C 
ATOM      8  C   UNL     1       1.896   5.856  20.200  0.00  0.00    +0.000 C 
ENDROOT
BRANCH   1   9
ATOM      9  C   UNL     1       4.333   5.092  19.723  0.00  0.00    +0.000 C 
BRANCH   9  10
ATOM     10  C   UNL     1       5.341   4.431  18.787  0.00  0.00    +0.000 C 
BRANCH  10  11
ATOM     11  C   UNL     1       6.397   5.373  18.209  0.00  0.00    +0.000 C 
BRANCH  11  13
ATOM     12  O   UNL     1       8.404   4.113  17.790  0.00  0.00    +0.000 OA
ATOM     13  C   UNL     1       7.374   4.604  17.324  0.00  0.00    +0.000 C 
BRANCH  13  14
ATOM     14  C   UNL     1       7.001   4.493  15.928  0.00  0.00    +0.000 A 
ATOM     15  N   UNL     1       6.123   3.654  15.405  0.00  0.00    +0.000 NA
ATOM     16  C   UNL     1       6.158   3.942  14.062  0.00  0.00    +0.000 A 
ATOM     17  C   UNL     1       7.066   4.941  13.820  0.00  0.00    +0.000 A 
ATOM     18  O   UNL     1       7.610   5.310  15.010  0.00  0.00    +0.000 OA
ENDBRANCH  13  14
ENDBRANCH  11  13
ENDBRANCH  10  11
ENDBRANCH   9  10
ENDBRANCH   1   9
BRANCH   5  19
ATOM     19  C   UNL     1       0.551   9.791  19.375  0.00  0.00    +0.000 C 
BRANCH  19  20
ATOM     20  C   UNL     1       0.026  11.071  18.723  0.00  0.00    +0.000 C 
BRANCH  20  21
ATOM     21  C   UNL     1      -1.403  10.913  18.281  0.00  0.00    +0.000 A 
ATOM     22  C   UNL     1      -1.732   9.990  17.281  0.00  0.00    +0.000 A 
ATOM     23  C   UNL     1      -3.050   9.867  16.845  0.00  0.00    +0.000 A 
ATOM     24  C   UNL     1      -4.047  10.668  17.402  0.00  0.00    +0.000 A 
ATOM     25  C   UNL     1      -3.726  11.591  18.397  0.00  0.00    +0.000 A 
ATOM     26  C   UNL     1      -2.409  11.714  18.836  0.00  0.00    +0.000 A 
ENDBRANCH  20  21
ENDBRANCH  19  20
ENDBRANCH   5  19
TORSDOF 8
ENDMDL
MODEL 2
REMARK VINA RESULT:      -7.5      5.392      7.796
REMARK  Name = 
REMARK  8 active torsions:
REMARK  status: ('A' for Active; 'I' for Inactive)
REMARK    1  A    between atoms: C_2  and  C_3
REMARK    2  A    between atoms: C_2  and  C_22
REMARK    3  A    between atoms: C_3  and  C_4
REMARK    4  A    between atoms: C_4  and  C_5
REMARK    5  A    between atoms: C_5  and  C_6
REMARK    6  A    between atoms: C_10  and  C_12
REMARK    7  A    between atoms: C_12  and  C_13
REMARK    8  A    between atoms: C_13  and  C_14
REMARK                            x       y       z     vdW  Elec       q    Type
REMARK                         _______ _______ _______ _____ _____    ______ ____
ROOT
ATOM      1  C   UNL     1       7.520   6.159  18.418  0.00  0.00    +0.000 C 
ATOM      2  C   UNL     1       7.801   5.143  17.295  0.00  0.00    +0.000 C 
ATOM      3  C   UNL     1       6.701   5.160  16.240  0.00  0.00    +0.000 C 
ATOM      4  N   UNL     1       5.416   4.857  16.856  0.00  0.00    +0.000 N 
ATOM      5  C   UNL     1       4.593   3.953  16.199  0.00  0.00    +0.000 C 
ATOM      6  O   UNL     1       4.904   3.475  15.102  0.00  0.00    +0.000 OA
ATOM      7  C   UNL     1       5.024   5.724  17.977  0.00  0.00    +0.000 C 
ATOM      8  C   UNL     1       6.138   5.841  19.024  0.00  0.00    +0.000 C 
ENDROOT
BRANCH   1   9
ATOM      9  C   UNL     1       7.671   7.596  17.875  0.00  0.00    +0.000 C 
BRANCH   9  10
ATOM     10  C   UNL     1       8.622   8.518  18.634  0.00  0.00    +0.000 C 
BRANCH  10  11
ATOM     11  C   UNL     1       8.643   9.965  18.144  0.00  0.00    +0.000 C 
BRANCH  11  13
ATOM     12  O   UNL     1       9.520  10.684  20.267  0.00  0.00    +0.000 OA
ATOM     13  C   UNL     1       9.529  10.823  19.042  0.00  0.00    +0.000 C 
BRANCH  13  14
ATOM     14  C   UNL     1      10.370  11.786  18.358  0.00  0.00    +0.000 A 
ATOM     15  N   UNL     1      11.682  11.729  18.207  0.00  0.00    +0.000 NA
ATOM     16  C   UNL     1      11.980  12.877  17.513  0.00  0.00    +0.000 A 
ATOM     17  C   UNL     1      10.835  13.593  17.278  0.00  0.00    +0.000 A 
ATOM     18  O   UNL     1       9.791  12.901  17.808  0.00  0.00    +0.000 OA
ENDBRANCH  13  14
ENDBRANCH  11  13
ENDBRANCH  10  11
ENDBRANCH   9  10
ENDBRANCH   1   9
BRANCH   5  19
ATOM     19  C   UNL     1       3.298   3.553  16.864  0.00  0.00    +0.000 C 
BRANCH  19  20
ATOM     20  C   UNL     1       3.564   2.449  17.888  0.00  0.00    +0.000 C 
BRANCH  20  21
ATOM     21  C   UNL     1       2.781   2.676  19.152  0.00  0.00    +0.000 A 
ATOM     22  C   UNL     1       3.395   2.509  20.400  0.00  0.00    +0.000 A 
ATOM     23  C   UNL     1       2.661   2.684  21.572  0.00  0.00    +0.000 A 
ATOM     24  C   UNL     1       1.310   3.023  21.506  0.00  0.00    +0.000 A 
ATOM     25  C   UNL     1       0.691   3.188  20.267  0.00  0.00    +0.000 A 
ATOM     26  C   UNL     1       1.423   3.015  19.094  0.00  0.00    +0.000 A 
ENDBRANCH  20  21
ENDBRANCH  19  20
ENDBRANCH   5  19
TORSDOF 8
ENDMDL
MODEL 3
REMARK VINA RESULT:      -7.3      4.689      6.813
REMARK  Name = 
REMARK  8 active torsions:
REMARK  status: ('A' for Active; 'I' for Inactive)
REMARK    1  A    between atoms: C_2  and  C_3
REMARK    2  A    between atoms: C_2  and  C_22
REMARK    3  A    between atoms: C_3  and  C_4
REMARK    4  A    between atoms: C_4  and  C_5
REMARK    5  A    between atoms: C_5  and  C_6
REMARK    6  A    between atoms: C_10  and  C_12
REMARK    7  A    between atoms: C_12  and  C_13
REMARK    8  A    between atoms: C_13  and  C_14
REMARK                            x       y       z     vdW  Elec       q    Type
REMARK                         _______ _______ _______ _____ _____    ______ ____
ROOT
ATOM      1  C   UNL     1       7.863   5.854  18.261  0.00  0.00    +0.000 C 
ATOM      2  C   UNL     1       7.460   4.962  17.072  0.00  0.00    +0.000 C 
ATOM      3  C   UNL     1       5.960   5.031  16.809  0.00  0.00    +0.000 C 
ATOM      4  N   UNL     1       5.226   4.614  17.996  0.00  0.00    +0.000 N 
ATOM      5  C   UNL     1       4.163   3.742  17.814  0.00  0.00    +0.000 C 
ATOM      6  O   UNL     1       3.807   3.384  16.686  0.00  0.00    +0.000 OA
ATOM      7  C   UNL     1       5.534   5.355  19.229  0.00  0.00    +0.000 C 
ATOM      8  C   UNL     1       7.044   5.420  19.492  0.00  0.00    +0.000 C 
ENDROOT
BRANCH   1   9
ATOM      9  C   UNL     1       7.713   7.341  17.876  0.00  0.00    +0.000 C 
BRANCH   9  10
ATOM     10  C   UNL     1       8.573   8.339  18.646  0.00  0.00    +0.000 C 
BRANCH  10  11
ATOM     11  C   UNL     1       8.545   9.767  18.103  0.00  0.00    +0.000 C 
BRANCH  11  13
ATOM     12  O   UNL     1       9.191  10.637  20.252  0.00  0.00    +0.000 OA
ATOM     13  C   UNL     1       9.312  10.708  19.027  0.00  0.00    +0.000 C 
BRANCH  13  14
ATOM     14  C   UNL     1      10.182  11.662  18.369  0.00  0.00    +0.000 A 
ATOM     15  N   UNL     1      11.487  11.551  18.182  0.00  0.00    +0.000 NA
ATOM     16  C   UNL     1      11.823  12.717  17.536  0.00  0.00    +0.000 A 
ATOM     17  C   UNL     1      10.709  13.497  17.365  0.00  0.00    +0.000 A 
ATOM     18  O   UNL     1       9.645  12.829  17.888  0.00  0.00    +0.000 OA
ENDBRANCH  13  14
ENDBRANCH  11  13
ENDBRANCH  10  11
ENDBRANCH   9  10
ENDBRANCH   1   9
BRANCH   5  19
ATOM     19  C   UNL     1       3.446   3.225  19.039  0.00  0.00    +0.000 C 
BRANCH  19  20
ATOM     20  C   UNL     1       2.007   3.744  19.051  0.00  0.00    +0.000 C 
BRANCH  20  21
ATOM     21  C   UNL     1       1.967   5.237  19.229  0.00  0.00    +0.000 A 
ATOM     22  C   UNL     1       2.120   6.083  18.124  0.00  0.00    +0.000 A 
ATOM     23  C   UNL     1       2.119   7.467  18.293  0.00  0.00    +0.000 A 
ATOM     24  C   UNL     1       1.970   8.014  19.567  0.00  0.00    +0.000 A 
ATOM     25  C   UNL     1       1.820   7.179  20.673  0.00  0.00    +0.000 A 
ATOM     26  C   UNL     1       1.819   5.795  20.506  0.00  0.00    +0.000 A 
ENDBRANCH  20  21
ENDBRANCH  19  20
ENDBRANCH   5  19
TORSDOF 8
ENDMDL
MODEL 4
REMARK VINA RESULT:      -7.3      0.481      1.075
REMARK  Name = 
REMARK  8 active torsions:
REMARK  status: ('A' for Active; 'I' for Inactive)
REMARK    1  A    between atoms: C_2  and  C_3
REMARK    2  A    between atoms: C_2  and  C_22
REMARK    3  A    between atoms: C_3  and  C_4
REMARK    4  A    between atoms: C_4  and  C_5
REMARK    5  A    between atoms: C_5  and  C_6
REMARK    6  A    between atoms: C_10  and  C_12
REMARK    7  A    between atoms: C_12  and  C_13
REMARK    8  A    between atoms: C_13  and  C_14
REMARK                            x       y       z     vdW  Elec       q    Type
REMARK                         _______ _______ _______ _____ _____    ______ ____
ROOT
ATOM      1  C   UNL     1       2.519   5.090  19.469  0.00  0.00    +0.000 C 
ATOM      2  C   UNL     1       2.468   5.717  18.063  0.00  0.00    +0.000 C 
ATOM      3  C   UNL     1       2.904   7.177  18.089  0.00  0.00    +0.000 C 
ATOM      4  N   UNL     1       2.046   7.937  18.988  0.00  0.00    +0.000 N 
ATOM      5  C   UNL     1       1.585   9.167  18.540  0.00  0.00    +0.000 C 
ATOM      6  O   UNL     1       1.938   9.632  17.452  0.00  0.00    +0.000 OA
ATOM      7  C   UNL     1       1.963   7.434  20.368  0.00  0.00    +0.000 C 
ATOM      8  C   UNL     1       1.638   5.936  20.408  0.00  0.00    +0.000 C 
ENDROOT
BRANCH   1   9
ATOM      9  C   UNL     1       3.987   4.939  19.923  0.00  0.00    +0.000 C 
BRANCH   9  10
ATOM     10  C   UNL     1       5.058   5.448  18.962  0.00  0.00    +0.000 C 
BRANCH  10  11
ATOM     11  C   UNL     1       5.892   4.357  18.291  0.00  0.00    +0.000 C 
BRANCH  11  13
ATOM     12  O   UNL     1       7.851   5.672  17.815  0.00  0.00    +0.000 OA
ATOM     13  C   UNL     1       6.939   4.974  17.368  0.00  0.00    +0.000 C 
BRANCH  13  14
ATOM     14  C   UNL     1       6.785   4.676  15.958  0.00  0.00    +0.000 A 
ATOM     15  N   UNL     1       6.014   3.745  15.422  0.00  0.00    +0.000 NA
ATOM     16  C   UNL     1       6.247   3.866  14.073  0.00  0.00    +0.000 A 
ATOM     17  C   UNL     1       7.161   4.861  13.842  0.00  0.00    +0.000 A 
ATOM     18  O   UNL     1       7.510   5.396  15.043  0.00  0.00    +0.000 OA
ENDBRANCH  13  14
ENDBRANCH  11  13
ENDBRANCH  10  11
ENDBRANCH   9  10
ENDBRANCH   1   9
BRANCH   5  19
ATOM     19  C   UNL     1       0.620   9.929  19.417  0.00  0.00    +0.000 C 
BRANCH  19  20
ATOM     20  C   UNL     1       0.103  11.158  18.667  0.00  0.00    +0.000 C 
BRANCH  20  21
ATOM     21  C   UNL     1      -1.350  11.008  18.310  0.00  0.00    +0.000 A 
ATOM     22  C   UNL     1      -2.312  11.832  18.909  0.00  0.00    +0.000 A 
ATOM     23  C   UNL     1      -3.662  11.670  18.606  0.00  0.00    +0.000 A 
ATOM     24  C   UNL     1      -4.062  10.681  17.707  0.00  0.00    +0.000 A 
ATOM     25  C   UNL     1      -3.112   9.856  17.108  0.00  0.00    +0.000 A 
ATOM     26  C   UNL     1      -1.760  10.017  17.408  0.00  0.00    +0.000 A 
ENDBRANCH  20  21
ENDBRANCH  19  20
ENDBRANCH   5  19
TORSDOF 8
ENDMDL
MODEL 5
REMARK VINA RESULT:      -7.1      4.257      6.826
REMARK  Name = 
REMARK  8 active torsions:
REMARK  status: ('A' for Active; 'I' for Inactive)
REMARK    1  A    between atoms: C_2  and  C_3
REMARK    2  A    between atoms: C_2  and  C_22
REMARK    3  A    between atoms: C_3  and  C_4
REMARK    4  A    between atoms: C_4  and  C_5
REMARK    5  A    between atoms: C_5  and  C_6
REMARK    6  A    between atoms: C_10  and  C_12
REMARK    7  A    between atoms: C_12  and  C_13
REMARK    8  A    between atoms: C_13  and  C_14
REMARK                            x       y       z     vdW  Elec       q    Type
REMARK                         _______ _______ _______ _____ _____    ______ ____
ROOT
ATOM      1  C   UNL     1       7.799   5.746  18.076  0.00  0.00    +0.000 C 
ATOM      2  C   UNL     1       7.496   4.456  17.292  0.00  0.00    +0.000 C 
ATOM      3  C   UNL     1       6.010   4.329  16.980  0.00  0.00    +0.000 C 
ATOM      4  N   UNL     1       5.239   4.335  18.217  0.00  0.00    +0.000 N 
ATOM      5  C   UNL     1       4.229   3.393  18.342  0.00  0.00    +0.000 C 
ATOM      6  O   UNL     1       3.946   2.622  17.418  0.00  0.00    +0.000 OA
ATOM      7  C   UNL     1       5.452   5.495  19.096  0.00  0.00    +0.000 C 
ATOM      8  C   UNL     1       6.942   5.747  19.357  0.00  0.00    +0.000 C 
ENDROOT
BRANCH   1   9
ATOM      9  C   UNL     1       7.596   6.975  17.163  0.00  0.00    +0.000 C 
BRANCH   9  10
ATOM     10  C   UNL     1       7.443   8.326  17.856  0.00  0.00    +0.000 C 
BRANCH  10  11
ATOM     11  C   UNL     1       8.709   8.851  18.530  0.00  0.00    +0.000 C 
BRANCH  11  13
ATOM     12  O   UNL     1       8.135  10.958  17.519  0.00  0.00    +0.000 OA
ATOM     13  C   UNL     1       8.831  10.360  18.342  0.00  0.00    +0.000 C 
BRANCH  13  14
ATOM     14  C   UNL     1       9.800  11.022  19.192  0.00  0.00    +0.000 A 
ATOM     15  N   UNL     1       9.629  11.398  20.449  0.00  0.00    +0.000 NA
ATOM     16  C   UNL     1      10.827  11.986  20.779  0.00  0.00    +0.000 A 
ATOM     17  C   UNL     1      11.678  11.952  19.704  0.00  0.00    +0.000 A 
ATOM     18  O   UNL     1      11.036  11.329  18.680  0.00  0.00    +0.000 OA
ENDBRANCH  13  14
ENDBRANCH  11  13
ENDBRANCH  10  11
ENDBRANCH   9  10
ENDBRANCH   1   9
BRANCH   5  19
ATOM     19  C   UNL     1       3.479   3.320  19.650  0.00  0.00    +0.000 C 
BRANCH  19  20
ATOM     20  C   UNL     1       2.057   3.850  19.460  0.00  0.00    +0.000 C 
BRANCH  20  21
ATOM     21  C   UNL     1       2.037   5.353  19.410  0.00  0.00    +0.000 A 
ATOM     22  C   UNL     1       1.841   6.094  20.583  0.00  0.00    +0.000 A 
ATOM     23  C   UNL     1       1.786   7.485  20.533  0.00  0.00    +0.000 A 
ATOM     24  C   UNL     1       1.922   8.146  19.313  0.00  0.00    +0.000 A 
ATOM     25  C   UNL     1       2.115   7.416  18.141  0.00  0.00    +0.000 A 
ATOM     26  C   UNL     1       2.172   6.024  18.188  0.00  0.00    +0.000 A 
ENDBRANCH  20  21
ENDBRANCH  19  20
ENDBRANCH   5  19
TORSDOF 8
ENDMDL
MODEL 6
REMARK VINA RESULT:      -7.1      2.579      3.445
REMARK  Name = 
REMARK  8 active torsions:
REMARK  status: ('A' for Active; 'I' for Inactive)
REMARK    1  A    between atoms: C_2  and  C_3
REMARK    2  A    between atoms: C_2  and  C_22
REMARK    3  A    between atoms: C_3  and  C_4
REMARK    4  A    between atoms: C_4  and  C_5
REMARK    5  A    between atoms: C_5  and  C_6
REMARK    6  A    between atoms: C_10  and  C_12
REMARK    7  A    between atoms: C_12  and  C_13
REMARK    8  A    between atoms: C_13  and  C_14
REMARK                            x       y       z     vdW  Elec       q    Type
REMARK                         _______ _______ _______ _____ _____    ______ ____
ROOT
ATOM      1  C   UNL     1       2.462   3.966  18.627  0.00  0.00    +0.000 C 
ATOM      2  C   UNL     1       1.874   5.102  17.770  0.00  0.00    +0.000 C 
ATOM      3  C   UNL     1       2.473   6.451  18.146  0.00  0.00    +0.000 C 
ATOM      4  N   UNL     1       2.226   6.731  19.554  0.00  0.00    +0.000 N 
ATOM      5  C   UNL     1       1.789   8.007  19.882  0.00  0.00    +0.000 C 
ATOM      6  O   UNL     1       1.678   8.892  19.027  0.00  0.00    +0.000 OA
ATOM      7  C   UNL     1       2.701   5.711  20.501  0.00  0.00    +0.000 C 
ATOM      8  C   UNL     1       2.223   4.307  20.111  0.00  0.00    +0.000 C 
ENDROOT
BRANCH   1   9
ATOM      9  C   UNL     1       3.940   3.733  18.248  0.00  0.00    +0.000 C 
BRANCH   9  10
ATOM     10  C   UNL     1       4.375   4.203  16.862  0.00  0.00    +0.000 C 
BRANCH  10  11
ATOM     11  C   UNL     1       5.597   3.486  16.293  0.00  0.00    +0.000 C 
BRANCH  11  13
ATOM     12  O   UNL     1       7.118   4.580  14.781  0.00  0.00    +0.000 OA
ATOM     13  C   UNL     1       6.689   4.490  15.934  0.00  0.00    +0.000 C 
BRANCH  13  14
ATOM     14  C   UNL     1       7.166   5.316  17.025  0.00  0.00    +0.000 A 
ATOM     15  N   UNL     1       7.428   6.611  16.985  0.00  0.00    +0.000 NA
ATOM     16  C   UNL     1       7.861   6.895  18.258  0.00  0.00    +0.000 A 
ATOM     17  C   UNL     1       7.854   5.756  19.021  0.00  0.00    +0.000 A 
ATOM     18  O   UNL     1       7.402   4.734  18.245  0.00  0.00    +0.000 OA
ENDBRANCH  13  14
ENDBRANCH  11  13
ENDBRANCH  10  11
ENDBRANCH   9  10
ENDBRANCH   1   9
BRANCH   5  19
ATOM     19  C   UNL     1       1.438   8.292  21.323  0.00  0.00    +0.000 C 
BRANCH  19  20
ATOM     20  C   UNL     1      -0.065   8.547  21.446  0.00  0.00    +0.000 C 
BRANCH  20  21
ATOM     21  C   UNL     1      -0.350   9.988  21.771  0.00  0.00    +0.000 A 
ATOM     22  C   UNL     1       0.105  11.005  20.923  0.00  0.00    +0.000 A 
ATOM     23  C   UNL     1      -0.126  12.342  21.242  0.00  0.00    +0.000 A 
ATOM     24  C   UNL     1      -0.809  12.672  22.412  0.00  0.00    +0.000 A 
ATOM     25  C   UNL     1      -1.263  11.665  23.263  0.00  0.00    +0.000 A 
ATOM     26  C   UNL     1      -1.034  10.328  22.946  0.00  0.00    +0.000 A 
ENDBRANCH  20  21
ENDBRANCH  19  20
ENDBRANCH   5  19
TORSDOF 8
ENDMDL
MODEL 7
REMARK VINA RESULT:      -7.1      2.401      3.369
REMARK  Name = 
REMARK  8 active torsions:
REMARK  status: ('A' for Active; 'I' for Inactive)
REMARK    1  A    between atoms: C_2  and  C_3
REMARK    2  A    between atoms: C_2  and  C_22
REMARK    3  A    between atoms: C_3  and  C_4
REMARK    4  A    between atoms: C_4  and  C_5
REMARK    5  A    between atoms: C_5  and  C_6
REMARK    6  A    between atoms: C_10  and  C_12
REMARK    7  A    between atoms: C_12  and  C_13
REMARK    8  A    between atoms: C_13  and  C_14
REMARK                            x       y       z     vdW  Elec       q    Type
REMARK                         _______ _______ _______ _____ _____    ______ ____
ROOT
ATOM      1  C   UNL     1       1.999   3.765  18.838  0.00  0.00    +0.000 C 
ATOM      2  C   UNL     1       1.735   4.976  17.924  0.00  0.00    +0.000 C 
ATOM      3  C   UNL     1       2.468   6.217  18.418  0.00  0.00    +0.000 C 
ATOM      4  N   UNL     1       2.047   6.536  19.776  0.00  0.00    +0.000 N 
ATOM      5  C   UNL     1       1.764   7.865  20.059  0.00  0.00    +0.000 C 
ATOM      6  O   UNL     1       1.927   8.754  19.217  0.00  0.00    +0.000 OA
ATOM      7  C   UNL     1       2.204   5.457  20.763  0.00  0.00    +0.000 C 
ATOM      8  C   UNL     1       1.584   4.142  20.273  0.00  0.00    +0.000 C 
ENDROOT
BRANCH   1   9
ATOM      9  C   UNL     1       3.465   3.305  18.689  0.00  0.00    +0.000 C 
BRANCH   9  10
ATOM     10  C   UNL     1       3.958   3.032  17.271  0.00  0.00    +0.000 C 
BRANCH  10  11
ATOM     11  C   UNL     1       4.491   4.256  16.527  0.00  0.00    +0.000 C 
BRANCH  11  13
ATOM     12  O   UNL     1       6.599   3.594  15.571  0.00  0.00    +0.000 OA
ATOM     13  C   UNL     1       6.015   4.220  16.459  0.00  0.00    +0.000 C 
BRANCH  13  14
ATOM     14  C   UNL     1       6.707   4.969  17.489  0.00  0.00    +0.000 A 
ATOM     15  N   UNL     1       6.768   4.678  18.777  0.00  0.00    +0.000 NA
ATOM     16  C   UNL     1       7.518   5.701  19.306  0.00  0.00    +0.000 A 
ATOM     17  C   UNL     1       7.877   6.581  18.317  0.00  0.00    +0.000 A 
ATOM     18  O   UNL     1       7.369   6.120  17.143  0.00  0.00    +0.000 OA
ENDBRANCH  13  14
ENDBRANCH  11  13
ENDBRANCH  10  11
ENDBRANCH   9  10
ENDBRANCH   1   9
BRANCH   5  19
ATOM     19  C   UNL     1       1.237   8.205  21.433  0.00  0.00    +0.000 C 
BRANCH  19  20
ATOM     20  C   UNL     1      -0.264   8.485  21.355  0.00  0.00    +0.000 C 
BRANCH  20  21
ATOM     21  C   UNL     1      -0.559   9.945  21.560  0.00  0.00    +0.000 A 
ATOM     22  C   UNL     1      -0.829  10.436  22.843  0.00  0.00    +0.000 A 
ATOM     23  C   UNL     1      -1.137  11.782  23.030  0.00  0.00    +0.000 A 
ATOM     24  C   UNL     1      -1.182  12.646  21.936  0.00  0.00    +0.000 A 
ATOM     25  C   UNL     1      -0.917  12.165  20.655  0.00  0.00    +0.000 A 
ATOM     26  C   UNL     1      -0.607  10.819  20.466  0.00  0.00    +0.000 A 
ENDBRANCH  20  21
ENDBRANCH  19  20
ENDBRANCH   5  19
TORSDOF 8
ENDMDL
MODEL 8
REMARK VINA RESULT:      -7.1      2.908      8.864
REMARK  Name = 
REMARK  8 active torsions:
REMARK  status: ('A' for Active; 'I' for Inactive)
REMARK    1  A    between atoms: C_2  and  C_3
REMARK    2  A    between atoms: C_2  and  C_22
REMARK    3  A    between atoms: C_3  and  C_4
REMARK    4  A    between atoms: C_4  and  C_5
REMARK    5  A    between atoms: C_5  and  C_6
REMARK    6  A    between atoms: C_10  and  C_12
REMARK    7  A    between atoms: C_12  and  C_13
REMARK    8  A    between atoms: C_13  and  C_14
REMARK                            x       y       z     vdW  Elec       q    Type
REMARK                         _______ _______ _______ _____ _____    ______ ____
ROOT
ATOM      1  C   UNL     1       1.755   2.985  19.527  0.00  0.00    +0.000 C 
ATOM      2  C   UNL     1       3.176   2.502  19.868  0.00  0.00    +0.000 C 
ATOM      3  C   UNL     1       4.191   3.633  19.755  0.00  0.00    +0.000 C 
ATOM      4  N   UNL     1       4.178   4.180  18.405  0.00  0.00    +0.000 N 
ATOM      5  C   UNL     1       5.406   4.418  17.803  0.00  0.00    +0.000 C 
ATOM      6  O   UNL     1       6.468   4.238  18.408  0.00  0.00    +0.000 OA
ATOM      7  C   UNL     1       2.873   4.653  17.920  0.00  0.00    +0.000 C 
ATOM      8  C   UNL     1       1.778   3.596  18.112  0.00  0.00    +0.000 C 
ENDROOT
BRANCH   1   9
ATOM      9  C   UNL     1       1.244   3.934  20.632  0.00  0.00    +0.000 C 
BRANCH   9  10
ATOM     10  C   UNL     1       0.955   5.375  20.219  0.00  0.00    +0.000 C 
BRANCH  10  11
ATOM     11  C   UNL     1       1.882   6.420  20.839  0.00  0.00    +0.000 C 
BRANCH  11  13
ATOM     12  O   UNL     1       2.140   7.998  19.040  0.00  0.00    +0.000 OA
ATOM     13  C   UNL     1       1.688   7.775  20.165  0.00  0.00    +0.000 C 
BRANCH  13  14
ATOM     14  C   UNL     1       0.942   8.755  20.929  0.00  0.00    +0.000 A 
ATOM     15  N   UNL     1       0.193   9.733  20.449  0.00  0.00    +0.000 NA
ATOM     16  C   UNL     1      -0.268  10.372  21.576  0.00  0.00    +0.000 A 
ATOM     17  C   UNL     1       0.229   9.761  22.698  0.00  0.00    +0.000 A 
ATOM     18  O   UNL     1       1.001   8.715  22.299  0.00  0.00    +0.000 OA
ENDBRANCH  13  14
ENDBRANCH  11  13
ENDBRANCH  10  11
ENDBRANCH   9  10
ENDBRANCH   1   9
BRANCH   5  19
ATOM     19  C   UNL     1       5.417   4.898  16.371  0.00  0.00    +0.000 C 
BRANCH  19  20
ATOM     20  C   UNL     1       5.515   3.699  15.426  0.00  0.00    +0.000 C 
BRANCH  20  21
ATOM     21  C   UNL     1       6.264   4.054  14.171  0.00  0.00    +0.000 A 
ATOM     22  C   UNL     1       7.250   5.047  14.195  0.00  0.00    +0.000 A 
ATOM     23  C   UNL     1       7.919   5.402  13.025  0.00  0.00    +0.000 A 
ATOM     24  C   UNL     1       7.604   4.769  11.822  0.00  0.00    +0.000 A 
ATOM     25  C   UNL     1       6.622   3.781  11.789  0.00  0.00    +0.000 A 
ATOM     26  C   UNL     1       5.953   3.423  12.958  0.00  0.00    +0.000 A 
ENDBRANCH  20  21
ENDBRANCH  19  20
ENDBRANCH   5  19
TORSDOF 8
ENDMDL
MODEL 9
REMARK VINA RESULT:      -7.1      5.435      7.959
REMARK  Name = 
REMARK  8 active torsions:
REMARK  status: ('A' for Active; 'I' for Inactive)
REMARK    1  A    between atoms: C_2  and  C_3
REMARK    2  A    between atoms: C_2  and  C_22
REMARK    3  A    between atoms: C_3  and  C_4
REMARK    4  A    between atoms: C_4  and  C_5
REMARK    5  A    between atoms: C_5  and  C_6
REMARK    6  A    between atoms: C_10  and  C_12
REMARK    7  A    between atoms: C_12  and  C_13
REMARK    8  A    between atoms: C_13  and  C_14
REMARK                            x       y       z     vdW  Elec       q    Type
REMARK                         _______ _______ _______ _____ _____    ______ ____
ROOT
ATOM      1  C   UNL     1       7.489   6.209  18.619  0.00  0.00    +0.000 C 
ATOM      2  C   UNL     1       7.908   4.961  17.822  0.00  0.00    +0.000 C 
ATOM      3  C   UNL     1       7.030   4.766  16.591  0.00  0.00    +0.000 C 
ATOM      4  N   UNL     1       5.635   4.639  16.990  0.00  0.00    +0.000 N 
ATOM      5  C   UNL     1       4.891   3.630  16.393  0.00  0.00    +0.000 C 
ATOM      6  O   UNL     1       5.370   2.910  15.511  0.00  0.00    +0.000 OA
ATOM      7  C   UNL     1       5.098   5.746  17.795  0.00  0.00    +0.000 C 
ATOM      8  C   UNL     1       6.001   6.069  18.992  0.00  0.00    +0.000 C 
ENDROOT
BRANCH   1   9
ATOM      9  C   UNL     1       7.838   7.483  17.820  0.00  0.00    +0.000 C 
BRANCH   9  10
ATOM     10  C   UNL     1       8.628   8.561  18.557  0.00  0.00    +0.000 C 
BRANCH  10  11
ATOM     11  C   UNL     1       8.283   9.996  18.162  0.00  0.00    +0.000 C 
BRANCH  11  13
ATOM     12  O   UNL     1      10.368  11.078  17.640  0.00  0.00    +0.000 OA
ATOM     13  C   UNL     1       9.454  10.929  18.454  0.00  0.00    +0.000 C 
BRANCH  13  14
ATOM     14  C   UNL     1       9.406  11.618  19.728  0.00  0.00    +0.000 A 
ATOM     15  N   UNL     1       9.328  11.065  20.927  0.00  0.00    +0.000 NA
ATOM     16  C   UNL     1       9.292  12.143  21.780  0.00  0.00    +0.000 A 
ATOM     17  C   UNL     1       9.340  13.310  21.063  0.00  0.00    +0.000 A 
ATOM     18  O   UNL     1       9.421  12.990  19.744  0.00  0.00    +0.000 OA
ENDBRANCH  13  14
ENDBRANCH  11  13
ENDBRANCH  10  11
ENDBRANCH   9  10
ENDBRANCH   1   9
BRANCH   5  19
ATOM     19  C   UNL     1       3.470   3.422  16.858  0.00  0.00    +0.000 C 
BRANCH  19  20
ATOM     20  C   UNL     1       3.408   2.224  17.807  0.00  0.00    +0.000 C 
BRANCH  20  21
ATOM     21  C   UNL     1       2.688   2.572  19.081  0.00  0.00    +0.000 A 
ATOM     22  C   UNL     1       3.362   2.521  20.307  0.00  0.00    +0.000 A 
ATOM     23  C   UNL     1       2.686   2.809  21.492  0.00  0.00    +0.000 A 
ATOM     24  C   UNL     1       1.333   3.145  21.460  0.00  0.00    +0.000 A 
ATOM     25  C   UNL     1       0.655   3.196  20.243  0.00  0.00    +0.000 A 
ATOM     26  C   UNL     1       1.329   2.911  19.057  0.00  0.00    +0.000 A 
ENDBRANCH  20  21
ENDBRANCH  19  20
ENDBRANCH   5  19
TORSDOF 8
ENDMDL
