MODEL 1
REMARK VINA RESULT:      -7.3      0.000      0.000
REMARK  Name = 
REMARK  14 active torsions:
REMARK  status: ('A' for Active; 'I' for Inactive)
REMARK    1  A    between atoms: C_1  and  C_2
REMARK    2  A    between atoms: C_2  and  C_3
REMARK    3  A    between atoms: C_3  and  C_4
REMARK    4  A    between atoms: C_4  and  C_5
REMARK    5  A    between atoms: C_5  and  C_6
REMARK    6  A    between atoms: C_6  and  O_7
REMARK    7  A    between atoms: C_6  and  C_8
REMARK    8  A    between atoms: C_9  and  C_10
REMARK    9  A    between atoms: C_11  and  O_12
REMARK   10  A    between atoms: C_17  and  C_18
REMARK   11  A    between atoms: C_18  and  C_19
REMARK   12  A    between atoms: C_19  and  C_20
REMARK   13  A    between atoms: C_20  and  C_21
REMARK   14  A    between atoms: C_21  and  O_23
REMARK                            x       y       z     vdW  Elec       q    Type
REMARK                         _______ _______ _______ _____ _____    ______ ____
ROOT
ATOM      1  C   UNL     1       4.910   4.845  16.429  0.00  0.00    +0.000 C 
ATOM      2  C   UNL     1       5.736   3.855  17.293  0.00  0.00    +0.000 C 
ATOM      3  C   UNL     1       6.362   4.662  18.430  0.00  0.00    +0.000 C 
ATOM      4  C   UNL     1       5.452   5.864  18.580  0.00  0.00    +0.000 C 
ATOM      5  O   UNL     1       4.270   5.517  19.309  0.00  0.00    +0.000 OA
ATOM      6  C   UNL     1       3.275   6.305  18.752  0.00  0.00    +0.000 C 
ATOM      7  C   UNL     1       2.139   6.561  19.416  0.00  0.00    +0.000 C 
ATOM      8  C   UNL     1       3.648   6.858  17.411  0.00  0.00    +0.000 C 
ATOM      9  C   UNL     1       4.998   6.205  17.171  0.00  0.00    +0.000 C 
ENDROOT
BRANCH   1  11
ATOM     10  C   UNL     1       6.101   4.105  14.304  0.00  0.00    +0.000 C 
ATOM     11  C   UNL     1       5.369   5.002  14.995  0.00  0.00    +0.000 C 
BRANCH  10  12
ATOM     12  C   UNL     1       6.408   4.262  12.835  0.00  0.00    +0.000 C 
BRANCH  12  13
ATOM     13  O   UNL     1       7.629   4.983  12.701  0.00  0.00    +0.000 OA
ATOM     14  H   UNL     1       7.577   5.782  13.250  0.00  0.00    +0.000 HD
ENDBRANCH  12  13
BRANCH  12  15
ATOM     15  C   UNL     1       6.523   2.907  12.115  0.00  0.00    +0.000 C 
BRANCH  15  16
ATOM     16  C   UNL     1       5.199   2.438  11.506  0.00  0.00    +0.000 C 
BRANCH  16  17
ATOM     17  C   UNL     1       4.227   3.599  11.300  0.00  0.00    +0.000 C 
BRANCH  17  19
ATOM     18  C   UNL     1       2.746   4.368   9.413  0.00  0.00    +0.000 C 
ATOM     19  C   UNL     1       3.129   3.206  10.312  0.00  0.00    +0.000 C 
ENDBRANCH  17  19
ENDBRANCH  16  17
ENDBRANCH  15  16
ENDBRANCH  12  15
ENDBRANCH  10  12
ENDBRANCH   1  11
BRANCH   2  20
ATOM     20  O   UNL     1       4.867   2.859  17.840  0.00  0.00    +0.000 OA
ATOM     21  H   UNL     1       4.865   2.966  18.812  0.00  0.00    +0.000 HD
ENDBRANCH   2  20
BRANCH   7  22
ATOM     22  C   UNL     1       1.842   6.034  20.794  0.00  0.00    +0.000 C 
BRANCH  22  23
ATOM     23  C   UNL     1       1.746   4.512  20.813  0.00  0.00    +0.000 C 
BRANCH  23  24
ATOM     24  C   UNL     1       0.916   3.983  19.642  0.00  0.00    +0.000 C 
BRANCH  24  25
ATOM     25  C   UNL     1       1.724   3.051  18.767  0.00  0.00    +0.000 C 
ATOM     26  O   UNL     1       1.762   3.087  17.539  0.00  0.00    +0.000 OA
BRANCH  25  27
ATOM     27  O   UNL     1       2.408   2.131  19.478  0.00  0.00    +0.000 OA
ATOM     28  H   UNL     1       3.344   2.052  19.220  0.00  0.00    +0.000 HD
ENDBRANCH  25  27
ENDBRANCH  24  25
ENDBRANCH  23  24
ENDBRANCH  22  23
ENDBRANCH   7  22
TORSDOF 13
ENDMDL
MODEL 2
REMARK VINA RESULT:      -7.3      0.815      1.149
REMARK  Name = 
REMARK  14 active torsions:
REMARK  status: ('A' for Active; 'I' for Inactive)
REMARK    1  A    between atoms: C_1  and  C_2
REMARK    2  A    between atoms: C_2  and  C_3
REMARK    3  A    between atoms: C_3  and  C_4
REMARK    4  A    between atoms: C_4  and  C_5
REMARK    5  A    between atoms: C_5  and  C_6
REMARK    6  A    between atoms: C_6  and  O_7
REMARK    7  A    between atoms: C_6  and  C_8
REMARK    8  A    between atoms: C_9  and  C_10
REMARK    9  A    between atoms: C_11  and  O_12
REMARK   10  A    between atoms: C_17  and  C_18
REMARK   11  A    between atoms: C_18  and  C_19
REMARK   12  A    between atoms: C_19  and  C_20
REMARK   13  A    between atoms: C_20  and  C_21
REMARK   14  A    between atoms: C_21  and  O_23
REMARK                            x       y       z     vdW  Elec       q    Type
REMARK                         _______ _______ _______ _____ _____    ______ ____
ROOT
ATOM      1  C   UNL     1       5.154   5.103  16.290  0.00  0.00    +0.000 C 
ATOM      2  C   UNL     1       5.866   3.922  17.002  0.00  0.00    +0.000 C 
ATOM      3  C   UNL     1       6.435   4.462  18.313  0.00  0.00    +0.000 C 
ATOM      4  C   UNL     1       5.570   5.664  18.629  0.00  0.00    +0.000 C 
ATOM      5  O   UNL     1       4.321   5.254  19.195  0.00  0.00    +0.000 OA
ATOM      6  C   UNL     1       3.407   6.189  18.733  0.00  0.00    +0.000 C 
ATOM      7  C   UNL     1       2.234   6.379  19.354  0.00  0.00    +0.000 C 
ATOM      8  C   UNL     1       3.907   6.962  17.552  0.00  0.00    +0.000 C 
ATOM      9  C   UNL     1       5.242   6.291  17.284  0.00  0.00    +0.000 C 
ENDROOT
BRANCH   1  11
ATOM     10  C   UNL     1       6.860   5.008  14.401  0.00  0.00    +0.000 C 
ATOM     11  C   UNL     1       5.730   5.502  14.947  0.00  0.00    +0.000 C 
BRANCH  10  12
ATOM     12  C   UNL     1       7.304   5.347  13.000  0.00  0.00    +0.000 C 
BRANCH  12  13
ATOM     13  O   UNL     1       8.662   5.773  13.046  0.00  0.00    +0.000 OA
ATOM     14  H   UNL     1       9.168   5.260  12.396  0.00  0.00    +0.000 HD
ENDBRANCH  12  13
BRANCH  12  15
ATOM     15  C   UNL     1       7.166   4.154  12.039  0.00  0.00    +0.000 C 
BRANCH  15  16
ATOM     16  C   UNL     1       6.389   2.983  12.647  0.00  0.00    +0.000 C 
BRANCH  16  17
ATOM     17  C   UNL     1       5.270   2.503  11.722  0.00  0.00    +0.000 C 
BRANCH  17  19
ATOM     18  C   UNL     1       3.199   3.210  10.475  0.00  0.00    +0.000 C 
ATOM     19  C   UNL     1       4.375   3.674  11.318  0.00  0.00    +0.000 C 
ENDBRANCH  17  19
ENDBRANCH  16  17
ENDBRANCH  15  16
ENDBRANCH  12  15
ENDBRANCH  10  12
ENDBRANCH   1  11
BRANCH   2  20
ATOM     20  O   UNL     1       4.915   2.892  17.285  0.00  0.00    +0.000 OA
ATOM     21  H   UNL     1       4.283   2.855  16.540  0.00  0.00    +0.000 HD
ENDBRANCH   2  20
BRANCH   7  22
ATOM     22  C   UNL     1       1.808   5.620  20.581  0.00  0.00    +0.000 C 
BRANCH  22  23
ATOM     23  C   UNL     1       0.887   4.452  20.237  0.00  0.00    +0.000 C 
BRANCH  23  24
ATOM     24  C   UNL     1       1.460   3.119  20.721  0.00  0.00    +0.000 C 
BRANCH  24  25
ATOM     25  C   UNL     1       1.975   2.287  19.569  0.00  0.00    +0.000 C 
ATOM     26  O   UNL     1       3.162   2.089  19.313  0.00  0.00    +0.000 OA
BRANCH  25  27
ATOM     27  O   UNL     1       0.984   1.782  18.807  0.00  0.00    +0.000 OA
ATOM     28  H   UNL     1       1.220   1.690  17.866  0.00  0.00    +0.000 HD
ENDBRANCH  25  27
ENDBRANCH  24  25
ENDBRANCH  23  24
ENDBRANCH  22  23
ENDBRANCH   7  22
TORSDOF 13
ENDMDL
MODEL 3
REMARK VINA RESULT:      -7.3      1.727      2.406
REMARK  Name = 
REMARK  14 active torsions:
REMARK  status: ('A' for Active; 'I' for Inactive)
REMARK    1  A    between atoms: C_1  and  C_2
REMARK    2  A    between atoms: C_2  and  C_3
REMARK    3  A    between atoms: C_3  and  C_4
REMARK    4  A    between atoms: C_4  and  C_5
REMARK    5  A    between atoms: C_5  and  C_6
REMARK    6  A    between atoms: C_6  and  O_7
REMARK    7  A    between atoms: C_6  and  C_8
REMARK    8  A    between atoms: C_9  and  C_10
REMARK    9  A    between atoms: C_11  and  O_12
REMARK   10  A    between atoms: C_17  and  C_18
REMARK   11  A    between atoms: C_18  and  C_19
REMARK   12  A    between atoms: C_19  and  C_20
REMARK   13  A    between atoms: C_20  and  C_21
REMARK   14  A    between atoms: C_21  and  O_23
REMARK                            x       y       z     vdW  Elec       q    Type
REMARK                         _______ _______ _______ _____ _____    ______ ____
ROOT
ATOM      1  C   UNL     1       6.056   4.162  16.117  0.00  0.00    +0.000 C 
ATOM      2  C   UNL     1       7.080   4.939  16.986  0.00  0.00    +0.000 C 
ATOM      3  C   UNL     1       6.286   5.916  17.853  0.00  0.00    +0.000 C 
ATOM      4  C   UNL     1       4.907   5.296  17.948  0.00  0.00    +0.000 C 
ATOM      5  O   UNL     1       4.894   4.236  18.910  0.00  0.00    +0.000 OA
ATOM      6  C   UNL     1       3.989   3.317  18.400  0.00  0.00    +0.000 C 
ATOM      7  C   UNL     1       3.410   2.402  19.190  0.00  0.00    +0.000 C 
ATOM      8  C   UNL     1       3.709   3.518  16.943  0.00  0.00    +0.000 C 
ATOM      9  C   UNL     1       4.662   4.647  16.596  0.00  0.00    +0.000 C 
ENDROOT
BRANCH   1  11
ATOM     10  C   UNL     1       6.342   3.363  13.716  0.00  0.00    +0.000 C 
ATOM     11  C   UNL     1       6.189   4.351  14.621  0.00  0.00    +0.000 C 
BRANCH  10  12
ATOM     12  C   UNL     1       6.332   3.611  12.228  0.00  0.00    +0.000 C 
BRANCH  12  13
ATOM     13  O   UNL     1       6.794   2.436  11.570  0.00  0.00    +0.000 OA
ATOM     14  H   UNL     1       6.737   2.577  10.611  0.00  0.00    +0.000 HD
ENDBRANCH  12  13
BRANCH  12  15
ATOM     15  C   UNL     1       4.933   3.982  11.708  0.00  0.00    +0.000 C 
BRANCH  15  16
ATOM     16  C   UNL     1       4.052   2.761  11.433  0.00  0.00    +0.000 C 
BRANCH  16  17
ATOM     17  C   UNL     1       3.066   3.017  10.294  0.00  0.00    +0.000 C 
BRANCH  17  19
ATOM     18  C   UNL     1       2.074   5.017   9.127  0.00  0.00    +0.000 C 
ATOM     19  C   UNL     1       3.349   4.367   9.637  0.00  0.00    +0.000 C 
ENDBRANCH  17  19
ENDBRANCH  16  17
ENDBRANCH  15  16
ENDBRANCH  12  15
ENDBRANCH  10  12
ENDBRANCH   1  11
BRANCH   2  20
ATOM     20  O   UNL     1       7.785   4.022  17.828  0.00  0.00    +0.000 OA
ATOM     21  H   UNL     1       8.377   4.543  18.406  0.00  0.00    +0.000 HD
ENDBRANCH   2  20
BRANCH   7  22
ATOM     22  C   UNL     1       3.676   2.287  20.667  0.00  0.00    +0.000 C 
BRANCH  22  23
ATOM     23  C   UNL     1       2.452   2.661  21.497  0.00  0.00    +0.000 C 
BRANCH  23  24
ATOM     24  C   UNL     1       2.353   4.172  21.710  0.00  0.00    +0.000 C 
BRANCH  24  25
ATOM     25  C   UNL     1       1.385   4.806  20.738  0.00  0.00    +0.000 C 
ATOM     26  O   UNL     1       1.344   6.002  20.456  0.00  0.00    +0.000 OA
BRANCH  25  27
ATOM     27  O   UNL     1       0.525   3.915  20.204  0.00  0.00    +0.000 OA
ATOM     28  H   UNL     1      -0.177   4.322  19.663  0.00  0.00    +0.000 HD
ENDBRANCH  25  27
ENDBRANCH  24  25
ENDBRANCH  23  24
ENDBRANCH  22  23
ENDBRANCH   7  22
TORSDOF 13
ENDMDL
MODEL 4
REMARK VINA RESULT:      -7.2      1.466      2.435
REMARK  Name = 
REMARK  14 active torsions:
REMARK  status: ('A' for Active; 'I' for Inactive)
REMARK    1  A    between atoms: C_1  and  C_2
REMARK    2  A    between atoms: C_2  and  C_3
REMARK    3  A    between atoms: C_3  and  C_4
REMARK    4  A    between atoms: C_4  and  C_5
REMARK    5  A    between atoms: C_5  and  C_6
REMARK    6  A    between atoms: C_6  and  O_7
REMARK    7  A    between atoms: C_6  and  C_8
REMARK    8  A    between atoms: C_9  and  C_10
REMARK    9  A    between atoms: C_11  and  O_12
REMARK   10  A    between atoms: C_17  and  C_18
REMARK   11  A    between atoms: C_18  and  C_19
REMARK   12  A    between atoms: C_19  and  C_20
REMARK   13  A    between atoms: C_20  and  C_21
REMARK   14  A    between atoms: C_21  and  O_23
REMARK                            x       y       z     vdW  Elec       q    Type
REMARK                         _______ _______ _______ _____ _____    ______ ____
ROOT
ATOM      1  C   UNL     1       6.178   4.640  16.568  0.00  0.00    +0.000 C 
ATOM      2  C   UNL     1       6.738   5.222  17.894  0.00  0.00    +0.000 C 
ATOM      3  C   UNL     1       5.618   6.038  18.537  0.00  0.00    +0.000 C 
ATOM      4  C   UNL     1       4.346   5.442  17.970  0.00  0.00    +0.000 C 
ATOM      5  O   UNL     1       4.015   4.223  18.643  0.00  0.00    +0.000 OA
ATOM      6  C   UNL     1       3.431   3.433  17.663  0.00  0.00    +0.000 C 
ATOM      7  C   UNL     1       2.639   2.401  17.985  0.00  0.00    +0.000 C 
ATOM      8  C   UNL     1       3.733   3.906  16.274  0.00  0.00    +0.000 C 
ATOM      9  C   UNL     1       4.684   5.059  16.538  0.00  0.00    +0.000 C 
ENDROOT
BRANCH   1  11
ATOM     10  C   UNL     1       6.640   4.628  14.064  0.00  0.00    +0.000 C 
ATOM     11  C   UNL     1       6.875   5.100  15.305  0.00  0.00    +0.000 C 
BRANCH  10  12
ATOM     12  C   UNL     1       7.271   5.226  12.831  0.00  0.00    +0.000 C 
BRANCH  12  13
ATOM     13  O   UNL     1       8.628   5.544  13.126  0.00  0.00    +0.000 OA
ATOM     14  H   UNL     1       8.666   6.458  13.452  0.00  0.00    +0.000 HD
ENDBRANCH  12  13
BRANCH  12  15
ATOM     15  C   UNL     1       7.212   4.273  11.625  0.00  0.00    +0.000 C 
BRANCH  15  16
ATOM     16  C   UNL     1       6.829   2.842  12.011  0.00  0.00    +0.000 C 
BRANCH  16  17
ATOM     17  C   UNL     1       5.546   2.390  11.314  0.00  0.00    +0.000 C 
BRANCH  17  19
ATOM     18  C   UNL     1       3.463   3.508  10.444  0.00  0.00    +0.000 C 
ATOM     19  C   UNL     1       4.401   3.352  11.628  0.00  0.00    +0.000 C 
ENDBRANCH  17  19
ENDBRANCH  16  17
ENDBRANCH  15  16
ENDBRANCH  12  15
ENDBRANCH  10  12
ENDBRANCH   1  11
BRANCH   2  20
ATOM     20  O   UNL     1       7.106   4.150  18.767  0.00  0.00    +0.000 OA
ATOM     21  H   UNL     1       7.510   4.542  19.567  0.00  0.00    +0.000 HD
ENDBRANCH   2  20
BRANCH   7  22
ATOM     22  C   UNL     1       2.314   2.009  19.401  0.00  0.00    +0.000 C 
BRANCH  22  23
ATOM     23  C   UNL     1       0.907   2.442  19.802  0.00  0.00    +0.000 C 
BRANCH  23  24
ATOM     24  C   UNL     1       0.879   3.891  20.292  0.00  0.00    +0.000 C 
BRANCH  24  25
ATOM     25  C   UNL     1       1.973   4.155  21.300  0.00  0.00    +0.000 C 
ATOM     26  O   UNL     1       2.249   3.429  22.254  0.00  0.00    +0.000 OA
BRANCH  25  27
ATOM     27  O   UNL     1       2.631   5.309  21.066  0.00  0.00    +0.000 OA
ATOM     28  H   UNL     1       2.162   6.101  21.387  0.00  0.00    +0.000 HD
ENDBRANCH  25  27
ENDBRANCH  24  25
ENDBRANCH  23  24
ENDBRANCH  22  23
ENDBRANCH   7  22
TORSDOF 13
ENDMDL
MODEL 5
REMARK VINA RESULT:      -7.1      1.521      2.291
REMARK  Name = 
REMARK  14 active torsions:
REMARK  status: ('A' for Active; 'I' for Inactive)
REMARK    1  A    between atoms: C_1  and  C_2
REMARK    2  A    between atoms: C_2  and  C_3
REMARK    3  A    between atoms: C_3  and  C_4
REMARK    4  A    between atoms: C_4  and  C_5
REMARK    5  A    between atoms: C_5  and  C_6
REMARK    6  A    between atoms: C_6  and  O_7
REMARK    7  A    between atoms: C_6  and  C_8
REMARK    8  A    between atoms: C_9  and  C_10
REMARK    9  A    between atoms: C_11  and  O_12
REMARK   10  A    between atoms: C_17  and  C_18
REMARK   11  A    between atoms: C_18  and  C_19
REMARK   12  A    between atoms: C_19  and  C_20
REMARK   13  A    between atoms: C_20  and  C_21
REMARK   14  A    between atoms: C_21  and  O_23
REMARK                            x       y       z     vdW  Elec       q    Type
REMARK                         _______ _______ _______ _____ _____    ______ ____
ROOT
ATOM      1  C   UNL     1       6.449   4.261  16.434  0.00  0.00    +0.000 C 
ATOM      2  C   UNL     1       7.423   5.060  17.340  0.00  0.00    +0.000 C 
ATOM      3  C   UNL     1       6.645   6.249  17.902  0.00  0.00    +0.000 C 
ATOM      4  C   UNL     1       5.197   5.806  17.851  0.00  0.00    +0.000 C 
ATOM      5  O   UNL     1       4.897   4.931  18.943  0.00  0.00    +0.000 OA
ATOM      6  C   UNL     1       3.965   4.042  18.429  0.00  0.00    +0.000 C 
ATOM      7  C   UNL     1       3.156   3.341  19.236  0.00  0.00    +0.000 C 
ATOM      8  C   UNL     1       3.939   4.022  16.932  0.00  0.00    +0.000 C 
ATOM      9  C   UNL     1       5.076   4.967  16.589  0.00  0.00    +0.000 C 
ENDROOT
BRANCH   1  11
ATOM     10  C   UNL     1       5.970   4.172  13.935  0.00  0.00    +0.000 C 
ATOM     11  C   UNL     1       6.832   4.180  14.971  0.00  0.00    +0.000 C 
BRANCH  10  12
ATOM     12  C   UNL     1       6.423   4.226  12.497  0.00  0.00    +0.000 C 
BRANCH  12  13
ATOM     13  O   UNL     1       7.667   4.918  12.440  0.00  0.00    +0.000 OA
ATOM     14  H   UNL     1       7.488   5.870  12.376  0.00  0.00    +0.000 HD
ENDBRANCH  12  13
BRANCH  12  15
ATOM     15  C   UNL     1       6.579   2.826  11.880  0.00  0.00    +0.000 C 
BRANCH  15  16
ATOM     16  C   UNL     1       5.284   2.299  11.255  0.00  0.00    +0.000 C 
BRANCH  16  17
ATOM     17  C   UNL     1       4.137   3.299  11.399  0.00  0.00    +0.000 C 
BRANCH  17  19
ATOM     18  C   UNL     1       2.903   4.328   9.458  0.00  0.00    +0.000 C 
ATOM     19  C   UNL     1       3.097   3.079  10.301  0.00  0.00    +0.000 C 
ENDBRANCH  17  19
ENDBRANCH  16  17
ENDBRANCH  15  16
ENDBRANCH  12  15
ENDBRANCH  10  12
ENDBRANCH   1  11
BRANCH   2  20
ATOM     20  O   UNL     1       7.864   4.228  18.417  0.00  0.00    +0.000 OA
ATOM     21  H   UNL     1       7.804   3.299  18.121  0.00  0.00    +0.000 HD
ENDBRANCH   2  20
BRANCH   7  22
ATOM     22  C   UNL     1       3.177   3.450  20.737  0.00  0.00    +0.000 C 
BRANCH  22  23
ATOM     23  C   UNL     1       2.223   4.527  21.244  0.00  0.00    +0.000 C 
BRANCH  23  24
ATOM     24  C   UNL     1       1.550   5.273  20.090  0.00  0.00    +0.000 C 
BRANCH  24  25
ATOM     25  C   UNL     1       1.958   6.728  20.060  0.00  0.00    +0.000 C 
ATOM     26  O   UNL     1       2.450   7.307  19.092  0.00  0.00    +0.000 OA
BRANCH  25  27
ATOM     27  O   UNL     1       1.749   7.353  21.236  0.00  0.00    +0.000 OA
ATOM     28  H   UNL     1       0.807   7.481  21.451  0.00  0.00    +0.000 HD
ENDBRANCH  25  27
ENDBRANCH  24  25
ENDBRANCH  23  24
ENDBRANCH  22  23
ENDBRANCH   7  22
TORSDOF 13
ENDMDL
MODEL 6
REMARK VINA RESULT:      -7.1      1.979      2.911
REMARK  Name = 
REMARK  14 active torsions:
REMARK  status: ('A' for Active; 'I' for Inactive)
REMARK    1  A    between atoms: C_1  and  C_2
REMARK    2  A    between atoms: C_2  and  C_3
REMARK    3  A    between atoms: C_3  and  C_4
REMARK    4  A    between atoms: C_4  and  C_5
REMARK    5  A    between atoms: C_5  and  C_6
REMARK    6  A    between atoms: C_6  and  O_7
REMARK    7  A    between atoms: C_6  and  C_8
REMARK    8  A    between atoms: C_9  and  C_10
REMARK    9  A    between atoms: C_11  and  O_12
REMARK   10  A    between atoms: C_17  and  C_18
REMARK   11  A    between atoms: C_18  and  C_19
REMARK   12  A    between atoms: C_19  and  C_20
REMARK   13  A    between atoms: C_20  and  C_21
REMARK   14  A    between atoms: C_21  and  O_23
REMARK                            x       y       z     vdW  Elec       q    Type
REMARK                         _______ _______ _______ _____ _____    ______ ____
ROOT
ATOM      1  C   UNL     1       6.222   4.665  16.637  0.00  0.00    +0.000 C 
ATOM      2  C   UNL     1       6.619   5.418  17.934  0.00  0.00    +0.000 C 
ATOM      3  C   UNL     1       5.383   6.183  18.408  0.00  0.00    +0.000 C 
ATOM      4  C   UNL     1       4.219   5.418  17.811  0.00  0.00    +0.000 C 
ATOM      5  O   UNL     1       3.940   4.242  18.578  0.00  0.00    +0.000 OA
ATOM      6  C   UNL     1       3.509   3.313  17.643  0.00  0.00    +0.000 C 
ATOM      7  C   UNL     1       2.786   2.245  18.009  0.00  0.00    +0.000 C 
ATOM      8  C   UNL     1       3.882   3.678  16.240  0.00  0.00    +0.000 C 
ATOM      9  C   UNL     1       4.705   4.935  16.455  0.00  0.00    +0.000 C 
ENDROOT
BRANCH   1  11
ATOM     10  C   UNL     1       6.659   4.707  14.129  0.00  0.00    +0.000 C 
ATOM     11  C   UNL     1       6.979   5.067  15.389  0.00  0.00    +0.000 C 
BRANCH  10  12
ATOM     12  C   UNL     1       7.375   5.255  12.918  0.00  0.00    +0.000 C 
BRANCH  12  13
ATOM     13  O   UNL     1       8.687   5.649  13.308  0.00  0.00    +0.000 OA
ATOM     14  H   UNL     1       9.126   4.890  13.723  0.00  0.00    +0.000 HD
ENDBRANCH  12  13
BRANCH  12  15
ATOM     15  C   UNL     1       7.458   4.228  11.776  0.00  0.00    +0.000 C 
BRANCH  15  16
ATOM     16  C   UNL     1       6.599   2.985  12.024  0.00  0.00    +0.000 C 
BRANCH  16  17
ATOM     17  C   UNL     1       7.099   1.781  11.225  0.00  0.00    +0.000 C 
BRANCH  17  19
ATOM     18  C   UNL     1       6.178  -0.559  11.374  0.00  0.00    +0.000 C 
ATOM     19  C   UNL     1       5.936   0.855  10.873  0.00  0.00    +0.000 C 
ENDBRANCH  17  19
ENDBRANCH  16  17
ENDBRANCH  15  16
ENDBRANCH  12  15
ENDBRANCH  10  12
ENDBRANCH   1  11
BRANCH   2  20
ATOM     20  O   UNL     1       7.005   4.473  18.937  0.00  0.00    +0.000 OA
ATOM     21  H   UNL     1       7.636   4.917  19.537  0.00  0.00    +0.000 HD
ENDBRANCH   2  20
BRANCH   7  22
ATOM     22  C   UNL     1       2.380   1.960  19.430  0.00  0.00    +0.000 C 
BRANCH  22  23
ATOM     23  C   UNL     1       0.948   2.405  19.712  0.00  0.00    +0.000 C 
BRANCH  23  24
ATOM     24  C   UNL     1       0.895   3.840  20.238  0.00  0.00    +0.000 C 
BRANCH  24  25
ATOM     25  C   UNL     1       1.958   4.085  21.284  0.00  0.00    +0.000 C 
ATOM     26  O   UNL     1       2.186   3.357  22.248  0.00  0.00    +0.000 OA
BRANCH  25  27
ATOM     27  O   UNL     1       2.646   5.225  21.071  0.00  0.00    +0.000 OA
ATOM     28  H   UNL     1       2.487   5.912  21.744  0.00  0.00    +0.000 HD
ENDBRANCH  25  27
ENDBRANCH  24  25
ENDBRANCH  23  24
ENDBRANCH  22  23
ENDBRANCH   7  22
TORSDOF 13
ENDMDL
MODEL 7
REMARK VINA RESULT:      -7.0      2.827      3.762
REMARK  Name = 
REMARK  14 active torsions:
REMARK  status: ('A' for Active; 'I' for Inactive)
REMARK    1  A    between atoms: C_1  and  C_2
REMARK    2  A    between atoms: C_2  and  C_3
REMARK    3  A    between atoms: C_3  and  C_4
REMARK    4  A    between atoms: C_4  and  C_5
REMARK    5  A    between atoms: C_5  and  C_6
REMARK    6  A    between atoms: C_6  and  O_7
REMARK    7  A    between atoms: C_6  and  C_8
REMARK    8  A    between atoms: C_9  and  C_10
REMARK    9  A    between atoms: C_11  and  O_12
REMARK   10  A    between atoms: C_17  and  C_18
REMARK   11  A    between atoms: C_18  and  C_19
REMARK   12  A    between atoms: C_19  and  C_20
REMARK   13  A    between atoms: C_20  and  C_21
REMARK   14  A    between atoms: C_21  and  O_23
REMARK                            x       y       z     vdW  Elec       q    Type
REMARK                         _______ _______ _______ _____ _____    ______ ____
ROOT
ATOM      1  C   UNL     1       3.933   4.641  17.195  0.00  0.00    +0.000 C 
ATOM      2  C   UNL     1       3.982   3.385  18.107  0.00  0.00    +0.000 C 
ATOM      3  C   UNL     1       4.719   3.784  19.384  0.00  0.00    +0.000 C 
ATOM      4  C   UNL     1       4.529   5.285  19.473  0.00  0.00    +0.000 C 
ATOM      5  O   UNL     1       3.227   5.601  19.976  0.00  0.00    +0.000 OA
ATOM      6  C   UNL     1       2.879   6.774  19.325  0.00  0.00    +0.000 C 
ATOM      7  C   UNL     1       1.931   7.586  19.815  0.00  0.00    +0.000 C 
ATOM      8  C   UNL     1       3.707   7.034  18.104  0.00  0.00    +0.000 C 
ATOM      9  C   UNL     1       4.562   5.782  18.037  0.00  0.00    +0.000 C 
ENDROOT
BRANCH   1  11
ATOM     10  C   UNL     1       5.676   5.285  15.455  0.00  0.00    +0.000 C 
ATOM     11  C   UNL     1       4.649   4.514  15.867  0.00  0.00    +0.000 C 
BRANCH  10  12
ATOM     12  C   UNL     1       6.434   5.018  14.178  0.00  0.00    +0.000 C 
BRANCH  12  13
ATOM     13  O   UNL     1       7.812   5.303  14.401  0.00  0.00    +0.000 OA
ATOM     14  H   UNL     1       7.876   6.029  15.041  0.00  0.00    +0.000 HD
ENDBRANCH  12  13
BRANCH  12  15
ATOM     15  C   UNL     1       6.275   3.565  13.698  0.00  0.00    +0.000 C 
BRANCH  15  16
ATOM     16  C   UNL     1       6.420   3.416  12.181  0.00  0.00    +0.000 C 
BRANCH  16  17
ATOM     17  C   UNL     1       5.238   2.664  11.569  0.00  0.00    +0.000 C 
BRANCH  17  19
ATOM     18  C   UNL     1       3.207   3.267  10.206  0.00  0.00    +0.000 C 
ATOM     19  C   UNL     1       4.026   3.587  11.445  0.00  0.00    +0.000 C 
ENDBRANCH  17  19
ENDBRANCH  16  17
ENDBRANCH  15  16
ENDBRANCH  12  15
ENDBRANCH  10  12
ENDBRANCH   1  11
BRANCH   2  20
ATOM     20  O   UNL     1       2.649   2.981  18.434  0.00  0.00    +0.000 OA
ATOM     21  H   UNL     1       2.229   3.711  18.930  0.00  0.00    +0.000 HD
ENDBRANCH   2  20
BRANCH   7  22
ATOM     22  C   UNL     1       1.175   7.310  21.087  0.00  0.00    +0.000 C 
BRANCH  22  23
ATOM     23  C   UNL     1      -0.071   8.183  21.208  0.00  0.00    +0.000 C 
BRANCH  23  24
ATOM     24  C   UNL     1       0.284   9.627  21.568  0.00  0.00    +0.000 C 
BRANCH  24  25
ATOM     25  C   UNL     1      -0.136   9.965  22.980  0.00  0.00    +0.000 C 
ATOM     26  O   UNL     1       0.449   9.602  24.000  0.00  0.00    +0.000 OA
BRANCH  25  27
ATOM     27  O   UNL     1      -1.261  10.706  23.026  0.00  0.00    +0.000 OA
ATOM     28  H   UNL     1      -1.160  11.543  23.515  0.00  0.00    +0.000 HD
ENDBRANCH  25  27
ENDBRANCH  24  25
ENDBRANCH  23  24
ENDBRANCH  22  23
ENDBRANCH   7  22
TORSDOF 13
ENDMDL
MODEL 8
REMARK VINA RESULT:      -7.0      1.654      2.157
REMARK  Name = 
REMARK  14 active torsions:
REMARK  status: ('A' for Active; 'I' for Inactive)
REMARK    1  A    between atoms: C_1  and  C_2
REMARK    2  A    between atoms: C_2  and  C_3
REMARK    3  A    between atoms: C_3  and  C_4
REMARK    4  A    between atoms: C_4  and  C_5
REMARK    5  A    between atoms: C_5  and  C_6
REMARK    6  A    between atoms: C_6  and  O_7
REMARK    7  A    between atoms: C_6  and  C_8
REMARK    8  A    between atoms: C_9  and  C_10
REMARK    9  A    between atoms: C_11  and  O_12
REMARK   10  A    between atoms: C_17  and  C_18
REMARK   11  A    between atoms: C_18  and  C_19
REMARK   12  A    between atoms: C_19  and  C_20
REMARK   13  A    between atoms: C_20  and  C_21
REMARK   14  A    between atoms: C_21  and  O_23
REMARK                            x       y       z     vdW  Elec       q    Type
REMARK                         _______ _______ _______ _____ _____    ______ ____
ROOT
ATOM      1  C   UNL     1       5.886   4.328  16.272  0.00  0.00    +0.000 C 
ATOM      2  C   UNL     1       6.938   5.059  17.148  0.00  0.00    +0.000 C 
ATOM      3  C   UNL     1       6.173   5.953  18.122  0.00  0.00    +0.000 C 
ATOM      4  C   UNL     1       4.810   5.301  18.236  0.00  0.00    +0.000 C 
ATOM      5  O   UNL     1       4.861   4.172  19.115  0.00  0.00    +0.000 OA
ATOM      6  C   UNL     1       3.946   3.276  18.581  0.00  0.00    +0.000 C 
ATOM      7  C   UNL     1       3.422   2.294  19.327  0.00  0.00    +0.000 C 
ATOM      8  C   UNL     1       3.592   3.579  17.158  0.00  0.00    +0.000 C 
ATOM      9  C   UNL     1       4.509   4.749  16.852  0.00  0.00    +0.000 C 
ENDROOT
BRANCH   1  11
ATOM     10  C   UNL     1       6.817   4.094  13.914  0.00  0.00    +0.000 C 
ATOM     11  C   UNL     1       5.943   4.630  14.790  0.00  0.00    +0.000 C 
BRANCH  10  12
ATOM     12  C   UNL     1       6.732   4.334  12.427  0.00  0.00    +0.000 C 
BRANCH  12  13
ATOM     13  O   UNL     1       7.909   5.019  12.010  0.00  0.00    +0.000 OA
ATOM     14  H   UNL     1       7.664   5.671  11.334  0.00  0.00    +0.000 HD
ENDBRANCH  12  13
BRANCH  12  15
ATOM     15  C   UNL     1       6.583   3.026  11.632  0.00  0.00    +0.000 C 
BRANCH  15  16
ATOM     16  C   UNL     1       5.186   2.409  11.749  0.00  0.00    +0.000 C 
BRANCH  16  17
ATOM     17  C   UNL     1       4.089   3.426  11.439  0.00  0.00    +0.000 C 
BRANCH  17  19
ATOM     18  C   UNL     1       2.771   4.488   9.572  0.00  0.00    +0.000 C 
ATOM     19  C   UNL     1       3.679   3.337   9.969  0.00  0.00    +0.000 C 
ENDBRANCH  17  19
ENDBRANCH  16  17
ENDBRANCH  15  16
ENDBRANCH  12  15
ENDBRANCH  10  12
ENDBRANCH   1  11
BRANCH   2  20
ATOM     20  O   UNL     1       7.699   4.096  17.884  0.00  0.00    +0.000 OA
ATOM     21  H   UNL     1       8.619   4.421  17.937  0.00  0.00    +0.000 HD
ENDBRANCH   2  20
BRANCH   7  22
ATOM     22  C   UNL     1       3.762   2.075  20.777  0.00  0.00    +0.000 C 
BRANCH  22  23
ATOM     23  C   UNL     1       2.819   2.837  21.704  0.00  0.00    +0.000 C 
BRANCH  23  24
ATOM     24  C   UNL     1       1.352   2.555  21.375  0.00  0.00    +0.000 C 
BRANCH  24  25
ATOM     25  C   UNL     1       0.791   3.586  20.423  0.00  0.00    +0.000 C 
ATOM     26  O   UNL     1       1.050   4.788  20.446  0.00  0.00    +0.000 OA
BRANCH  25  27
ATOM     27  O   UNL     1      -0.067   3.057  19.527  0.00  0.00    +0.000 OA
ATOM     28  H   UNL     1       0.371   2.640  18.763  0.00  0.00    +0.000 HD
ENDBRANCH  25  27
ENDBRANCH  24  25
ENDBRANCH  23  24
ENDBRANCH  22  23
ENDBRANCH   7  22
TORSDOF 13
ENDMDL
MODEL 9
REMARK VINA RESULT:      -7.0      3.353      7.776
REMARK  Name = 
REMARK  14 active torsions:
REMARK  status: ('A' for Active; 'I' for Inactive)
REMARK    1  A    between atoms: C_1  and  C_2
REMARK    2  A    between atoms: C_2  and  C_3
REMARK    3  A    between atoms: C_3  and  C_4
REMARK    4  A    between atoms: C_4  and  C_5
REMARK    5  A    between atoms: C_5  and  C_6
REMARK    6  A    between atoms: C_6  and  O_7
REMARK    7  A    between atoms: C_6  and  C_8
REMARK    8  A    between atoms: C_9  and  C_10
REMARK    9  A    between atoms: C_11  and  O_12
REMARK   10  A    between atoms: C_17  and  C_18
REMARK   11  A    between atoms: C_18  and  C_19
REMARK   12  A    between atoms: C_19  and  C_20
REMARK   13  A    between atoms: C_20  and  C_21
REMARK   14  A    between atoms: C_21  and  O_23
REMARK                            x       y       z     vdW  Elec       q    Type
REMARK                         _______ _______ _______ _____ _____    ______ ____
ROOT
ATOM      1  C   UNL     1       2.469   6.049  19.850  0.00  0.00    +0.000 C 
ATOM      2  C   UNL     1       2.273   4.510  19.868  0.00  0.00    +0.000 C 
ATOM      3  C   UNL     1       1.828   4.095  18.466  0.00  0.00    +0.000 C 
ATOM      4  C   UNL     1       2.355   5.195  17.566  0.00  0.00    +0.000 C 
ATOM      5  O   UNL     1       3.752   5.015  17.312  0.00  0.00    +0.000 OA
ATOM      6  C   UNL     1       4.255   6.303  17.214  0.00  0.00    +0.000 C 
ATOM      7  C   UNL     1       5.418   6.549  16.594  0.00  0.00    +0.000 C 
ATOM      8  C   UNL     1       3.342   7.335  17.802  0.00  0.00    +0.000 C 
ATOM      9  C   UNL     1       2.231   6.474  18.377  0.00  0.00    +0.000 C 
ENDROOT
BRANCH   1  11
ATOM     10  C   UNL     1       1.489   8.181  20.840  0.00  0.00    +0.000 C 
ATOM     11  C   UNL     1       1.563   6.836  20.774  0.00  0.00    +0.000 C 
BRANCH  10  12
ATOM     12  C   UNL     1       0.467   8.900  21.686  0.00  0.00    +0.000 C 
BRANCH  12  13
ATOM     13  O   UNL     1       1.138   9.519  22.779  0.00  0.00    +0.000 OA
ATOM     14  H   UNL     1       1.298   8.848  23.462  0.00  0.00    +0.000 HD
ENDBRANCH  12  13
BRANCH  12  15
ATOM     15  C   UNL     1      -0.310   9.959  20.886  0.00  0.00    +0.000 C 
BRANCH  15  16
ATOM     16  C   UNL     1       0.595  10.839  20.019  0.00  0.00    +0.000 C 
BRANCH  16  17
ATOM     17  C   UNL     1       0.019  11.039  18.618  0.00  0.00    +0.000 C 
BRANCH  17  19
ATOM     18  C   UNL     1      -1.780   9.898  17.274  0.00  0.00    +0.000 C 
ATOM     19  C   UNL     1      -1.445  10.604  18.576  0.00  0.00    +0.000 C 
ENDBRANCH  17  19
ENDBRANCH  16  17
ENDBRANCH  15  16
ENDBRANCH  12  15
ENDBRANCH  10  12
ENDBRANCH   1  11
BRANCH   2  20
ATOM     20  O   UNL     1       3.516   3.874  20.179  0.00  0.00    +0.000 OA
ATOM     21  H   UNL     1       3.712   3.235  19.465  0.00  0.00    +0.000 HD
ENDBRANCH   2  20
BRANCH   7  22
ATOM     22  C   UNL     1       6.266   5.481  15.959  0.00  0.00    +0.000 C 
BRANCH  22  23
ATOM     23  C   UNL     1       7.294   4.915  16.934  0.00  0.00    +0.000 C 
BRANCH  23  24
ATOM     24  C   UNL     1       7.568   5.880  18.089  0.00  0.00    +0.000 C 
BRANCH  24  25
ATOM     25  C   UNL     1       7.163   5.283  19.417  0.00  0.00    +0.000 C 
ATOM     26  O   UNL     1       6.141   4.630  19.618  0.00  0.00    +0.000 OA
BRANCH  25  27
ATOM     27  O   UNL     1       8.043   5.557  20.401  0.00  0.00    +0.000 OA
ATOM     28  H   UNL     1       8.089   6.501  20.635  0.00  0.00    +0.000 HD
ENDBRANCH  25  27
ENDBRANCH  24  25
ENDBRANCH  23  24
ENDBRANCH  22  23
ENDBRANCH   7  22
TORSDOF 13
ENDMDL
