MODEL 1
REMARK VINA RESULT:      -8.7      0.000      0.000
REMARK  Name = 
REMARK  8 active torsions:
REMARK  status: ('A' for Active; 'I' for Inactive)
REMARK    1  A    between atoms: C_1  and  O_2
REMARK    2  A    between atoms: O_2  and  C_3
REMARK    3  A    between atoms: C_8  and  C_9
REMARK    4  A    between atoms: C_9  and  O_11
REMARK    5  A    between atoms: O_11  and  C_12
REMARK    6  A    between atoms: C_12  and  C_13
REMARK    7  A    between atoms: C_16  and  C_17
REMARK    8  A    between atoms: C_24  and  C_25
REMARK                            x       y       z     vdW  Elec       q    Type
REMARK                         _______ _______ _______ _____ _____    ______ ____
ROOT
ATOM      1  C   UNL     1       3.596   3.608  18.427  0.00  0.00    +0.000 C 
ATOM      2  O   UNL     1       3.063   2.724  17.768  0.00  0.00    +0.000 OA
ENDROOT
BRANCH   1   8
ATOM      3  C   UNL     1       1.184   8.762  20.415  0.00  0.00    +0.000 A 
ATOM      4  C   UNL     1       1.536   9.119  19.108  0.00  0.00    +0.000 A 
ATOM      5  C   UNL     1       2.130   8.204  18.228  0.00  0.00    +0.000 A 
ATOM      6  C   UNL     1       2.345   6.926  18.729  0.00  0.00    +0.000 A 
ATOM      7  O   UNL     1       2.907   5.897  18.050  0.00  0.00    +0.000 OA
ATOM      8  C   UNL     1       2.962   4.818  18.896  0.00  0.00    +0.000 A 
ATOM      9  C   UNL     1       2.415   5.159  20.127  0.00  0.00    +0.000 A 
ATOM     10  C   UNL     1       2.279   4.322  21.347  0.00  0.00    +0.000 C 
ATOM     11  C   UNL     1       2.017   6.526  20.014  0.00  0.00    +0.000 A 
ATOM     12  C   UNL     1       1.424   7.462  20.879  0.00  0.00    +0.000 A 
BRANCH   3  14
ATOM     13  C   UNL     1      -0.174   9.357  22.267  0.00  0.00    +0.000 C 
ATOM     14  O   UNL     1       0.613   9.764  21.153  0.00  0.00    +0.000 OA
ENDBRANCH   3  14
ENDBRANCH   1   8
BRANCH   1  15
ATOM     15  O   UNL     1       4.868   3.542  18.913  0.00  0.00    +0.000 OA
BRANCH  15  16
ATOM     16  C   UNL     1       5.488   4.811  19.127  0.00  0.00    +0.000 C 
BRANCH  16  17
ATOM     17  C   UNL     1       6.209   5.213  17.889  0.00  0.00    +0.000 A 
ATOM     18  N   UNL     1       7.104   6.165  17.735  0.00  0.00    +0.000 NA
ATOM     19  N   UNL     1       7.481   6.134  16.411  0.00  0.00    +0.000 NA
ATOM     20  C   UNL     1       6.794   5.166  15.837  0.00  0.00    +0.000 A 
ATOM     21  O   UNL     1       5.957   4.531  16.719  0.00  0.00    +0.000 OA
BRANCH  20  22
ATOM     22  C   UNL     1       6.801   4.724  14.447  0.00  0.00    +0.000 A 
ATOM     23  C   UNL     1       7.712   5.316  13.556  0.00  0.00    +0.000 A 
ATOM     24  C   UNL     1       7.743   4.956  12.207  0.00  0.00    +0.000 A 
ATOM     25  C   UNL     1       6.860   3.992  11.728  0.00  0.00    +0.000 A 
ATOM     26  C   UNL     1       5.958   3.383  12.599  0.00  0.00    +0.000 A 
ATOM     27  C   UNL     1       5.929   3.744  13.952  0.00  0.00    +0.000 A 
ENDBRANCH  20  22
ENDBRANCH  16  17
ENDBRANCH  15  16
ENDBRANCH   1  15
TORSDOF 6
ENDMDL
MODEL 2
REMARK VINA RESULT:      -8.6      0.449      1.031
REMARK  Name = 
REMARK  8 active torsions:
REMARK  status: ('A' for Active; 'I' for Inactive)
REMARK    1  A    between atoms: C_1  and  O_2
REMARK    2  A    between atoms: O_2  and  C_3
REMARK    3  A    between atoms: C_8  and  C_9
REMARK    4  A    between atoms: C_9  and  O_11
REMARK    5  A    between atoms: O_11  and  C_12
REMARK    6  A    between atoms: C_12  and  C_13
REMARK    7  A    between atoms: C_16  and  C_17
REMARK    8  A    between atoms: C_24  and  C_25
REMARK                            x       y       z     vdW  Elec       q    Type
REMARK                         _______ _______ _______ _____ _____    ______ ____
ROOT
ATOM      1  C   UNL     1       3.458   3.639  18.262  0.00  0.00    +0.000 C 
ATOM      2  O   UNL     1       2.903   2.807  17.555  0.00  0.00    +0.000 OA
ENDROOT
BRANCH   1   8
ATOM      3  C   UNL     1       1.235   8.834  20.361  0.00  0.00    +0.000 A 
ATOM      4  C   UNL     1       1.558   9.194  19.046  0.00  0.00    +0.000 A 
ATOM      5  C   UNL     1       2.102   8.272  18.142  0.00  0.00    +0.000 A 
ATOM      6  C   UNL     1       2.300   6.985  18.626  0.00  0.00    +0.000 A 
ATOM      7  O   UNL     1       2.816   5.948  17.923  0.00  0.00    +0.000 OA
ATOM      8  C   UNL     1       2.869   4.860  18.758  0.00  0.00    +0.000 A 
ATOM      9  C   UNL     1       2.366   5.205  20.007  0.00  0.00    +0.000 A 
ATOM     10  C   UNL     1       2.245   4.361  21.225  0.00  0.00    +0.000 C 
ATOM     11  C   UNL     1       2.000   6.582  19.917  0.00  0.00    +0.000 A 
ATOM     12  C   UNL     1       1.456   7.525  20.807  0.00  0.00    +0.000 A 
BRANCH   3  14
ATOM     13  C   UNL     1      -0.222  10.703  20.475  0.00  0.00    +0.000 C 
ATOM     14  O   UNL     1       0.711   9.844  21.122  0.00  0.00    +0.000 OA
ENDBRANCH   3  14
ENDBRANCH   1   8
BRANCH   1  15
ATOM     15  O   UNL     1       4.710   3.495  18.779  0.00  0.00    +0.000 OA
BRANCH  15  16
ATOM     16  C   UNL     1       5.375   4.723  19.078  0.00  0.00    +0.000 C 
BRANCH  16  17
ATOM     17  C   UNL     1       6.138   5.167  17.881  0.00  0.00    +0.000 A 
ATOM     18  N   UNL     1       7.047   6.114  17.794  0.00  0.00    +0.000 NA
ATOM     19  N   UNL     1       7.465   6.132  16.483  0.00  0.00    +0.000 NA
ATOM     20  C   UNL     1       6.788   5.196  15.848  0.00  0.00    +0.000 A 
ATOM     21  O   UNL     1       5.916   4.535  16.677  0.00  0.00    +0.000 OA
BRANCH  20  22
ATOM     22  C   UNL     1       6.834   4.810  14.443  0.00  0.00    +0.000 A 
ATOM     23  C   UNL     1       5.944   3.825  13.984  0.00  0.00    +0.000 A 
ATOM     24  C   UNL     1       5.964   3.392  12.657  0.00  0.00    +0.000 A 
ATOM     25  C   UNL     1       6.879   3.943  11.763  0.00  0.00    +0.000 A 
ATOM     26  C   UNL     1       7.762   4.932  12.195  0.00  0.00    +0.000 A 
ATOM     27  C   UNL     1       7.739   5.366  13.527  0.00  0.00    +0.000 A 
ENDBRANCH  20  22
ENDBRANCH  16  17
ENDBRANCH  15  16
ENDBRANCH   1  15
TORSDOF 6
ENDMDL
MODEL 3
REMARK VINA RESULT:      -8.3      2.520      7.553
REMARK  Name = 
REMARK  8 active torsions:
REMARK  status: ('A' for Active; 'I' for Inactive)
REMARK    1  A    between atoms: C_1  and  O_2
REMARK    2  A    between atoms: O_2  and  C_3
REMARK    3  A    between atoms: C_8  and  C_9
REMARK    4  A    between atoms: C_9  and  O_11
REMARK    5  A    between atoms: O_11  and  C_12
REMARK    6  A    between atoms: C_12  and  C_13
REMARK    7  A    between atoms: C_16  and  C_17
REMARK    8  A    between atoms: C_24  and  C_25
REMARK                            x       y       z     vdW  Elec       q    Type
REMARK                         _______ _______ _______ _____ _____    ______ ____
ROOT
ATOM      1  C   UNL     1       2.451   4.191  20.471  0.00  0.00    +0.000 C 
ATOM      2  O   UNL     1       2.278   3.243  21.227  0.00  0.00    +0.000 OA
ENDROOT
BRANCH   1   8
ATOM      3  C   UNL     1       6.860   5.014  16.445  0.00  0.00    +0.000 A 
ATOM      4  C   UNL     1       7.437   5.575  17.591  0.00  0.00    +0.000 A 
ATOM      5  C   UNL     1       6.766   5.593  18.821  0.00  0.00    +0.000 A 
ATOM      6  C   UNL     1       5.501   5.021  18.835  0.00  0.00    +0.000 A 
ATOM      7  O   UNL     1       4.684   4.938  19.913  0.00  0.00    +0.000 OA
ATOM      8  C   UNL     1       3.521   4.328  19.512  0.00  0.00    +0.000 A 
ATOM      9  C   UNL     1       3.604   4.005  18.163  0.00  0.00    +0.000 A 
ATOM     10  C   UNL     1       2.583   3.355  17.300  0.00  0.00    +0.000 C 
ATOM     11  C   UNL     1       4.886   4.457  17.729  0.00  0.00    +0.000 A 
ATOM     12  C   UNL     1       5.578   4.452  16.505  0.00  0.00    +0.000 A 
BRANCH   3  14
ATOM     13  C   UNL     1       6.995   4.758  14.090  0.00  0.00    +0.000 C 
ATOM     14  O   UNL     1       7.639   5.071  15.320  0.00  0.00    +0.000 OA
ENDBRANCH   3  14
ENDBRANCH   1   8
BRANCH   1  15
ATOM     15  O   UNL     1       1.590   5.240  20.347  0.00  0.00    +0.000 OA
BRANCH  15  16
ATOM     16  C   UNL     1       2.096   6.484  20.834  0.00  0.00    +0.000 C 
BRANCH  16  17
ATOM     17  C   UNL     1       1.992   7.505  19.757  0.00  0.00    +0.000 A 
ATOM     18  N   UNL     1       2.477   7.459  18.535  0.00  0.00    +0.000 NA
ATOM     19  N   UNL     1       2.104   8.635  17.924  0.00  0.00    +0.000 NA
ATOM     20  C   UNL     1       1.415   9.328  18.809  0.00  0.00    +0.000 A 
ATOM     21  O   UNL     1       1.302   8.671  20.008  0.00  0.00    +0.000 OA
BRANCH  20  22
ATOM     22  C   UNL     1       0.807  10.647  18.682  0.00  0.00    +0.000 A 
ATOM     23  C   UNL     1       1.644  11.776  18.652  0.00  0.00    +0.000 A 
ATOM     24  C   UNL     1       1.117  13.066  18.564  0.00  0.00    +0.000 A 
ATOM     25  C   UNL     1      -0.262  13.247  18.502  0.00  0.00    +0.000 A 
ATOM     26  C   UNL     1      -1.109  12.140  18.516  0.00  0.00    +0.000 A 
ATOM     27  C   UNL     1      -0.579  10.846  18.603  0.00  0.00    +0.000 A 
ENDBRANCH  20  22
ENDBRANCH  16  17
ENDBRANCH  15  16
ENDBRANCH   1  15
TORSDOF 6
ENDMDL
MODEL 4
REMARK VINA RESULT:      -8.2      2.081      8.338
REMARK  Name = 
REMARK  8 active torsions:
REMARK  status: ('A' for Active; 'I' for Inactive)
REMARK    1  A    between atoms: C_1  and  O_2
REMARK    2  A    between atoms: O_2  and  C_3
REMARK    3  A    between atoms: C_8  and  C_9
REMARK    4  A    between atoms: C_9  and  O_11
REMARK    5  A    between atoms: O_11  and  C_12
REMARK    6  A    between atoms: C_12  and  C_13
REMARK    7  A    between atoms: C_16  and  C_17
REMARK    8  A    between atoms: C_24  and  C_25
REMARK                            x       y       z     vdW  Elec       q    Type
REMARK                         _______ _______ _______ _____ _____    ______ ____
ROOT
ATOM      1  C   UNL     1       3.531   3.346  19.183  0.00  0.00    +0.000 C 
ATOM      2  O   UNL     1       2.870   2.315  19.159  0.00  0.00    +0.000 OA
ENDROOT
BRANCH   1   8
ATOM      3  C   UNL     1       7.256   5.115  14.787  0.00  0.00    +0.000 A 
ATOM      4  C   UNL     1       6.362   4.310  14.071  0.00  0.00    +0.000 A 
ATOM      5  C   UNL     1       5.276   3.681  14.693  0.00  0.00    +0.000 A 
ATOM      6  C   UNL     1       5.140   3.903  16.057  0.00  0.00    +0.000 A 
ATOM      7  O   UNL     1       4.168   3.388  16.848  0.00  0.00    +0.000 OA
ATOM      8  C   UNL     1       4.395   3.825  18.130  0.00  0.00    +0.000 A 
ATOM      9  C   UNL     1       5.519   4.641  18.154  0.00  0.00    +0.000 A 
ATOM     10  C   UNL     1       6.150   5.319  19.316  0.00  0.00    +0.000 C 
ATOM     11  C   UNL     1       5.999   4.688  16.810  0.00  0.00    +0.000 A 
ATOM     12  C   UNL     1       7.083   5.309  16.164  0.00  0.00    +0.000 A 
BRANCH   3  14
ATOM     13  C   UNL     1       8.144   5.536  12.628  0.00  0.00    +0.000 C 
ATOM     14  O   UNL     1       8.265   5.663  14.040  0.00  0.00    +0.000 OA
ENDBRANCH   3  14
ENDBRANCH   1   8
BRANCH   1  15
ATOM     15  O   UNL     1       3.479   4.268  20.185  0.00  0.00    +0.000 OA
BRANCH  15  16
ATOM     16  C   UNL     1       2.159   4.666  20.559  0.00  0.00    +0.000 C 
BRANCH  16  17
ATOM     17  C   UNL     1       1.993   6.118  20.282  0.00  0.00    +0.000 A 
ATOM     18  N   UNL     1       2.489   6.824  19.289  0.00  0.00    +0.000 NA
ATOM     19  N   UNL     1       2.041   8.113  19.467  0.00  0.00    +0.000 NA
ATOM     20  C   UNL     1       1.299   8.118  20.557  0.00  0.00    +0.000 A 
ATOM     21  O   UNL     1       1.223   6.876  21.136  0.00  0.00    +0.000 OA
BRANCH  20  22
ATOM     22  C   UNL     1       0.603   9.226  21.200  0.00  0.00    +0.000 A 
ATOM     23  C   UNL     1       0.094   9.041  22.496  0.00  0.00    +0.000 A 
ATOM     24  C   UNL     1      -0.610  10.056  23.148  0.00  0.00    +0.000 A 
ATOM     25  C   UNL     1      -0.812  11.278  22.511  0.00  0.00    +0.000 A 
ATOM     26  C   UNL     1      -0.302  11.486  21.231  0.00  0.00    +0.000 A 
ATOM     27  C   UNL     1       0.404  10.468  20.578  0.00  0.00    +0.000 A 
ENDBRANCH  20  22
ENDBRANCH  16  17
ENDBRANCH  15  16
ENDBRANCH   1  15
TORSDOF 6
ENDMDL
MODEL 5
REMARK VINA RESULT:      -8.1      2.252      8.187
REMARK  Name = 
REMARK  8 active torsions:
REMARK  status: ('A' for Active; 'I' for Inactive)
REMARK    1  A    between atoms: C_1  and  O_2
REMARK    2  A    between atoms: O_2  and  C_3
REMARK    3  A    between atoms: C_8  and  C_9
REMARK    4  A    between atoms: C_9  and  O_11
REMARK    5  A    between atoms: O_11  and  C_12
REMARK    6  A    between atoms: C_12  and  C_13
REMARK    7  A    between atoms: C_16  and  C_17
REMARK    8  A    between atoms: C_24  and  C_25
REMARK                            x       y       z     vdW  Elec       q    Type
REMARK                         _______ _______ _______ _____ _____    ______ ____
ROOT
ATOM      1  C   UNL     1       3.051   2.950  19.817  0.00  0.00    +0.000 C 
ATOM      2  O   UNL     1       2.459   1.878  19.798  0.00  0.00    +0.000 OA
ENDROOT
BRANCH   1   8
ATOM      3  C   UNL     1       6.891   5.158  15.730  0.00  0.00    +0.000 A 
ATOM      4  C   UNL     1       7.616   5.358  16.912  0.00  0.00    +0.000 A 
ATOM      5  C   UNL     1       7.113   4.966  18.159  0.00  0.00    +0.000 A 
ATOM      6  C   UNL     1       5.860   4.368  18.153  0.00  0.00    +0.000 A 
ATOM      7  O   UNL     1       5.192   3.922  19.244  0.00  0.00    +0.000 OA
ATOM      8  C   UNL     1       3.986   3.421  18.823  0.00  0.00    +0.000 A 
ATOM      9  C   UNL     1       3.889   3.537  17.441  0.00  0.00    +0.000 A 
ATOM     10  C   UNL     1       2.762   3.147  16.554  0.00  0.00    +0.000 C 
ATOM     11  C   UNL     1       5.104   4.152  17.012  0.00  0.00    +0.000 A 
ATOM     12  C   UNL     1       5.628   4.555  15.771  0.00  0.00    +0.000 A 
BRANCH   3  14
ATOM     13  C   UNL     1       7.278   4.832  13.413  0.00  0.00    +0.000 C 
ATOM     14  O   UNL     1       7.515   5.593  14.591  0.00  0.00    +0.000 OA
ENDBRANCH   3  14
ENDBRANCH   1   8
BRANCH   1  15
ATOM     15  O   UNL     1       2.844   3.925  20.746  0.00  0.00    +0.000 OA
BRANCH  15  16
ATOM     16  C   UNL     1       1.529   4.482  20.741  0.00  0.00    +0.000 C 
BRANCH  16  17
ATOM     17  C   UNL     1       1.626   5.953  20.550  0.00  0.00    +0.000 A 
ATOM     18  N   UNL     1       2.451   6.627  19.779  0.00  0.00    +0.000 NA
ATOM     19  N   UNL     1       2.138   7.957  19.941  0.00  0.00    +0.000 NA
ATOM     20  C   UNL     1       1.141   8.017  20.801  0.00  0.00    +0.000 A 
ATOM     21  O   UNL     1       0.758   6.774  21.238  0.00  0.00    +0.000 OA
BRANCH  20  22
ATOM     22  C   UNL     1       0.444   9.182  21.333  0.00  0.00    +0.000 A 
ATOM     23  C   UNL     1       0.358  10.337  20.537  0.00  0.00    +0.000 A 
ATOM     24  C   UNL     1      -0.269  11.494  21.006  0.00  0.00    +0.000 A 
ATOM     25  C   UNL     1      -0.823  11.512  22.283  0.00  0.00    +0.000 A 
ATOM     26  C   UNL     1      -0.761  10.371  23.082  0.00  0.00    +0.000 A 
ATOM     27  C   UNL     1      -0.133   9.211  22.611  0.00  0.00    +0.000 A 
ENDBRANCH  20  22
ENDBRANCH  16  17
ENDBRANCH  15  16
ENDBRANCH   1  15
TORSDOF 6
ENDMDL
MODEL 6
REMARK VINA RESULT:      -8.1      3.762      5.049
REMARK  Name = 
REMARK  8 active torsions:
REMARK  status: ('A' for Active; 'I' for Inactive)
REMARK    1  A    between atoms: C_1  and  O_2
REMARK    2  A    between atoms: O_2  and  C_3
REMARK    3  A    between atoms: C_8  and  C_9
REMARK    4  A    between atoms: C_9  and  O_11
REMARK    5  A    between atoms: O_11  and  C_12
REMARK    6  A    between atoms: C_12  and  C_13
REMARK    7  A    between atoms: C_16  and  C_17
REMARK    8  A    between atoms: C_24  and  C_25
REMARK                            x       y       z     vdW  Elec       q    Type
REMARK                         _______ _______ _______ _____ _____    ______ ____
ROOT
ATOM      1  C   UNL     1       5.100   4.562  18.527  0.00  0.00    +0.000 C 
ATOM      2  O   UNL     1       5.161   3.461  19.060  0.00  0.00    +0.000 OA
ENDROOT
BRANCH   1   8
ATOM      3  C   UNL     1       1.006   8.870  19.534  0.00  0.00    +0.000 A 
ATOM      4  C   UNL     1       1.618   9.350  18.370  0.00  0.00    +0.000 A 
ATOM      5  C   UNL     1       2.649   8.646  17.734  0.00  0.00    +0.000 A 
ATOM      6  C   UNL     1       3.024   7.446  18.325  0.00  0.00    +0.000 A 
ATOM      7  O   UNL     1       3.997   6.616  17.878  0.00  0.00    +0.000 OA
ATOM      8  C   UNL     1       4.076   5.556  18.746  0.00  0.00    +0.000 A 
ATOM      9  C   UNL     1       3.130   5.705  19.753  0.00  0.00    +0.000 A 
ATOM     10  C   UNL     1       2.864   4.818  20.916  0.00  0.00    +0.000 C 
ATOM     11  C   UNL     1       2.453   6.931  19.477  0.00  0.00    +0.000 A 
ATOM     12  C   UNL     1       1.421   7.656  20.099  0.00  0.00    +0.000 A 
BRANCH   3  14
ATOM     13  C   UNL     1      -0.876  10.242  19.085  0.00  0.00    +0.000 C 
ATOM     14  O   UNL     1       0.014   9.669  20.037  0.00  0.00    +0.000 OA
ENDBRANCH   3  14
ENDBRANCH   1   8
BRANCH   1  15
ATOM     15  O   UNL     1       6.058   5.069  17.701  0.00  0.00    +0.000 OA
BRANCH  15  16
ATOM     16  C   UNL     1       7.243   5.510  18.365  0.00  0.00    +0.000 C 
BRANCH  16  17
ATOM     17  C   UNL     1       7.502   6.929  18.006  0.00  0.00    +0.000 A 
ATOM     18  N   UNL     1       6.999   7.627  17.011  0.00  0.00    +0.000 NA
ATOM     19  N   UNL     1       7.535   8.891  17.110  0.00  0.00    +0.000 NA
ATOM     20  C   UNL     1       8.334   8.889  18.159  0.00  0.00    +0.000 A 
ATOM     21  O   UNL     1       8.366   7.668  18.784  0.00  0.00    +0.000 OA
BRANCH  20  22
ATOM     22  C   UNL     1       9.159   9.965  18.697  0.00  0.00    +0.000 A 
ATOM     23  C   UNL     1       9.131  10.208  20.081  0.00  0.00    +0.000 A 
ATOM     24  C   UNL     1       9.875  11.245  20.648  0.00  0.00    +0.000 A 
ATOM     25  C   UNL     1      10.663  12.056  19.836  0.00  0.00    +0.000 A 
ATOM     26  C   UNL     1      10.715  11.822  18.463  0.00  0.00    +0.000 A 
ATOM     27  C   UNL     1       9.969  10.781  17.895  0.00  0.00    +0.000 A 
ENDBRANCH  20  22
ENDBRANCH  16  17
ENDBRANCH  15  16
ENDBRANCH   1  15
TORSDOF 6
ENDMDL
MODEL 7
REMARK VINA RESULT:      -8.1      1.458      2.597
REMARK  Name = 
REMARK  8 active torsions:
REMARK  status: ('A' for Active; 'I' for Inactive)
REMARK    1  A    between atoms: C_1  and  O_2
REMARK    2  A    between atoms: O_2  and  C_3
REMARK    3  A    between atoms: C_8  and  C_9
REMARK    4  A    between atoms: C_9  and  O_11
REMARK    5  A    between atoms: O_11  and  C_12
REMARK    6  A    between atoms: C_12  and  C_13
REMARK    7  A    between atoms: C_16  and  C_17
REMARK    8  A    between atoms: C_24  and  C_25
REMARK                            x       y       z     vdW  Elec       q    Type
REMARK                         _______ _______ _______ _____ _____    ______ ____
ROOT
ATOM      1  C   UNL     1       2.864   5.471  19.902  0.00  0.00    +0.000 C 
ATOM      2  O   UNL     1       2.724   4.587  20.739  0.00  0.00    +0.000 OA
ENDROOT
BRANCH   1   8
ATOM      3  C   UNL     1       0.187  10.869  20.068  0.00  0.00    +0.000 A 
ATOM      4  C   UNL     1      -0.179  10.351  21.317  0.00  0.00    +0.000 A 
ATOM      5  C   UNL     1       0.246   9.086  21.743  0.00  0.00    +0.000 A 
ATOM      6  C   UNL     1       1.050   8.380  20.857  0.00  0.00    +0.000 A 
ATOM      7  O   UNL     1       1.562   7.144  21.070  0.00  0.00    +0.000 OA
ATOM      8  C   UNL     1       2.278   6.789  19.954  0.00  0.00    +0.000 A 
ATOM      9  C   UNL     1       2.234   7.820  19.023  0.00  0.00    +0.000 A 
ATOM     10  C   UNL     1       2.845   7.875  17.669  0.00  0.00    +0.000 C 
ATOM     11  C   UNL     1       1.436   8.848  19.612  0.00  0.00    +0.000 A 
ATOM     12  C   UNL     1       0.997  10.120  19.205  0.00  0.00    +0.000 A 
BRANCH   3  14
ATOM     13  C   UNL     1       0.197  13.182  20.597  0.00  0.00    +0.000 C 
ATOM     14  O   UNL     1      -0.304  12.118  19.795  0.00  0.00    +0.000 OA
ENDBRANCH   3  14
ENDBRANCH   1   8
BRANCH   1  15
ATOM     15  O   UNL     1       3.688   5.380  18.821  0.00  0.00    +0.000 OA
BRANCH  15  16
ATOM     16  C   UNL     1       5.061   5.147  19.138  0.00  0.00    +0.000 C 
BRANCH  16  17
ATOM     17  C   UNL     1       5.896   5.475  17.951  0.00  0.00    +0.000 A 
ATOM     18  N   UNL     1       6.866   6.358  17.851  0.00  0.00    +0.000 NA
ATOM     19  N   UNL     1       7.333   6.277  16.559  0.00  0.00    +0.000 NA
ATOM     20  C   UNL     1       6.621   5.352  15.948  0.00  0.00    +0.000 A 
ATOM     21  O   UNL     1       5.679   4.793  16.774  0.00  0.00    +0.000 OA
BRANCH  20  22
ATOM     22  C   UNL     1       6.695   4.887  14.567  0.00  0.00    +0.000 A 
ATOM     23  C   UNL     1       5.754   3.943  14.123  0.00  0.00    +0.000 A 
ATOM     24  C   UNL     1       5.796   3.438  12.821  0.00  0.00    +0.000 A 
ATOM     25  C   UNL     1       6.783   3.874  11.941  0.00  0.00    +0.000 A 
ATOM     26  C   UNL     1       7.717   4.820  12.359  0.00  0.00    +0.000 A 
ATOM     27  C   UNL     1       7.674   5.327  13.664  0.00  0.00    +0.000 A 
ENDBRANCH  20  22
ENDBRANCH  16  17
ENDBRANCH  15  16
ENDBRANCH   1  15
TORSDOF 6
ENDMDL
MODEL 8
REMARK VINA RESULT:      -8.1      1.213      1.714
REMARK  Name = 
REMARK  8 active torsions:
REMARK  status: ('A' for Active; 'I' for Inactive)
REMARK    1  A    between atoms: C_1  and  O_2
REMARK    2  A    between atoms: O_2  and  C_3
REMARK    3  A    between atoms: C_8  and  C_9
REMARK    4  A    between atoms: C_9  and  O_11
REMARK    5  A    between atoms: O_11  and  C_12
REMARK    6  A    between atoms: C_12  and  C_13
REMARK    7  A    between atoms: C_16  and  C_17
REMARK    8  A    between atoms: C_24  and  C_25
REMARK                            x       y       z     vdW  Elec       q    Type
REMARK                         _______ _______ _______ _____ _____    ______ ____
ROOT
ATOM      1  C   UNL     1       4.062   5.094  18.395  0.00  0.00    +0.000 C 
ATOM      2  O   UNL     1       3.700   3.991  18.006  0.00  0.00    +0.000 OA
ENDROOT
BRANCH   1   8
ATOM      3  C   UNL     1       0.667   9.847  19.884  0.00  0.00    +0.000 A 
ATOM      4  C   UNL     1       1.198  10.272  18.661  0.00  0.00    +0.000 A 
ATOM      5  C   UNL     1       2.057   9.460  17.908  0.00  0.00    +0.000 A 
ATOM      6  C   UNL     1       2.346   8.213  18.446  0.00  0.00    +0.000 A 
ATOM      7  O   UNL     1       3.154   7.280  17.887  0.00  0.00    +0.000 OA
ATOM      8  C   UNL     1       3.199   6.201  18.734  0.00  0.00    +0.000 A 
ATOM      9  C   UNL     1       2.398   6.444  19.843  0.00  0.00    +0.000 A 
ATOM     10  C   UNL     1       2.157   5.573  21.024  0.00  0.00    +0.000 C 
ATOM     11  C   UNL     1       1.849   7.748  19.653  0.00  0.00    +0.000 A 
ATOM     12  C   UNL     1       0.990   8.582  20.391  0.00  0.00    +0.000 A 
BRANCH   3  14
ATOM     13  C   UNL     1      -0.139  10.752  21.924  0.00  0.00    +0.000 C 
ATOM     14  O   UNL     1      -0.157  10.751  20.501  0.00  0.00    +0.000 OA
ENDBRANCH   3  14
ENDBRANCH   1   8
BRANCH   1  15
ATOM     15  O   UNL     1       5.356   5.427  18.664  0.00  0.00    +0.000 OA
BRANCH  15  16
ATOM     16  C   UNL     1       6.322   4.487  18.190  0.00  0.00    +0.000 C 
BRANCH  16  17
ATOM     17  C   UNL     1       6.613   4.771  16.759  0.00  0.00    +0.000 A 
ATOM     18  N   UNL     1       7.299   5.770  16.246  0.00  0.00    +0.000 NA
ATOM     19  N   UNL     1       7.296   5.583  14.882  0.00  0.00    +0.000 NA
ATOM     20  C   UNL     1       6.609   4.484  14.644  0.00  0.00    +0.000 A 
ATOM     21  O   UNL     1       6.138   3.908  15.797  0.00  0.00    +0.000 OA
BRANCH  20  22
ATOM     22  C   UNL     1       6.288   3.849  13.372  0.00  0.00    +0.000 A 
ATOM     23  C   UNL     1       4.938   3.723  13.002  0.00  0.00    +0.000 A 
ATOM     24  C   UNL     1       4.570   3.095  11.810  0.00  0.00    +0.000 A 
ATOM     25  C   UNL     1       5.551   2.583  10.966  0.00  0.00    +0.000 A 
ATOM     26  C   UNL     1       6.897   2.711  11.308  0.00  0.00    +0.000 A 
ATOM     27  C   UNL     1       7.265   3.341  12.503  0.00  0.00    +0.000 A 
ENDBRANCH  20  22
ENDBRANCH  16  17
ENDBRANCH  15  16
ENDBRANCH   1  15
TORSDOF 6
ENDMDL
MODEL 9
REMARK VINA RESULT:      -8.1      4.273      6.159
REMARK  Name = 
REMARK  8 active torsions:
REMARK  status: ('A' for Active; 'I' for Inactive)
REMARK    1  A    between atoms: C_1  and  O_2
REMARK    2  A    between atoms: O_2  and  C_3
REMARK    3  A    between atoms: C_8  and  C_9
REMARK    4  A    between atoms: C_9  and  O_11
REMARK    5  A    between atoms: O_11  and  C_12
REMARK    6  A    between atoms: C_12  and  C_13
REMARK    7  A    between atoms: C_16  and  C_17
REMARK    8  A    between atoms: C_24  and  C_25
REMARK                            x       y       z     vdW  Elec       q    Type
REMARK                         _______ _______ _______ _____ _____    ______ ____
ROOT
ATOM      1  C   UNL     1       6.151   5.830  16.250  0.00  0.00    +0.000 C 
ATOM      2  O   UNL     1       6.036   6.267  15.112  0.00  0.00    +0.000 OA
ENDROOT
BRANCH   1   8
ATOM      3  C   UNL     1       1.811   4.040  20.031  0.00  0.00    +0.000 A 
ATOM      4  C   UNL     1       1.918   5.394  20.369  0.00  0.00    +0.000 A 
ATOM      5  C   UNL     1       2.815   6.249  19.715  0.00  0.00    +0.000 A 
ATOM      6  C   UNL     1       3.588   5.675  18.715  0.00  0.00    +0.000 A 
ATOM      7  O   UNL     1       4.515   6.318  17.966  0.00  0.00    +0.000 OA
ATOM      8  C   UNL     1       5.072   5.402  17.109  0.00  0.00    +0.000 A 
ATOM      9  C   UNL     1       4.481   4.160  17.304  0.00  0.00    +0.000 A 
ATOM     10  C   UNL     1       4.775   2.873  16.620  0.00  0.00    +0.000 C 
ATOM     11  C   UNL     1       3.521   4.341  18.346  0.00  0.00    +0.000 A 
ATOM     12  C   UNL     1       2.614   3.502  19.017  0.00  0.00    +0.000 A 
BRANCH   3  14
ATOM     13  C   UNL     1       1.393   2.588  21.860  0.00  0.00    +0.000 C 
ATOM     14  O   UNL     1       0.889   3.335  20.757  0.00  0.00    +0.000 OA
ENDBRANCH   3  14
ENDBRANCH   1   8
BRANCH   1  15
ATOM     15  O   UNL     1       7.344   5.584  16.861  0.00  0.00    +0.000 OA
BRANCH  15  16
ATOM     16  C   UNL     1       7.481   6.171  18.156  0.00  0.00    +0.000 C 
BRANCH  16  17
ATOM     17  C   UNL     1       7.734   7.629  18.003  0.00  0.00    +0.000 A 
ATOM     18  N   UNL     1       7.151   8.480  17.187  0.00  0.00    +0.000 NA
ATOM     19  N   UNL     1       7.722   9.708  17.433  0.00  0.00    +0.000 NA
ATOM     20  C   UNL     1       8.619   9.534  18.383  0.00  0.00    +0.000 A 
ATOM     21  O   UNL     1       8.686   8.228  18.798  0.00  0.00    +0.000 OA
BRANCH  20  22
ATOM     22  C   UNL     1       9.516  10.504  18.999  0.00  0.00    +0.000 A 
ATOM     23  C   UNL     1      10.491  11.124  18.200  0.00  0.00    +0.000 A 
ATOM     24  C   UNL     1      11.397  12.038  18.743  0.00  0.00    +0.000 A 
ATOM     25  C   UNL     1      11.340  12.347  20.099  0.00  0.00    +0.000 A 
ATOM     26  C   UNL     1      10.371  11.753  20.906  0.00  0.00    +0.000 A 
ATOM     27  C   UNL     1       9.461  10.838  20.361  0.00  0.00    +0.000 A 
ENDBRANCH  20  22
ENDBRANCH  16  17
ENDBRANCH  15  16
ENDBRANCH   1  15
TORSDOF 6
ENDMDL
