MODEL 1
REMARK VINA RESULT:      -9.6      0.000      0.000
REMARK  Name = 
REMARK  4 active torsions:
REMARK  status: ('A' for Active; 'I' for Inactive)
REMARK    1  A    between atoms: C_1  and  C_2
REMARK    2  A    between atoms: C_2  and  C_3
REMARK    3  A    between atoms: C_8  and  N_9
REMARK    4  A    between atoms: N_12  and  C_13
REMARK                            x       y       z     vdW  Elec       q    Type
REMARK                         _______ _______ _______ _____ _____    ______ ____
ROOT
ATOM      1  N   UNL     1       3.151   7.025  17.972  0.00  0.00    +0.000 N 
ATOM      2  C   UNL     1       2.323   7.947  18.576  0.00  0.00    +0.000 C 
ATOM      3  O   UNL     1       2.040   7.920  19.766  0.00  0.00    +0.000 OA
ATOM      4  N   UNL     1       1.846   8.880  17.679  0.00  0.00    +0.000 N 
ATOM      5  H   UNL     1       3.550   7.272  17.078  0.00  0.00    +0.000 HD
ATOM      6  H   UNL     1       1.567   8.465  16.800  0.00  0.00    +0.000 HD
ENDROOT
BRANCH   4   7
ATOM      7  C   UNL     1       1.076   9.980  18.122  0.00  0.00    +0.000 A 
ATOM      8  C   UNL     1      -0.313   9.864  18.129  0.00  0.00    +0.000 A 
ATOM      9  C   UNL     1      -1.104  10.922  18.584  0.00  0.00    +0.000 A 
ATOM     10  C   UNL     1      -0.510  12.125  18.965  0.00  0.00    +0.000 A 
ATOM     11  C   UNL     1       0.879  12.266  18.892  0.00  0.00    +0.000 A 
ATOM     12  C   UNL     1       1.679  11.185  18.509  0.00  0.00    +0.000 A 
ATOM     13  N   UNL     1       1.458  13.519  19.114  0.00  0.00    +0.000 N 
ATOM     14  C   UNL     1       0.696  14.600  19.472  0.00  0.00    +0.000 C 
ATOM     15  O   UNL     1       1.155  15.739  19.505  0.00  0.00    +0.000 OA
ATOM     16  C   UNL     1      -0.722  14.252  19.921  0.00  0.00    +0.000 C 
ATOM     17  O   UNL     1      -1.362  13.132  19.326  0.00  0.00    +0.000 OA
ATOM     18  H   UNL     1       2.431  13.691  18.902  0.00  0.00    +0.000 HD
ENDBRANCH   4   7
BRANCH   1  22
ATOM     19  C   UNL     1       5.011   5.649  15.934  0.00  0.00    +0.000 C 
ATOM     20  C   UNL     1       5.608   5.043  17.220  0.00  0.00    +0.000 C 
ATOM     21  C   UNL     1       5.280   5.820  18.502  0.00  0.00    +0.000 C 
ATOM     22  C   UNL     1       3.776   5.952  18.741  0.00  0.00    +0.000 C 
ATOM     23  C   UNL     1       3.120   4.611  18.493  0.00  0.00    +0.000 A 
ATOM     24  C   UNL     1       1.816   4.360  18.946  0.00  0.00    +0.000 A 
ATOM     25  C   UNL     1       1.237   3.097  18.786  0.00  0.00    +0.000 A 
ATOM     26  C   UNL     1       1.955   2.070  18.176  0.00  0.00    +0.000 A 
ATOM     27  C   UNL     1       3.244   2.310  17.714  0.00  0.00    +0.000 A 
ATOM     28  C   UNL     1       3.819   3.575  17.854  0.00  0.00    +0.000 A 
ATOM     29  O   UNL     1       5.087   3.697  17.345  0.00  0.00    +0.000 OA
BRANCH  20  30
ATOM     30  C   UNL     1       7.159   4.979  17.072  0.00  0.00    +0.000 C 
ATOM     31  F   UNL     1       7.728   6.208  17.113  0.00  0.00    +0.000 F 
ATOM     32  F   UNL     1       7.743   4.256  18.059  0.00  0.00    +0.000 F 
ATOM     33  F   UNL     1       7.538   4.411  15.904  0.00  0.00    +0.000 F 
ENDBRANCH  20  30
ENDBRANCH   1  22
TORSDOF 3
ENDMDL
MODEL 2
REMARK VINA RESULT:      -9.3      1.103      1.103
REMARK  Name = 
REMARK  4 active torsions:
REMARK  status: ('A' for Active; 'I' for Inactive)
REMARK    1  A    between atoms: C_1  and  C_2
REMARK    2  A    between atoms: C_2  and  C_3
REMARK    3  A    between atoms: C_8  and  N_9
REMARK    4  A    between atoms: N_12  and  C_13
REMARK                            x       y       z     vdW  Elec       q    Type
REMARK                         _______ _______ _______ _____ _____    ______ ____
ROOT
ATOM      1  N   UNL     1       3.156   6.969  18.258  0.00  0.00    +0.000 N 
ATOM      2  C   UNL     1       2.238   7.752  18.925  0.00  0.00    +0.000 C 
ATOM      3  O   UNL     1       1.899   7.552  20.084  0.00  0.00    +0.000 OA
ATOM      4  N   UNL     1       1.745   8.765  18.129  0.00  0.00    +0.000 N 
ATOM      5  H   UNL     1       3.581   7.355  17.427  0.00  0.00    +0.000 HD
ATOM      6  H   UNL     1       1.538   8.452  17.190  0.00  0.00    +0.000 HD
ENDROOT
BRANCH   4   7
ATOM      7  C   UNL     1       0.881   9.748  18.664  0.00  0.00    +0.000 A 
ATOM      8  C   UNL     1      -0.336   9.987  18.027  0.00  0.00    +0.000 A 
ATOM      9  C   UNL     1      -1.224  10.934  18.543  0.00  0.00    +0.000 A 
ATOM     10  C   UNL     1      -0.867  11.695  19.655  0.00  0.00    +0.000 A 
ATOM     11  C   UNL     1       0.384  11.505  20.252  0.00  0.00    +0.000 A 
ATOM     12  C   UNL     1       1.244  10.507  19.785  0.00  0.00    +0.000 A 
ATOM     13  N   UNL     1       0.807  12.379  21.259  0.00  0.00    +0.000 N 
ATOM     14  C   UNL     1      -0.008  13.378  21.722  0.00  0.00    +0.000 C 
ATOM     15  O   UNL     1       0.402  14.256  22.477  0.00  0.00    +0.000 OA
ATOM     16  C   UNL     1      -1.472  13.241  21.306  0.00  0.00    +0.000 C 
ATOM     17  O   UNL     1      -1.764  12.651  20.048  0.00  0.00    +0.000 OA
ATOM     18  H   UNL     1       1.763  12.374  21.586  0.00  0.00    +0.000 HD
ENDBRANCH   4   7
BRANCH   1  22
ATOM     19  C   UNL     1       4.953   5.775  16.056  0.00  0.00    +0.000 C 
ATOM     20  C   UNL     1       5.597   5.074  17.269  0.00  0.00    +0.000 C 
ATOM     21  C   UNL     1       5.309   5.745  18.618  0.00  0.00    +0.000 C 
ATOM     22  C   UNL     1       3.813   5.845  18.918  0.00  0.00    +0.000 C 
ATOM     23  C   UNL     1       3.157   4.522  18.587  0.00  0.00    +0.000 A 
ATOM     24  C   UNL     1       1.871   4.225  19.062  0.00  0.00    +0.000 A 
ATOM     25  C   UNL     1       1.294   2.974  18.822  0.00  0.00    +0.000 A 
ATOM     26  C   UNL     1       1.997   2.004  18.109  0.00  0.00    +0.000 A 
ATOM     27  C   UNL     1       3.268   2.290  17.625  0.00  0.00    +0.000 A 
ATOM     28  C   UNL     1       3.840   3.546  17.845  0.00  0.00    +0.000 A 
ATOM     29  O   UNL     1       5.088   3.718  17.305  0.00  0.00    +0.000 OA
BRANCH  20  30
ATOM     30  C   UNL     1       7.142   5.035  17.065  0.00  0.00    +0.000 C 
ATOM     31  F   UNL     1       7.689   6.276  17.054  0.00  0.00    +0.000 F 
ATOM     32  F   UNL     1       7.777   4.349  18.046  0.00  0.00    +0.000 F 
ATOM     33  F   UNL     1       7.489   4.445  15.897  0.00  0.00    +0.000 F 
ENDBRANCH  20  30
ENDBRANCH   1  22
TORSDOF 3
ENDMDL
MODEL 3
REMARK VINA RESULT:      -9.2      1.615      2.252
REMARK  Name = 
REMARK  4 active torsions:
REMARK  status: ('A' for Active; 'I' for Inactive)
REMARK    1  A    between atoms: C_1  and  C_2
REMARK    2  A    between atoms: C_2  and  C_3
REMARK    3  A    between atoms: C_8  and  N_9
REMARK    4  A    between atoms: N_12  and  C_13
REMARK                            x       y       z     vdW  Elec       q    Type
REMARK                         _______ _______ _______ _____ _____    ______ ____
ROOT
ATOM      1  N   UNL     1       3.181   7.007  18.380  0.00  0.00    +0.000 N 
ATOM      2  C   UNL     1       2.209   7.721  19.048  0.00  0.00    +0.000 C 
ATOM      3  O   UNL     1       1.819   7.437  20.173  0.00  0.00    +0.000 OA
ATOM      4  N   UNL     1       1.727   8.770  18.295  0.00  0.00    +0.000 N 
ATOM      5  H   UNL     1       3.635   7.457  17.598  0.00  0.00    +0.000 HD
ATOM      6  H   UNL     1       1.576   8.515  17.327  0.00  0.00    +0.000 HD
ENDROOT
BRANCH   4   7
ATOM      7  C   UNL     1       0.810   9.694  18.846  0.00  0.00    +0.000 A 
ATOM      8  C   UNL     1       1.127  10.310  20.056  0.00  0.00    +0.000 A 
ATOM      9  C   UNL     1       0.255  11.247  20.617  0.00  0.00    +0.000 A 
ATOM     10  C   UNL     1      -0.969  11.516  20.006  0.00  0.00    +0.000 A 
ATOM     11  C   UNL     1      -1.319  10.845  18.830  0.00  0.00    +0.000 A 
ATOM     12  C   UNL     1      -0.418   9.964  18.225  0.00  0.00    +0.000 A 
ATOM     13  N   UNL     1      -2.609  10.991  18.310  0.00  0.00    +0.000 N 
ATOM     14  C   UNL     1      -3.519  11.833  18.894  0.00  0.00    +0.000 C 
ATOM     15  O   UNL     1      -4.702  11.847  18.560  0.00  0.00    +0.000 OA
ATOM     16  C   UNL     1      -2.918  12.810  19.903  0.00  0.00    +0.000 C 
ATOM     17  O   UNL     1      -1.794  12.389  20.662  0.00  0.00    +0.000 OA
ATOM     18  H   UNL     1      -2.944  10.393  17.568  0.00  0.00    +0.000 HD
ENDBRANCH   4   7
BRANCH   1  22
ATOM     19  C   UNL     1       4.951   5.870  16.127  0.00  0.00    +0.000 C 
ATOM     20  C   UNL     1       5.602   5.128  17.312  0.00  0.00    +0.000 C 
ATOM     21  C   UNL     1       5.329   5.759  18.684  0.00  0.00    +0.000 C 
ATOM     22  C   UNL     1       3.836   5.859  18.999  0.00  0.00    +0.000 C 
ATOM     23  C   UNL     1       3.169   4.551  18.634  0.00  0.00    +0.000 A 
ATOM     24  C   UNL     1       1.885   4.247  19.110  0.00  0.00    +0.000 A 
ATOM     25  C   UNL     1       1.298   3.007  18.837  0.00  0.00    +0.000 A 
ATOM     26  C   UNL     1       1.989   2.056  18.088  0.00  0.00    +0.000 A 
ATOM     27  C   UNL     1       3.257   2.349  17.602  0.00  0.00    +0.000 A 
ATOM     28  C   UNL     1       3.839   3.594  17.856  0.00  0.00    +0.000 A 
ATOM     29  O   UNL     1       5.084   3.775  17.310  0.00  0.00    +0.000 OA
BRANCH  20  30
ATOM     30  C   UNL     1       7.144   5.086  17.093  0.00  0.00    +0.000 C 
ATOM     31  F   UNL     1       7.478   4.537  15.900  0.00  0.00    +0.000 F 
ATOM     32  F   UNL     1       7.703   6.321  17.113  0.00  0.00    +0.000 F 
ATOM     33  F   UNL     1       7.777   4.363  18.047  0.00  0.00    +0.000 F 
ENDBRANCH  20  30
ENDBRANCH   1  22
TORSDOF 3
ENDMDL
MODEL 4
REMARK VINA RESULT:      -9.1      3.094      4.083
REMARK  Name = 
REMARK  4 active torsions:
REMARK  status: ('A' for Active; 'I' for Inactive)
REMARK    1  A    between atoms: C_1  and  C_2
REMARK    2  A    between atoms: C_2  and  C_3
REMARK    3  A    between atoms: C_8  and  N_9
REMARK    4  A    between atoms: N_12  and  C_13
REMARK                            x       y       z     vdW  Elec       q    Type
REMARK                         _______ _______ _______ _____ _____    ______ ____
ROOT
ATOM      1  N   UNL     1       2.629   6.784  19.632  0.00  0.00    +0.000 N 
ATOM      2  C   UNL     1       1.847   7.897  19.856  0.00  0.00    +0.000 C 
ATOM      3  O   UNL     1       1.250   8.490  18.967  0.00  0.00    +0.000 OA
ATOM      4  N   UNL     1       1.834   8.263  21.185  0.00  0.00    +0.000 N 
ATOM      5  H   UNL     1       2.851   6.203  20.428  0.00  0.00    +0.000 HD
ATOM      6  H   UNL     1       2.751   8.209  21.610  0.00  0.00    +0.000 HD
ENDROOT
BRANCH   4   7
ATOM      7  C   UNL     1       0.997   9.308  21.639  0.00  0.00    +0.000 A 
ATOM      8  C   UNL     1       0.095   9.042  22.668  0.00  0.00    +0.000 A 
ATOM      9  C   UNL     1      -0.730  10.058  23.158  0.00  0.00    +0.000 A 
ATOM     10  C   UNL     1      -0.706  11.323  22.571  0.00  0.00    +0.000 A 
ATOM     11  C   UNL     1       0.149  11.569  21.492  0.00  0.00    +0.000 A 
ATOM     12  C   UNL     1       1.029  10.579  21.048  0.00  0.00    +0.000 A 
ATOM     13  N   UNL     1       0.054  12.781  20.799  0.00  0.00    +0.000 N 
ATOM     14  C   UNL     1      -0.814  13.762  21.201  0.00  0.00    +0.000 C 
ATOM     15  O   UNL     1      -1.036  14.756  20.514  0.00  0.00    +0.000 OA
ATOM     16  C   UNL     1      -1.388  13.562  22.603  0.00  0.00    +0.000 C 
ATOM     17  O   UNL     1      -1.599  12.235  23.062  0.00  0.00    +0.000 OA
ATOM     18  H   UNL     1       0.532  12.919  19.920  0.00  0.00    +0.000 HD
ENDBRANCH   4   7
BRANCH   1  22
ATOM     19  C   UNL     1       3.123   3.786  20.154  0.00  0.00    +0.000 C 
ATOM     20  C   UNL     1       2.785   3.694  18.653  0.00  0.00    +0.000 C 
ATOM     21  C   UNL     1       2.019   4.903  18.098  0.00  0.00    +0.000 C 
ATOM     22  C   UNL     1       2.775   6.218  18.295  0.00  0.00    +0.000 C 
ATOM     23  C   UNL     1       4.224   6.013  17.912  0.00  0.00    +0.000 A 
ATOM     24  C   UNL     1       5.065   7.113  17.685  0.00  0.00    +0.000 A 
ATOM     25  C   UNL     1       6.383   6.927  17.257  0.00  0.00    +0.000 A 
ATOM     26  C   UNL     1       6.875   5.639  17.047  0.00  0.00    +0.000 A 
ATOM     27  C   UNL     1       6.055   4.541  17.278  0.00  0.00    +0.000 A 
ATOM     28  C   UNL     1       4.744   4.722  17.725  0.00  0.00    +0.000 A 
ATOM     29  O   UNL     1       4.037   3.566  17.935  0.00  0.00    +0.000 OA
BRANCH  20  30
ATOM     30  C   UNL     1       1.922   2.418  18.408  0.00  0.00    +0.000 C 
ATOM     31  F   UNL     1       2.250   1.792  17.252  0.00  0.00    +0.000 F 
ATOM     32  F   UNL     1       2.069   1.499  19.394  0.00  0.00    +0.000 F 
ATOM     33  F   UNL     1       0.600   2.701  18.340  0.00  0.00    +0.000 F 
ENDBRANCH  20  30
ENDBRANCH   1  22
TORSDOF 3
ENDMDL
MODEL 5
REMARK VINA RESULT:      -9.1      1.118      1.759
REMARK  Name = 
REMARK  4 active torsions:
REMARK  status: ('A' for Active; 'I' for Inactive)
REMARK    1  A    between atoms: C_1  and  C_2
REMARK    2  A    between atoms: C_2  and  C_3
REMARK    3  A    between atoms: C_8  and  N_9
REMARK    4  A    between atoms: N_12  and  C_13
REMARK                            x       y       z     vdW  Elec       q    Type
REMARK                         _______ _______ _______ _____ _____    ______ ____
ROOT
ATOM      1  N   UNL     1       2.823   6.848  18.216  0.00  0.00    +0.000 N 
ATOM      2  C   UNL     1       2.251   7.948  18.820  0.00  0.00    +0.000 C 
ATOM      3  O   UNL     1       2.202   8.100  20.033  0.00  0.00    +0.000 OA
ATOM      4  N   UNL     1       1.733   8.833  17.898  0.00  0.00    +0.000 N 
ATOM      5  H   UNL     1       3.070   6.928  17.240  0.00  0.00    +0.000 HD
ATOM      6  H   UNL     1       1.238   8.367  17.149  0.00  0.00    +0.000 HD
ENDROOT
BRANCH   4   7
ATOM      7  C   UNL     1       1.209  10.080  18.311  0.00  0.00    +0.000 A 
ATOM      8  C   UNL     1       2.048  11.193  18.303  0.00  0.00    +0.000 A 
ATOM      9  C   UNL     1       1.556  12.446  18.680  0.00  0.00    +0.000 A 
ATOM     10  C   UNL     1       0.244  12.573  19.135  0.00  0.00    +0.000 A 
ATOM     11  C   UNL     1      -0.576  11.443  19.210  0.00  0.00    +0.000 A 
ATOM     12  C   UNL     1      -0.113  10.203  18.763  0.00  0.00    +0.000 A 
ATOM     13  N   UNL     1      -1.831  11.541  19.820  0.00  0.00    +0.000 N 
ATOM     14  C   UNL     1      -2.304  12.741  20.285  0.00  0.00    +0.000 C 
ATOM     15  O   UNL     1      -3.319  12.819  20.972  0.00  0.00    +0.000 OA
ATOM     16  C   UNL     1      -1.525  13.960  19.791  0.00  0.00    +0.000 C 
ATOM     17  O   UNL     1      -0.132  13.820  19.556  0.00  0.00    +0.000 OA
ATOM     18  H   UNL     1      -2.370  10.716  20.042  0.00  0.00    +0.000 HD
ENDBRANCH   4   7
BRANCH   1  22
ATOM     19  C   UNL     1       5.051   5.771  16.377  0.00  0.00    +0.000 C 
ATOM     20  C   UNL     1       5.534   5.139  17.699  0.00  0.00    +0.000 C 
ATOM     21  C   UNL     1       4.971   5.804  18.963  0.00  0.00    +0.000 C 
ATOM     22  C   UNL     1       3.443   5.789  19.006  0.00  0.00    +0.000 C 
ATOM     23  C   UNL     1       2.955   4.413  18.606  0.00  0.00    +0.000 A 
ATOM     24  C   UNL     1       1.634   4.021  18.867  0.00  0.00    +0.000 A 
ATOM     25  C   UNL     1       1.202   2.725  18.567  0.00  0.00    +0.000 A 
ATOM     26  C   UNL     1       2.087   1.805  18.007  0.00  0.00    +0.000 A 
ATOM     27  C   UNL     1       3.396   2.184  17.735  0.00  0.00    +0.000 A 
ATOM     28  C   UNL     1       3.826   3.484  18.014  0.00  0.00    +0.000 A 
ATOM     29  O   UNL     1       5.130   3.748  17.686  0.00  0.00    +0.000 OA
BRANCH  20  30
ATOM     30  C   UNL     1       7.089   5.221  17.757  0.00  0.00    +0.000 C 
ATOM     31  F   UNL     1       7.565   6.345  17.168  0.00  0.00    +0.000 F 
ATOM     32  F   UNL     1       7.560   5.230  19.028  0.00  0.00    +0.000 F 
ATOM     33  F   UNL     1       7.680   4.173  17.136  0.00  0.00    +0.000 F 
ENDBRANCH  20  30
ENDBRANCH   1  22
TORSDOF 3
ENDMDL
MODEL 6
REMARK VINA RESULT:      -9.1      2.478      3.672
REMARK  Name = 
REMARK  4 active torsions:
REMARK  status: ('A' for Active; 'I' for Inactive)
REMARK    1  A    between atoms: C_1  and  C_2
REMARK    2  A    between atoms: C_2  and  C_3
REMARK    3  A    between atoms: C_8  and  N_9
REMARK    4  A    between atoms: N_12  and  C_13
REMARK                            x       y       z     vdW  Elec       q    Type
REMARK                         _______ _______ _______ _____ _____    ______ ____
ROOT
ATOM      1  N   UNL     1       2.241   7.152  18.777  0.00  0.00    +0.000 N 
ATOM      2  C   UNL     1       1.927   8.435  18.380  0.00  0.00    +0.000 C 
ATOM      3  O   UNL     1       2.036   8.828  17.226  0.00  0.00    +0.000 OA
ATOM      4  N   UNL     1       1.497   9.213  19.434  0.00  0.00    +0.000 N 
ATOM      5  H   UNL     1       1.868   6.833  19.659  0.00  0.00    +0.000 HD
ATOM      6  H   UNL     1       2.053   9.075  20.268  0.00  0.00    +0.000 HD
ENDROOT
BRANCH   4   7
ATOM      7  C   UNL     1       1.014  10.523  19.215  0.00  0.00    +0.000 A 
ATOM      8  C   UNL     1      -0.320  10.692  18.847  0.00  0.00    +0.000 A 
ATOM      9  C   UNL     1      -0.836  11.975  18.646  0.00  0.00    +0.000 A 
ATOM     10  C   UNL     1      -0.001  13.087  18.743  0.00  0.00    +0.000 A 
ATOM     11  C   UNL     1       1.353  12.913  19.043  0.00  0.00    +0.000 A 
ATOM     12  C   UNL     1       1.858  11.639  19.318  0.00  0.00    +0.000 A 
ATOM     13  N   UNL     1       2.221  14.008  18.976  0.00  0.00    +0.000 N 
ATOM     14  C   UNL     1       1.757  15.266  18.690  0.00  0.00    +0.000 C 
ATOM     15  O   UNL     1       2.517  16.203  18.458  0.00  0.00    +0.000 OA
ATOM     16  C   UNL     1       0.240  15.416  18.788  0.00  0.00    +0.000 C 
ATOM     17  O   UNL     1      -0.571  14.298  18.458  0.00  0.00    +0.000 OA
ATOM     18  H   UNL     1       3.223  13.884  19.017  0.00  0.00    +0.000 HD
ENDBRANCH   4   7
BRANCH   1  22
ATOM     19  C   UNL     1       2.609   4.609  20.479  0.00  0.00    +0.000 C 
ATOM     20  C   UNL     1       2.644   3.947  19.087  0.00  0.00    +0.000 C 
ATOM     21  C   UNL     1       2.029   4.795  17.965  0.00  0.00    +0.000 C 
ATOM     22  C   UNL     1       2.708   6.157  17.817  0.00  0.00    +0.000 C 
ATOM     23  C   UNL     1       4.208   5.965  17.871  0.00  0.00    +0.000 A 
ATOM     24  C   UNL     1       5.073   6.983  17.442  0.00  0.00    +0.000 A 
ATOM     25  C   UNL     1       6.457   6.780  17.419  0.00  0.00    +0.000 A 
ATOM     26  C   UNL     1       6.991   5.557  17.821  0.00  0.00    +0.000 A 
ATOM     27  C   UNL     1       6.145   4.545  18.258  0.00  0.00    +0.000 A 
ATOM     28  C   UNL     1       4.764   4.750  18.301  0.00  0.00    +0.000 A 
ATOM     29  O   UNL     1       4.033   3.688  18.767  0.00  0.00    +0.000 OA
BRANCH  20  30
ATOM     30  C   UNL     1       1.872   2.594  19.153  0.00  0.00    +0.000 C 
ATOM     31  F   UNL     1       1.570   2.239  20.426  0.00  0.00    +0.000 F 
ATOM     32  F   UNL     1       0.697   2.636  18.480  0.00  0.00    +0.000 F 
ATOM     33  F   UNL     1       2.584   1.573  18.621  0.00  0.00    +0.000 F 
ENDBRANCH  20  30
ENDBRANCH   1  22
TORSDOF 3
ENDMDL
MODEL 7
REMARK VINA RESULT:      -8.9      4.116      9.171
REMARK  Name = 
REMARK  4 active torsions:
REMARK  status: ('A' for Active; 'I' for Inactive)
REMARK    1  A    between atoms: C_1  and  C_2
REMARK    2  A    between atoms: C_2  and  C_3
REMARK    3  A    between atoms: C_8  and  N_9
REMARK    4  A    between atoms: N_12  and  C_13
REMARK                            x       y       z     vdW  Elec       q    Type
REMARK                         _______ _______ _______ _____ _____    ______ ____
ROOT
ATOM      1  N   UNL     1       1.135   9.755  19.160  0.00  0.00    +0.000 N 
ATOM      2  C   UNL     1       1.713   8.823  18.324  0.00  0.00    +0.000 C 
ATOM      3  O   UNL     1       1.778   8.957  17.110  0.00  0.00    +0.000 OA
ATOM      4  N   UNL     1       2.188   7.729  19.017  0.00  0.00    +0.000 N 
ATOM      5  H   UNL     1       1.366   9.707  20.142  0.00  0.00    +0.000 HD
ATOM      6  H   UNL     1       1.547   7.419  19.736  0.00  0.00    +0.000 HD
ENDROOT
BRANCH   4   7
ATOM      7  C   UNL     1       2.920   6.717  18.356  0.00  0.00    +0.000 A 
ATOM      8  C   UNL     1       2.596   5.384  18.607  0.00  0.00    +0.000 A 
ATOM      9  C   UNL     1       3.284   4.359  17.952  0.00  0.00    +0.000 A 
ATOM     10  C   UNL     1       4.344   4.663  17.099  0.00  0.00    +0.000 A 
ATOM     11  C   UNL     1       4.715   5.997  16.902  0.00  0.00    +0.000 A 
ATOM     12  C   UNL     1       3.983   7.028  17.496  0.00  0.00    +0.000 A 
ATOM     13  N   UNL     1       5.878   6.290  16.181  0.00  0.00    +0.000 N 
ATOM     14  C   UNL     1       6.625   5.297  15.604  0.00  0.00    +0.000 C 
ATOM     15  O   UNL     1       7.732   5.515  15.118  0.00  0.00    +0.000 OA
ATOM     16  C   UNL     1       5.923   3.942  15.527  0.00  0.00    +0.000 C 
ATOM     17  O   UNL     1       5.010   3.597  16.558  0.00  0.00    +0.000 OA
ATOM     18  H   UNL     1       6.263   7.224  16.168  0.00  0.00    +0.000 HD
ENDBRANCH   4   7
BRANCH   1  22
ATOM     19  C   UNL     1      -0.057  11.130  21.648  0.00  0.00    +0.000 C 
ATOM     20  C   UNL     1      -0.062  12.348  20.701  0.00  0.00    +0.000 C 
ATOM     21  C   UNL     1       0.883  12.222  19.499  0.00  0.00    +0.000 C 
ATOM     22  C   UNL     1       0.577  10.998  18.636  0.00  0.00    +0.000 C 
ATOM     23  C   UNL     1      -0.918  10.910  18.421  0.00  0.00    +0.000 A 
ATOM     24  C   UNL     1      -1.448  10.088  17.415  0.00  0.00    +0.000 A 
ATOM     25  C   UNL     1      -2.824  10.065  17.165  0.00  0.00    +0.000 A 
ATOM     26  C   UNL     1      -3.685  10.864  17.915  0.00  0.00    +0.000 A 
ATOM     27  C   UNL     1      -3.173  11.675  18.921  0.00  0.00    +0.000 A 
ATOM     28  C   UNL     1      -1.802  11.687  19.187  0.00  0.00    +0.000 A 
ATOM     29  O   UNL     1      -1.416  12.510  20.214  0.00  0.00    +0.000 OA
BRANCH  20  30
ATOM     30  C   UNL     1       0.347  13.616  21.511  0.00  0.00    +0.000 C 
ATOM     31  F   UNL     1      -0.139  14.754  20.959  0.00  0.00    +0.000 F 
ATOM     32  F   UNL     1      -0.111  13.585  22.786  0.00  0.00    +0.000 F 
ATOM     33  F   UNL     1       1.690  13.762  21.589  0.00  0.00    +0.000 F 
ENDBRANCH  20  30
ENDBRANCH   1  22
TORSDOF 3
ENDMDL
MODEL 8
REMARK VINA RESULT:      -8.8      5.692      7.078
REMARK  Name = 
REMARK  4 active torsions:
REMARK  status: ('A' for Active; 'I' for Inactive)
REMARK    1  A    between atoms: C_1  and  C_2
REMARK    2  A    between atoms: C_2  and  C_3
REMARK    3  A    between atoms: C_8  and  N_9
REMARK    4  A    between atoms: N_12  and  C_13
REMARK                            x       y       z     vdW  Elec       q    Type
REMARK                         _______ _______ _______ _____ _____    ______ ____
ROOT
ATOM      1  N   UNL     1       6.946   7.120  17.195  0.00  0.00    +0.000 N 
ATOM      2  C   UNL     1       7.845   7.813  17.978  0.00  0.00    +0.000 C 
ATOM      3  O   UNL     1       8.550   7.281  18.824  0.00  0.00    +0.000 OA
ATOM      4  N   UNL     1       7.837   9.164  17.703  0.00  0.00    +0.000 N 
ATOM      5  H   UNL     1       6.618   7.570  16.353  0.00  0.00    +0.000 HD
ATOM      6  H   UNL     1       6.901   9.529  17.583  0.00  0.00    +0.000 HD
ENDROOT
BRANCH   4   7
ATOM      7  C   UNL     1       8.772  10.031  18.315  0.00  0.00    +0.000 A 
ATOM      8  C   UNL     1       8.893  10.011  19.704  0.00  0.00    +0.000 A 
ATOM      9  C   UNL     1       9.823  10.836  20.340  0.00  0.00    +0.000 A 
ATOM     10  C   UNL     1      10.584  11.736  19.594  0.00  0.00    +0.000 A 
ATOM     11  C   UNL     1      10.412  11.807  18.208  0.00  0.00    +0.000 A 
ATOM     12  C   UNL     1       9.537  10.931  17.559  0.00  0.00    +0.000 A 
ATOM     13  N   UNL     1      11.051  12.819  17.484  0.00  0.00    +0.000 N 
ATOM     14  C   UNL     1      11.900  13.703  18.097  0.00  0.00    +0.000 C 
ATOM     15  O   UNL     1      12.333  14.697  17.519  0.00  0.00    +0.000 OA
ATOM     16  C   UNL     1      12.332  13.291  19.503  0.00  0.00    +0.000 C 
ATOM     17  O   UNL     1      11.416  12.558  20.304  0.00  0.00    +0.000 OA
ATOM     18  H   UNL     1      10.814  13.001  16.519  0.00  0.00    +0.000 HD
ENDBRANCH   4   7
BRANCH   1  22
ATOM     19  C   UNL     1       5.248   6.352  14.739  0.00  0.00    +0.000 C 
ATOM     20  C   UNL     1       5.749   4.941  15.109  0.00  0.00    +0.000 C 
ATOM     21  C   UNL     1       7.001   4.924  15.997  0.00  0.00    +0.000 C 
ATOM     22  C   UNL     1       6.798   5.673  17.314  0.00  0.00    +0.000 C 
ATOM     23  C   UNL     1       5.461   5.278  17.902  0.00  0.00    +0.000 A 
ATOM     24  C   UNL     1       5.162   5.556  19.244  0.00  0.00    +0.000 A 
ATOM     25  C   UNL     1       3.957   5.124  19.810  0.00  0.00    +0.000 A 
ATOM     26  C   UNL     1       3.041   4.408  19.042  0.00  0.00    +0.000 A 
ATOM     27  C   UNL     1       3.321   4.136  17.709  0.00  0.00    +0.000 A 
ATOM     28  C   UNL     1       4.514   4.582  17.134  0.00  0.00    +0.000 A 
ATOM     29  O   UNL     1       4.673   4.270  15.808  0.00  0.00    +0.000 OA
BRANCH  20  30
ATOM     30  C   UNL     1       6.072   4.163  13.797  0.00  0.00    +0.000 C 
ATOM     31  F   UNL     1       7.076   4.739  13.093  0.00  0.00    +0.000 F 
ATOM     32  F   UNL     1       6.458   2.886  14.036  0.00  0.00    +0.000 F 
ATOM     33  F   UNL     1       5.004   4.092  12.969  0.00  0.00    +0.000 F 
ENDBRANCH  20  30
ENDBRANCH   1  22
TORSDOF 3
ENDMDL
MODEL 9
REMARK VINA RESULT:      -8.7      1.551      2.081
REMARK  Name = 
REMARK  4 active torsions:
REMARK  status: ('A' for Active; 'I' for Inactive)
REMARK    1  A    between atoms: C_1  and  C_2
REMARK    2  A    between atoms: C_2  and  C_3
REMARK    3  A    between atoms: C_8  and  N_9
REMARK    4  A    between atoms: N_12  and  C_13
REMARK                            x       y       z     vdW  Elec       q    Type
REMARK                         _______ _______ _______ _____ _____    ______ ____
ROOT
ATOM      1  N   UNL     1       2.951   6.944  18.506  0.00  0.00    +0.000 N 
ATOM      2  C   UNL     1       2.261   7.895  19.228  0.00  0.00    +0.000 C 
ATOM      3  O   UNL     1       2.124   7.848  20.443  0.00  0.00    +0.000 OA
ATOM      4  N   UNL     1       1.738   8.881  18.419  0.00  0.00    +0.000 N 
ATOM      5  H   UNL     1       3.252   7.194  17.575  0.00  0.00    +0.000 HD
ATOM      6  H   UNL     1       1.328   8.510  17.571  0.00  0.00    +0.000 HD
ENDROOT
BRANCH   4   7
ATOM      7  C   UNL     1       1.097  10.010  18.978  0.00  0.00    +0.000 A 
ATOM      8  C   UNL     1       1.462  11.278  18.527  0.00  0.00    +0.000 A 
ATOM      9  C   UNL     1       0.832  12.414  19.040  0.00  0.00    +0.000 A 
ATOM     10  C   UNL     1      -0.114  12.290  20.058  0.00  0.00    +0.000 A 
ATOM     11  C   UNL     1      -0.428  11.023  20.561  0.00  0.00    +0.000 A 
ATOM     12  C   UNL     1       0.145   9.878  19.999  0.00  0.00    +0.000 A 
ATOM     13  N   UNL     1      -1.247  10.912  21.689  0.00  0.00    +0.000 N 
ATOM     14  C   UNL     1      -1.807  12.019  22.272  0.00  0.00    +0.000 C 
ATOM     15  O   UNL     1      -2.384  11.963  23.355  0.00  0.00    +0.000 OA
ATOM     16  C   UNL     1      -1.740  13.284  21.418  0.00  0.00    +0.000 C 
ATOM     17  O   UNL     1      -0.625  13.457  20.554  0.00  0.00    +0.000 OA
ATOM     18  H   UNL     1      -1.352  10.032  22.174  0.00  0.00    +0.000 HD
ENDBRANCH   4   7
BRANCH   1  22
ATOM     19  C   UNL     1       4.936   5.895  16.393  0.00  0.00    +0.000 C 
ATOM     20  C   UNL     1       5.516   5.164  17.621  0.00  0.00    +0.000 C 
ATOM     21  C   UNL     1       5.112   5.770  18.971  0.00  0.00    +0.000 C 
ATOM     22  C   UNL     1       3.596   5.814  19.167  0.00  0.00    +0.000 C 
ATOM     23  C   UNL     1       3.009   4.486  18.739  0.00  0.00    +0.000 A 
ATOM     24  C   UNL     1       1.703   4.132  19.108  0.00  0.00    +0.000 A 
ATOM     25  C   UNL     1       1.185   2.874  18.779  0.00  0.00    +0.000 A 
ATOM     26  C   UNL     1       1.968   1.957  18.081  0.00  0.00    +0.000 A 
ATOM     27  C   UNL     1       3.260   2.300  17.701  0.00  0.00    +0.000 A 
ATOM     28  C   UNL     1       3.773   3.562  18.010  0.00  0.00    +0.000 A 
ATOM     29  O   UNL     1       5.051   3.793  17.567  0.00  0.00    +0.000 OA
BRANCH  20  30
ATOM     30  C   UNL     1       7.072   5.181  17.526  0.00  0.00    +0.000 C 
ATOM     31  F   UNL     1       7.661   4.965  18.728  0.00  0.00    +0.000 F 
ATOM     32  F   UNL     1       7.549   4.225  16.692  0.00  0.00    +0.000 F 
ATOM     33  F   UNL     1       7.544   6.363  17.066  0.00  0.00    +0.000 F 
ENDBRANCH  20  30
ENDBRANCH   1  22
TORSDOF 3
ENDMDL
