MODEL 1
REMARK VINA RESULT:      -7.2      0.000      0.000
REMARK  Name = 
REMARK  3 active torsions:
REMARK  status: ('A' for Active; 'I' for Inactive)
REMARK    1  A    between atoms: C_1  and  C_2
REMARK    2  A    between atoms: C_4  and  C_5
REMARK    3  A    between atoms: C_8  and  C_9
REMARK                            x       y       z     vdW  Elec       q    Type
REMARK                         _______ _______ _______ _____ _____    ______ ____
ROOT
ATOM      1  C   UNL     1       5.596   4.524  17.020  0.00  0.00    +0.000 A 
ATOM      2  C   UNL     1       6.144   4.835  18.247  0.00  0.00    +0.000 A 
ATOM      3  C   UNL     1       5.218   4.621  19.314  0.00  0.00    +0.000 A 
ATOM      4  C   UNL     1       4.009   4.132  18.861  0.00  0.00    +0.000 A 
ATOM      5  S   UNL     1       3.991   3.966  17.162  0.00  0.00    +0.000 S 
ENDROOT
BRANCH   1   9
ATOM      6  C   UNL     1       6.918   4.027  12.277  0.00  0.00    +0.000 C 
ATOM      7  C   UNL     1       6.819   4.351  13.709  0.00  0.00    +0.000 A 
ATOM      8  N   UNL     1       6.000   3.881  14.622  0.00  0.00    +0.000 NA
ATOM      9  C   UNL     1       6.328   4.640  15.723  0.00  0.00    +0.000 A 
ATOM     10  N   UNL     1       7.331   5.507  15.517  0.00  0.00    +0.000 NA
ATOM     11  O   UNL     1       7.661   5.314  14.178  0.00  0.00    +0.000 OA
ENDBRANCH   1   9
BRANCH   4  12
ATOM     12  C   UNL     1       2.851   3.787  19.744  0.00  0.00    +0.000 A 
ATOM     13  C   UNL     1       2.852   2.870  20.821  0.00  0.00    +0.000 A 
ATOM     14  C   UNL     1       1.567   2.904  21.296  0.00  0.00    +0.000 A 
ATOM     15  O   UNL     1       0.839   3.783  20.566  0.00  0.00    +0.000 OA
ATOM     16  N   UNL     1       1.640   4.347  19.589  0.00  0.00    +0.000 NA
ENDBRANCH   4  12
TORSDOF 2
ENDMDL
MODEL 2
REMARK VINA RESULT:      -7.1      0.999      1.038
REMARK  Name = 
REMARK  3 active torsions:
REMARK  status: ('A' for Active; 'I' for Inactive)
REMARK    1  A    between atoms: C_1  and  C_2
REMARK    2  A    between atoms: C_4  and  C_5
REMARK    3  A    between atoms: C_8  and  C_9
REMARK                            x       y       z     vdW  Elec       q    Type
REMARK                         _______ _______ _______ _____ _____    ______ ____
ROOT
ATOM      1  C   UNL     1       5.811   4.689  17.013  0.00  0.00    +0.000 A 
ATOM      2  C   UNL     1       6.256   5.360  18.133  0.00  0.00    +0.000 A 
ATOM      3  C   UNL     1       5.430   5.105  19.272  0.00  0.00    +0.000 A 
ATOM      4  C   UNL     1       4.402   4.231  18.981  0.00  0.00    +0.000 A 
ATOM      5  S   UNL     1       4.423   3.754  17.341  0.00  0.00    +0.000 S 
ENDROOT
BRANCH   1   9
ATOM      6  C   UNL     1       6.902   4.001  12.236  0.00  0.00    +0.000 C 
ATOM      7  C   UNL     1       6.870   4.385  13.656  0.00  0.00    +0.000 A 
ATOM      8  N   UNL     1       6.103   3.947  14.628  0.00  0.00    +0.000 NA
ATOM      9  C   UNL     1       6.476   4.756  15.678  0.00  0.00    +0.000 A 
ATOM     10  N   UNL     1       7.458   5.622  15.385  0.00  0.00    +0.000 NA
ATOM     11  O   UNL     1       7.724   5.375  14.041  0.00  0.00    +0.000 OA
ENDBRANCH   1   9
BRANCH   4  12
ATOM     12  C   UNL     1       3.388   3.756  19.973  0.00  0.00    +0.000 A 
ATOM     13  C   UNL     1       2.289   4.490  20.477  0.00  0.00    +0.000 A 
ATOM     14  C   UNL     1       1.678   3.629  21.350  0.00  0.00    +0.000 A 
ATOM     15  O   UNL     1       2.353   2.454  21.372  0.00  0.00    +0.000 OA
ATOM     16  N   UNL     1       3.428   2.523  20.504  0.00  0.00    +0.000 NA
ENDBRANCH   4  12
TORSDOF 2
ENDMDL
MODEL 3
REMARK VINA RESULT:      -6.9      1.512      6.889
REMARK  Name = 
REMARK  3 active torsions:
REMARK  status: ('A' for Active; 'I' for Inactive)
REMARK    1  A    between atoms: C_1  and  C_2
REMARK    2  A    between atoms: C_4  and  C_5
REMARK    3  A    between atoms: C_8  and  C_9
REMARK                            x       y       z     vdW  Elec       q    Type
REMARK                         _______ _______ _______ _____ _____    ______ ____
ROOT
ATOM      1  C   UNL     1       5.310   4.009  17.996  0.00  0.00    +0.000 A 
ATOM      2  C   UNL     1       6.502   4.674  18.192  0.00  0.00    +0.000 A 
ATOM      3  C   UNL     1       7.171   4.944  16.958  0.00  0.00    +0.000 A 
ATOM      4  C   UNL     1       6.451   4.496  15.869  0.00  0.00    +0.000 A 
ATOM      5  S   UNL     1       5.000   3.731  16.342  0.00  0.00    +0.000 S 
ENDROOT
BRANCH   1   9
ATOM      6  C   UNL     1       1.349   3.575  20.931  0.00  0.00    +0.000 C 
ATOM      7  C   UNL     1       2.673   3.501  20.293  0.00  0.00    +0.000 A 
ATOM      8  N   UNL     1       3.169   4.205  19.302  0.00  0.00    +0.000 NA
ATOM      9  C   UNL     1       4.389   3.600  19.099  0.00  0.00    +0.000 A 
ATOM     10  N   UNL     1       4.657   2.599  19.951  0.00  0.00    +0.000 NA
ATOM     11  O   UNL     1       3.518   2.533  20.749  0.00  0.00    +0.000 OA
ENDBRANCH   1   9
BRANCH   4  12
ATOM     12  C   UNL     1       6.881   4.656  14.445  0.00  0.00    +0.000 A 
ATOM     13  C   UNL     1       6.364   3.967  13.323  0.00  0.00    +0.000 A 
ATOM     14  C   UNL     1       7.084   4.455  12.264  0.00  0.00    +0.000 A 
ATOM     15  O   UNL     1       7.971   5.378  12.708  0.00  0.00    +0.000 OA
ATOM     16  N   UNL     1       7.846   5.515  14.080  0.00  0.00    +0.000 NA
ENDBRANCH   4  12
TORSDOF 2
ENDMDL
MODEL 4
REMARK VINA RESULT:      -6.9      1.057      6.871
REMARK  Name = 
REMARK  3 active torsions:
REMARK  status: ('A' for Active; 'I' for Inactive)
REMARK    1  A    between atoms: C_1  and  C_2
REMARK    2  A    between atoms: C_4  and  C_5
REMARK    3  A    between atoms: C_8  and  C_9
REMARK                            x       y       z     vdW  Elec       q    Type
REMARK                         _______ _______ _______ _____ _____    ______ ____
ROOT
ATOM      1  C   UNL     1       4.594   4.508  18.584  0.00  0.00    +0.000 A 
ATOM      2  C   UNL     1       5.893   4.822  18.923  0.00  0.00    +0.000 A 
ATOM      3  C   UNL     1       6.732   4.940  17.771  0.00  0.00    +0.000 A 
ATOM      4  C   UNL     1       6.034   4.734  16.598  0.00  0.00    +0.000 A 
ATOM      5  S   UNL     1       4.391   4.373  16.895  0.00  0.00    +0.000 S 
ENDROOT
BRANCH   1   9
ATOM      6  C   UNL     1       1.472   2.537  21.878  0.00  0.00    +0.000 C 
ATOM      7  C   UNL     1       2.203   3.401  20.938  0.00  0.00    +0.000 A 
ATOM      8  N   UNL     1       3.132   3.093  20.062  0.00  0.00    +0.000 NA
ATOM      9  C   UNL     1       3.490   4.330  19.574  0.00  0.00    +0.000 A 
ATOM     10  N   UNL     1       2.789   5.351  20.088  0.00  0.00    +0.000 NA
ATOM     11  O   UNL     1       1.929   4.735  20.994  0.00  0.00    +0.000 OA
ENDBRANCH   1   9
BRANCH   4  12
ATOM     12  C   UNL     1       6.634   4.814  15.230  0.00  0.00    +0.000 A 
ATOM     13  C   UNL     1       6.213   4.107  14.079  0.00  0.00    +0.000 A 
ATOM     14  C   UNL     1       7.076   4.515  13.097  0.00  0.00    +0.000 A 
ATOM     15  O   UNL     1       7.954   5.411  13.610  0.00  0.00    +0.000 OA
ATOM     16  N   UNL     1       7.680   5.609  14.952  0.00  0.00    +0.000 NA
ENDBRANCH   4  12
TORSDOF 2
ENDMDL
MODEL 5
REMARK VINA RESULT:      -6.9      0.957      1.058
REMARK  Name = 
REMARK  3 active torsions:
REMARK  status: ('A' for Active; 'I' for Inactive)
REMARK    1  A    between atoms: C_1  and  C_2
REMARK    2  A    between atoms: C_4  and  C_5
REMARK    3  A    between atoms: C_8  and  C_9
REMARK                            x       y       z     vdW  Elec       q    Type
REMARK                         _______ _______ _______ _____ _____    ______ ____
ROOT
ATOM      1  C   UNL     1       4.979   5.048  16.544  0.00  0.00    +0.000 A 
ATOM      2  C   UNL     1       4.487   6.213  17.091  0.00  0.00    +0.000 A 
ATOM      3  C   UNL     1       3.527   5.957  18.119  0.00  0.00    +0.000 A 
ATOM      4  C   UNL     1       3.343   4.605  18.330  0.00  0.00    +0.000 A 
ATOM      5  S   UNL     1       4.300   3.664  17.274  0.00  0.00    +0.000 S 
ENDROOT
BRANCH   1   9
ATOM      6  C   UNL     1       7.234   4.285  12.205  0.00  0.00    +0.000 C 
ATOM      7  C   UNL     1       6.875   4.616  13.593  0.00  0.00    +0.000 A 
ATOM      8  N   UNL     1       5.783   4.340  14.267  0.00  0.00    +0.000 NA
ATOM      9  C   UNL     1       6.002   5.000  15.456  0.00  0.00    +0.000 A 
ATOM     10  N   UNL     1       7.190   5.618  15.534  0.00  0.00    +0.000 NA
ATOM     11  O   UNL     1       7.775   5.361  14.296  0.00  0.00    +0.000 OA
ENDBRANCH   1   9
BRANCH   4  12
ATOM     12  C   UNL     1       2.421   4.026  19.356  0.00  0.00    +0.000 A 
ATOM     13  C   UNL     1       2.719   3.775  20.716  0.00  0.00    +0.000 A 
ATOM     14  C   UNL     1       1.563   3.242  21.223  0.00  0.00    +0.000 A 
ATOM     15  O   UNL     1       0.627   3.179  20.245  0.00  0.00    +0.000 OA
ATOM     16  N   UNL     1       1.157   3.676  19.067  0.00  0.00    +0.000 NA
ENDBRANCH   4  12
TORSDOF 2
ENDMDL
MODEL 6
REMARK VINA RESULT:      -6.9      1.263      1.398
REMARK  Name = 
REMARK  3 active torsions:
REMARK  status: ('A' for Active; 'I' for Inactive)
REMARK    1  A    between atoms: C_1  and  C_2
REMARK    2  A    between atoms: C_4  and  C_5
REMARK    3  A    between atoms: C_8  and  C_9
REMARK                            x       y       z     vdW  Elec       q    Type
REMARK                         _______ _______ _______ _____ _____    ______ ____
ROOT
ATOM      1  C   UNL     1       4.944   4.828  16.975  0.00  0.00    +0.000 A 
ATOM      2  C   UNL     1       4.144   5.887  17.350  0.00  0.00    +0.000 A 
ATOM      3  C   UNL     1       3.312   5.559  18.465  0.00  0.00    +0.000 A 
ATOM      4  C   UNL     1       3.528   4.271  18.912  0.00  0.00    +0.000 A 
ATOM      5  S   UNL     1       4.701   3.464  17.970  0.00  0.00    +0.000 S 
ENDROOT
BRANCH   1   9
ATOM      6  C   UNL     1       7.093   4.263  12.554  0.00  0.00    +0.000 C 
ATOM      7  C   UNL     1       6.757   4.567  13.953  0.00  0.00    +0.000 A 
ATOM      8  N   UNL     1       5.726   4.187  14.672  0.00  0.00    +0.000 NA
ATOM      9  C   UNL     1       5.923   4.876  15.848  0.00  0.00    +0.000 A 
ATOM     10  N   UNL     1       7.043   5.613  15.875  0.00  0.00    +0.000 NA
ATOM     11  O   UNL     1       7.603   5.406  14.617  0.00  0.00    +0.000 OA
ENDBRANCH   1   9
BRANCH   4  12
ATOM     12  C   UNL     1       2.825   3.649  20.077  0.00  0.00    +0.000 A 
ATOM     13  C   UNL     1       1.504   3.916  20.508  0.00  0.00    +0.000 A 
ATOM     14  C   UNL     1       1.337   3.112  21.604  0.00  0.00    +0.000 A 
ATOM     15  O   UNL     1       2.470   2.402  21.821  0.00  0.00    +0.000 OA
ATOM     16  N   UNL     1       3.411   2.730  20.861  0.00  0.00    +0.000 NA
ENDBRANCH   4  12
TORSDOF 2
ENDMDL
MODEL 7
REMARK VINA RESULT:      -6.7      1.283      6.977
REMARK  Name = 
REMARK  3 active torsions:
REMARK  status: ('A' for Active; 'I' for Inactive)
REMARK    1  A    between atoms: C_1  and  C_2
REMARK    2  A    between atoms: C_4  and  C_5
REMARK    3  A    between atoms: C_8  and  C_9
REMARK                            x       y       z     vdW  Elec       q    Type
REMARK                         _______ _______ _______ _____ _____    ______ ____
ROOT
ATOM      1  C   UNL     1       3.450   4.488  18.069  0.00  0.00    +0.000 A 
ATOM      2  C   UNL     1       3.601   5.853  17.946  0.00  0.00    +0.000 A 
ATOM      3  C   UNL     1       4.600   6.195  16.982  0.00  0.00    +0.000 A 
ATOM      4  C   UNL     1       5.154   5.077  16.391  0.00  0.00    +0.000 A 
ATOM      5  S   UNL     1       4.492   3.635  17.022  0.00  0.00    +0.000 S 
ENDROOT
BRANCH   1   9
ATOM      6  C   UNL     1       1.348   2.478  22.073  0.00  0.00    +0.000 C 
ATOM      7  C   UNL     1       1.681   2.980  20.731  0.00  0.00    +0.000 A 
ATOM      8  N   UNL     1       2.828   3.406  20.253  0.00  0.00    +0.000 NA
ATOM      9  C   UNL     1       2.476   3.833  18.992  0.00  0.00    +0.000 A 
ATOM     10  N   UNL     1       1.184   3.640  18.685  0.00  0.00    +0.000 NA
ATOM     11  O   UNL     1       0.654   3.069  19.839  0.00  0.00    +0.000 OA
ENDBRANCH   1   9
BRANCH   4  12
ATOM     12  C   UNL     1       6.207   5.115  15.329  0.00  0.00    +0.000 A 
ATOM     13  C   UNL     1       6.164   4.466  14.072  0.00  0.00    +0.000 A 
ATOM     14  C   UNL     1       7.353   4.800  13.479  0.00  0.00    +0.000 A 
ATOM     15  O   UNL     1       8.065   5.598  14.310  0.00  0.00    +0.000 OA
ATOM     16  N   UNL     1       7.349   5.806  15.476  0.00  0.00    +0.000 NA
ENDBRANCH   4  12
TORSDOF 2
ENDMDL
MODEL 8
REMARK VINA RESULT:      -6.7      1.338      6.901
REMARK  Name = 
REMARK  3 active torsions:
REMARK  status: ('A' for Active; 'I' for Inactive)
REMARK    1  A    between atoms: C_1  and  C_2
REMARK    2  A    between atoms: C_4  and  C_5
REMARK    3  A    between atoms: C_8  and  C_9
REMARK                            x       y       z     vdW  Elec       q    Type
REMARK                         _______ _______ _______ _____ _____    ______ ____
ROOT
ATOM      1  C   UNL     1       3.854   5.124  18.059  0.00  0.00    +0.000 A 
ATOM      2  C   UNL     1       4.057   6.416  17.623  0.00  0.00    +0.000 A 
ATOM      3  C   UNL     1       4.877   6.463  16.454  0.00  0.00    +0.000 A 
ATOM      4  C   UNL     1       5.248   5.202  16.030  0.00  0.00    +0.000 A 
ATOM      5  S   UNL     1       4.634   3.984  17.058  0.00  0.00    +0.000 S 
ENDROOT
BRANCH   1   9
ATOM      6  C   UNL     1       1.594   2.568  21.644  0.00  0.00    +0.000 C 
ATOM      7  C   UNL     1       2.098   3.593  20.716  0.00  0.00    +0.000 A 
ATOM      8  N   UNL     1       2.758   3.455  19.589  0.00  0.00    +0.000 NA
ATOM      9  C   UNL     1       3.033   4.762  19.253  0.00  0.00    +0.000 A 
ATOM     10  N   UNL     1       2.530   5.668  20.105  0.00  0.00    +0.000 NA
ATOM     11  O   UNL     1       1.904   4.893  21.077  0.00  0.00    +0.000 OA
ENDBRANCH   1   9
BRANCH   4  12
ATOM     12  C   UNL     1       6.086   4.927  14.821  0.00  0.00    +0.000 A 
ATOM     13  C   UNL     1       5.779   4.039  13.764  0.00  0.00    +0.000 A 
ATOM     14  C   UNL     1       6.851   4.137  12.918  0.00  0.00    +0.000 A 
ATOM     15  O   UNL     1       7.743   5.025  13.419  0.00  0.00    +0.000 OA
ATOM     16  N   UNL     1       7.267   5.532  14.616  0.00  0.00    +0.000 NA
ENDBRANCH   4  12
TORSDOF 2
ENDMDL
MODEL 9
REMARK VINA RESULT:      -6.6      1.527      1.777
REMARK  Name = 
REMARK  3 active torsions:
REMARK  status: ('A' for Active; 'I' for Inactive)
REMARK    1  A    between atoms: C_1  and  C_2
REMARK    2  A    between atoms: C_4  and  C_5
REMARK    3  A    between atoms: C_8  and  C_9
REMARK                            x       y       z     vdW  Elec       q    Type
REMARK                         _______ _______ _______ _____ _____    ______ ____
ROOT
ATOM      1  C   UNL     1       5.076   3.903  16.892  0.00  0.00    +0.000 A 
ATOM      2  C   UNL     1       4.028   3.104  16.488  0.00  0.00    +0.000 A 
ATOM      3  C   UNL     1       3.193   2.724  17.584  0.00  0.00    +0.000 A 
ATOM      4  C   UNL     1       3.625   3.268  18.777  0.00  0.00    +0.000 A 
ATOM      5  S   UNL     1       5.040   4.200  18.572  0.00  0.00    +0.000 S 
ENDROOT
BRANCH   1   9
ATOM      6  C   UNL     1       7.651   5.064  12.829  0.00  0.00    +0.000 C 
ATOM      7  C   UNL     1       7.143   4.880  14.197  0.00  0.00    +0.000 A 
ATOM      8  N   UNL     1       6.167   4.119  14.636  0.00  0.00    +0.000 NA
ATOM      9  C   UNL     1       6.109   4.461  15.968  0.00  0.00    +0.000 A 
ATOM     10  N   UNL     1       7.032   5.357  16.349  0.00  0.00    +0.000 NA
ATOM     11  O   UNL     1       7.724   5.635  15.172  0.00  0.00    +0.000 OA
ENDBRANCH   1   9
BRANCH   4  12
ATOM     12  C   UNL     1       2.943   3.069  20.094  0.00  0.00    +0.000 A 
ATOM     13  C   UNL     1       1.633   3.480  20.439  0.00  0.00    +0.000 A 
ATOM     14  C   UNL     1       1.485   3.079  21.740  0.00  0.00    +0.000 A 
ATOM     15  O   UNL     1       2.618   2.463  22.156  0.00  0.00    +0.000 OA
ATOM     16  N   UNL     1       3.540   2.448  21.124  0.00  0.00    +0.000 NA
ENDBRANCH   4  12
TORSDOF 2
ENDMDL
