MODEL 1
REMARK VINA RESULT:      -7.9      0.000      0.000
REMARK  Name = 
REMARK  6 active torsions:
REMARK  status: ('A' for Active; 'I' for Inactive)
REMARK    1  A    between atoms: C_2  and  O_15
REMARK    2  A    between atoms: N_3  and  S_4
REMARK    3  A    between atoms: S_4  and  O_7
REMARK    4  A    between atoms: O_7  and  C_8
REMARK    5  A    between atoms: O_15  and  C_16
REMARK    6  A    between atoms: C_16  and  C_17
REMARK                            x       y       z     vdW  Elec       q    Type
REMARK                         _______ _______ _______ _____ _____    ______ ____
ROOT
ATOM      1  O   UNL     1       2.236   3.722  22.124  0.00  0.00    +0.000 OA
ATOM      2  C   UNL     1       2.215   3.777  20.905  0.00  0.00    +0.000 C 
ATOM      3  N   UNL     1       2.520   2.646  20.166  0.00  0.00    +0.000 N 
ATOM      4  H   UNL     1       2.815   1.827  20.684  0.00  0.00    +0.000 HD
ENDROOT
BRANCH   3   5
ATOM      5  S   UNL     1       2.876   2.592  18.560  0.00  0.00    +0.000 S 
ATOM      6  O   UNL     1       3.891   1.589  18.322  0.00  0.00    +0.000 OA
ATOM      7  O   UNL     1       1.590   2.489  17.903  0.00  0.00    +0.000 OA
BRANCH   5   8
ATOM      8  O   UNL     1       3.490   4.071  18.220  0.00  0.00    +0.000 OA
BRANCH   8   9
ATOM      9  C   UNL     1       4.663   4.229  17.517  0.00  0.00    +0.000 A 
ATOM     10  C   UNL     1       4.778   4.116  16.127  0.00  0.00    +0.000 A 
ATOM     11  C   UNL     1       6.020   4.247  15.501  0.00  0.00    +0.000 A 
ATOM     12  C   UNL     1       7.157   4.500  16.259  0.00  0.00    +0.000 A 
ATOM     13  C   UNL     1       7.040   4.626  17.638  0.00  0.00    +0.000 A 
ATOM     14  F   UNL     1       8.136   4.874  18.368  0.00  0.00    +0.000 F 
ATOM     15  C   UNL     1       5.808   4.492  18.273  0.00  0.00    +0.000 A 
ENDBRANCH   8   9
ENDBRANCH   5   8
ENDBRANCH   3   5
BRANCH   2  16
ATOM     16  O   UNL     1       1.876   4.866  20.184  0.00  0.00    +0.000 OA
BRANCH  16  17
ATOM     17  C   UNL     1       1.975   6.163  20.792  0.00  0.00    +0.000 C 
BRANCH  17  18
ATOM     18  C   UNL     1       1.502   7.299  19.860  0.00  0.00    +0.000 C 
ATOM     19  C   UNL     1       2.486   7.478  18.691  0.00  0.00    +0.000 C 
ATOM     20  C   UNL     1       2.012   8.580  17.753  0.00  0.00    +0.000 C 
ATOM     21  C   UNL     1       1.785   9.878  18.517  0.00  0.00    +0.000 C 
ATOM     22  N   UNL     1       0.821   9.696  19.613  0.00  0.00    +0.000 NA
ATOM     23  C   UNL     1       0.585  10.994  20.269  0.00  0.00    +0.000 C 
ATOM     24  C   UNL     1      -0.469  10.893  21.368  0.00  0.00    +0.000 C 
ATOM     25  C   UNL     1      -0.091   9.827  22.382  0.00  0.00    +0.000 C 
ATOM     26  C   UNL     1       0.183   8.508  21.674  0.00  0.00    +0.000 C 
ATOM     27  C   UNL     1       1.263   8.657  20.579  0.00  0.00    +0.000 C 
ENDBRANCH  17  18
ENDBRANCH  16  17
ENDBRANCH   2  16
TORSDOF 6
ENDMDL
MODEL 2
REMARK VINA RESULT:      -7.8      1.218      1.436
REMARK  Name = 
REMARK  6 active torsions:
REMARK  status: ('A' for Active; 'I' for Inactive)
REMARK    1  A    between atoms: C_2  and  O_15
REMARK    2  A    between atoms: N_3  and  S_4
REMARK    3  A    between atoms: S_4  and  O_7
REMARK    4  A    between atoms: O_7  and  C_8
REMARK    5  A    between atoms: O_15  and  C_16
REMARK    6  A    between atoms: C_16  and  C_17
REMARK                            x       y       z     vdW  Elec       q    Type
REMARK                         _______ _______ _______ _____ _____    ______ ____
ROOT
ATOM      1  O   UNL     1       1.667   3.696  21.554  0.00  0.00    +0.000 OA
ATOM      2  C   UNL     1       2.029   3.844  20.397  0.00  0.00    +0.000 C 
ATOM      3  N   UNL     1       2.204   2.731  19.590  0.00  0.00    +0.000 N 
ATOM      4  H   UNL     1       2.082   1.826  20.027  0.00  0.00    +0.000 HD
ENDROOT
BRANCH   3   5
ATOM      5  S   UNL     1       2.993   2.684  18.146  0.00  0.00    +0.000 S 
ATOM      6  O   UNL     1       3.500   1.348  17.916  0.00  0.00    +0.000 OA
ATOM      7  O   UNL     1       2.070   3.280  17.205  0.00  0.00    +0.000 OA
BRANCH   5   8
ATOM      8  O   UNL     1       4.253   3.714  18.326  0.00  0.00    +0.000 OA
BRANCH   8   9
ATOM      9  C   UNL     1       4.771   4.423  17.266  0.00  0.00    +0.000 A 
ATOM     10  C   UNL     1       4.647   5.807  17.100  0.00  0.00    +0.000 A 
ATOM     11  C   UNL     1       5.166   6.439  15.967  0.00  0.00    +0.000 A 
ATOM     12  C   UNL     1       5.821   5.693  14.994  0.00  0.00    +0.000 A 
ATOM     13  C   UNL     1       5.957   4.321  15.168  0.00  0.00    +0.000 A 
ATOM     14  F   UNL     1       6.593   3.603  14.232  0.00  0.00    +0.000 F 
ATOM     15  C   UNL     1       5.439   3.679  16.290  0.00  0.00    +0.000 A 
ENDBRANCH   8   9
ENDBRANCH   5   8
ENDBRANCH   3   5
BRANCH   2  16
ATOM     16  O   UNL     1       2.248   5.033  19.800  0.00  0.00    +0.000 OA
BRANCH  16  17
ATOM     17  C   UNL     1       2.161   6.233  20.583  0.00  0.00    +0.000 C 
BRANCH  17  18
ATOM     18  C   UNL     1       1.507   7.403  19.817  0.00  0.00    +0.000 C 
ATOM     19  C   UNL     1       2.355   7.780  18.589  0.00  0.00    +0.000 C 
ATOM     20  C   UNL     1       1.701   8.916  17.813  0.00  0.00    +0.000 C 
ATOM     21  C   UNL     1       1.443  10.111  18.722  0.00  0.00    +0.000 C 
ATOM     22  N   UNL     1       0.608   9.739  19.875  0.00  0.00    +0.000 NA
ATOM     23  C   UNL     1       0.330  10.943  20.678  0.00  0.00    +0.000 C 
ATOM     24  C   UNL     1      -0.601  10.643  21.850  0.00  0.00    +0.000 C 
ATOM     25  C   UNL     1      -0.039   9.527  22.713  0.00  0.00    +0.000 C 
ATOM     26  C   UNL     1       0.274   8.310  21.853  0.00  0.00    +0.000 C 
ATOM     27  C   UNL     1       1.226   8.660  20.688  0.00  0.00    +0.000 C 
ENDBRANCH  17  18
ENDBRANCH  16  17
ENDBRANCH   2  16
TORSDOF 6
ENDMDL
MODEL 3
REMARK VINA RESULT:      -7.8      1.094      1.456
REMARK  Name = 
REMARK  6 active torsions:
REMARK  status: ('A' for Active; 'I' for Inactive)
REMARK    1  A    between atoms: C_2  and  O_15
REMARK    2  A    between atoms: N_3  and  S_4
REMARK    3  A    between atoms: S_4  and  O_7
REMARK    4  A    between atoms: O_7  and  C_8
REMARK    5  A    between atoms: O_15  and  C_16
REMARK    6  A    between atoms: C_16  and  C_17
REMARK                            x       y       z     vdW  Elec       q    Type
REMARK                         _______ _______ _______ _____ _____    ______ ____
ROOT
ATOM      1  O   UNL     1       2.323   4.242  21.736  0.00  0.00    +0.000 OA
ATOM      2  C   UNL     1       2.126   4.375  20.538  0.00  0.00    +0.000 C 
ATOM      3  N   UNL     1       2.289   3.286  19.696  0.00  0.00    +0.000 N 
ATOM      4  H   UNL     1       2.633   2.431  20.116  0.00  0.00    +0.000 HD
ENDROOT
BRANCH   3   5
ATOM      5  S   UNL     1       2.405   3.327  18.055  0.00  0.00    +0.000 S 
ATOM      6  O   UNL     1       3.131   2.165  17.592  0.00  0.00    +0.000 OA
ATOM      7  O   UNL     1       1.052   3.565  17.598  0.00  0.00    +0.000 OA
BRANCH   5   8
ATOM      8  O   UNL     1       3.281   4.672  17.733  0.00  0.00    +0.000 OA
BRANCH   8   9
ATOM      9  C   UNL     1       4.642   4.625  17.533  0.00  0.00    +0.000 A 
ATOM     10  C   UNL     1       5.600   4.842  18.529  0.00  0.00    +0.000 A 
ATOM     11  C   UNL     1       6.964   4.820  18.225  0.00  0.00    +0.000 A 
ATOM     12  C   UNL     1       7.381   4.571  16.923  0.00  0.00    +0.000 A 
ATOM     13  C   UNL     1       6.429   4.340  15.936  0.00  0.00    +0.000 A 
ATOM     14  F   UNL     1       6.832   4.096  14.682  0.00  0.00    +0.000 F 
ATOM     15  C   UNL     1       5.067   4.366  16.227  0.00  0.00    +0.000 A 
ENDBRANCH   8   9
ENDBRANCH   5   8
ENDBRANCH   3   5
BRANCH   2  16
ATOM     16  O   UNL     1       1.716   5.512  19.941  0.00  0.00    +0.000 OA
BRANCH  16  17
ATOM     17  C   UNL     1       2.052   6.773  20.539  0.00  0.00    +0.000 C 
BRANCH  17  18
ATOM     18  C   UNL     1       1.332   7.965  19.871  0.00  0.00    +0.000 C 
ATOM     19  C   UNL     1       2.119   8.443  18.638  0.00  0.00    +0.000 C 
ATOM     20  C   UNL     1       1.400   9.601  17.958  0.00  0.00    +0.000 C 
ATOM     21  C   UNL     1       1.141  10.729  18.947  0.00  0.00    +0.000 C 
ATOM     22  N   UNL     1       0.365  10.262  20.105  0.00  0.00    +0.000 NA
ATOM     23  C   UNL     1       0.080  11.406  20.991  0.00  0.00    +0.000 C 
ATOM     24  C   UNL     1      -0.793  11.005  22.176  0.00  0.00    +0.000 C 
ATOM     25  C   UNL     1      -0.163   9.859  22.947  0.00  0.00    +0.000 C 
ATOM     26  C   UNL     1       0.153   8.707  22.004  0.00  0.00    +0.000 C 
ATOM     27  C   UNL     1       1.047   9.157  20.827  0.00  0.00    +0.000 C 
ENDBRANCH  17  18
ENDBRANCH  16  17
ENDBRANCH   2  16
TORSDOF 6
ENDMDL
MODEL 4
REMARK VINA RESULT:      -7.7      5.091      8.616
REMARK  Name = 
REMARK  6 active torsions:
REMARK  status: ('A' for Active; 'I' for Inactive)
REMARK    1  A    between atoms: C_2  and  O_15
REMARK    2  A    between atoms: N_3  and  S_4
REMARK    3  A    between atoms: S_4  and  O_7
REMARK    4  A    between atoms: O_7  and  C_8
REMARK    5  A    between atoms: O_15  and  C_16
REMARK    6  A    between atoms: C_16  and  C_17
REMARK                            x       y       z     vdW  Elec       q    Type
REMARK                         _______ _______ _______ _____ _____    ______ ____
ROOT
ATOM      1  O   UNL     1       2.573   9.088  17.344  0.00  0.00    +0.000 OA
ATOM      2  C   UNL     1       1.710   9.324  18.174  0.00  0.00    +0.000 C 
ATOM      3  N   UNL     1       1.010  10.519  18.109  0.00  0.00    +0.000 N 
ATOM      4  H   UNL     1       1.299  11.180  17.398  0.00  0.00    +0.000 HD
ENDROOT
BRANCH   3   5
ATOM      5  S   UNL     1       0.071  11.169  19.295  0.00  0.00    +0.000 S 
ATOM      6  O   UNL     1       0.667  10.900  20.585  0.00  0.00    +0.000 OA
ATOM      7  O   UNL     1      -0.157  12.534  18.873  0.00  0.00    +0.000 OA
BRANCH   5   8
ATOM      8  O   UNL     1      -1.353  10.370  19.182  0.00  0.00    +0.000 OA
BRANCH   8   9
ATOM      9  C   UNL     1      -2.161  10.473  18.072  0.00  0.00    +0.000 A 
ATOM     10  C   UNL     1      -1.939   9.806  16.863  0.00  0.00    +0.000 A 
ATOM     11  C   UNL     1      -2.787  10.006  15.771  0.00  0.00    +0.000 A 
ATOM     12  C   UNL     1      -3.871  10.869  15.882  0.00  0.00    +0.000 A 
ATOM     13  C   UNL     1      -4.100  11.520  17.089  0.00  0.00    +0.000 A 
ATOM     14  F   UNL     1      -5.147  12.349  17.196  0.00  0.00    +0.000 F 
ATOM     15  C   UNL     1      -3.257  11.332  18.182  0.00  0.00    +0.000 A 
ENDBRANCH   8   9
ENDBRANCH   5   8
ENDBRANCH   3   5
BRANCH   2  16
ATOM     16  O   UNL     1       1.336   8.487  19.162  0.00  0.00    +0.000 OA
BRANCH  16  17
ATOM     17  C   UNL     1       2.319   7.627  19.757  0.00  0.00    +0.000 C 
BRANCH  17  18
ATOM     18  C   UNL     1       2.057   6.132  19.478  0.00  0.00    +0.000 C 
ATOM     19  C   UNL     1       1.530   5.434  20.745  0.00  0.00    +0.000 C 
ATOM     20  C   UNL     1       1.242   3.965  20.470  0.00  0.00    +0.000 C 
ATOM     21  C   UNL     1       2.475   3.272  19.903  0.00  0.00    +0.000 C 
ATOM     22  N   UNL     1       2.948   3.933  18.678  0.00  0.00    +0.000 NA
ATOM     23  C   UNL     1       4.093   3.181  18.133  0.00  0.00    +0.000 C 
ATOM     24  C   UNL     1       4.585   3.769  16.814  0.00  0.00    +0.000 C 
ATOM     25  C   UNL     1       4.922   5.241  16.972  0.00  0.00    +0.000 C 
ATOM     26  C   UNL     1       3.737   5.987  17.569  0.00  0.00    +0.000 C 
ATOM     27  C   UNL     1       3.282   5.363  18.907  0.00  0.00    +0.000 C 
ENDBRANCH  17  18
ENDBRANCH  16  17
ENDBRANCH   2  16
TORSDOF 6
ENDMDL
MODEL 5
REMARK VINA RESULT:      -7.7      2.529      3.130
REMARK  Name = 
REMARK  6 active torsions:
REMARK  status: ('A' for Active; 'I' for Inactive)
REMARK    1  A    between atoms: C_2  and  O_15
REMARK    2  A    between atoms: N_3  and  S_4
REMARK    3  A    between atoms: S_4  and  O_7
REMARK    4  A    between atoms: O_7  and  C_8
REMARK    5  A    between atoms: O_15  and  C_16
REMARK    6  A    between atoms: C_16  and  C_17
REMARK                            x       y       z     vdW  Elec       q    Type
REMARK                         _______ _______ _______ _____ _____    ______ ____
ROOT
ATOM      1  O   UNL     1       4.219   3.147  19.912  0.00  0.00    +0.000 OA
ATOM      2  C   UNL     1       4.808   4.067  19.368  0.00  0.00    +0.000 C 
ATOM      3  N   UNL     1       5.999   3.817  18.705  0.00  0.00    +0.000 N 
ATOM      4  H   UNL     1       6.363   2.874  18.760  0.00  0.00    +0.000 HD
ENDROOT
BRANCH   3   5
ATOM      5  S   UNL     1       7.098   4.939  18.211  0.00  0.00    +0.000 S 
ATOM      6  O   UNL     1       7.337   5.885  19.278  0.00  0.00    +0.000 OA
ATOM      7  O   UNL     1       8.195   4.163  17.672  0.00  0.00    +0.000 OA
BRANCH   5   8
ATOM      8  O   UNL     1       6.374   5.708  16.961  0.00  0.00    +0.000 OA
BRANCH   8   9
ATOM      9  C   UNL     1       6.325   5.162  15.698  0.00  0.00    +0.000 A 
ATOM     10  C   UNL     1       5.351   4.257  15.261  0.00  0.00    +0.000 A 
ATOM     11  C   UNL     1       5.406   3.716  13.974  0.00  0.00    +0.000 A 
ATOM     12  C   UNL     1       6.431   4.083  13.109  0.00  0.00    +0.000 A 
ATOM     13  C   UNL     1       7.390   4.993  13.539  0.00  0.00    +0.000 A 
ATOM     14  F   UNL     1       8.375   5.349  12.704  0.00  0.00    +0.000 F 
ATOM     15  C   UNL     1       7.348   5.534  14.822  0.00  0.00    +0.000 A 
ENDBRANCH   8   9
ENDBRANCH   5   8
ENDBRANCH   3   5
BRANCH   2  16
ATOM     16  O   UNL     1       4.374   5.344  19.318  0.00  0.00    +0.000 OA
BRANCH  16  17
ATOM     17  C   UNL     1       3.119   5.677  19.928  0.00  0.00    +0.000 C 
BRANCH  17  18
ATOM     18  C   UNL     1       2.366   6.797  19.179  0.00  0.00    +0.000 C 
ATOM     19  C   UNL     1       3.182   7.272  17.964  0.00  0.00    +0.000 C 
ATOM     20  C   UNL     1       2.433   8.357  17.203  0.00  0.00    +0.000 C 
ATOM     21  C   UNL     1       2.063   9.507  18.131  0.00  0.00    +0.000 C 
ATOM     22  N   UNL     1       1.260   9.042  19.272  0.00  0.00    +0.000 NA
ATOM     23  C   UNL     1       0.870  10.201  20.094  0.00  0.00    +0.000 C 
ATOM     24  C   UNL     1      -0.034   9.798  21.255  0.00  0.00    +0.000 C 
ATOM     25  C   UNL     1       0.622   8.722  22.102  0.00  0.00    +0.000 C 
ATOM     26  C   UNL     1       1.047   7.554  21.223  0.00  0.00    +0.000 C 
ATOM     27  C   UNL     1       1.969   8.008  20.070  0.00  0.00    +0.000 C 
ENDBRANCH  17  18
ENDBRANCH  16  17
ENDBRANCH   2  16
TORSDOF 6
ENDMDL
MODEL 6
REMARK VINA RESULT:      -7.7      1.000      1.081
REMARK  Name = 
REMARK  6 active torsions:
REMARK  status: ('A' for Active; 'I' for Inactive)
REMARK    1  A    between atoms: C_2  and  O_15
REMARK    2  A    between atoms: N_3  and  S_4
REMARK    3  A    between atoms: S_4  and  O_7
REMARK    4  A    between atoms: O_7  and  C_8
REMARK    5  A    between atoms: O_15  and  C_16
REMARK    6  A    between atoms: C_16  and  C_17
REMARK                            x       y       z     vdW  Elec       q    Type
REMARK                         _______ _______ _______ _____ _____    ______ ____
ROOT
ATOM      1  O   UNL     1       0.914   3.730  20.815  0.00  0.00    +0.000 OA
ATOM      2  C   UNL     1       1.849   3.888  20.046  0.00  0.00    +0.000 C 
ATOM      3  N   UNL     1       2.410   2.787  19.418  0.00  0.00    +0.000 N 
ATOM      4  H   UNL     1       2.049   1.878  19.681  0.00  0.00    +0.000 HD
ENDROOT
BRANCH   3   5
ATOM      5  S   UNL     1       3.855   2.739  18.632  0.00  0.00    +0.000 S 
ATOM      6  O   UNL     1       4.928   2.954  19.578  0.00  0.00    +0.000 OA
ATOM      7  O   UNL     1       3.809   1.518  17.855  0.00  0.00    +0.000 OA
BRANCH   5   8
ATOM      8  O   UNL     1       3.801   3.995  17.584  0.00  0.00    +0.000 OA
BRANCH   8   9
ATOM      9  C   UNL     1       4.887   4.351  16.816  0.00  0.00    +0.000 A 
ATOM     10  C   UNL     1       5.241   3.740  15.608  0.00  0.00    +0.000 A 
ATOM     11  C   UNL     1       6.389   4.136  14.917  0.00  0.00    +0.000 A 
ATOM     12  C   UNL     1       7.189   5.153  15.424  0.00  0.00    +0.000 A 
ATOM     13  C   UNL     1       6.829   5.770  16.617  0.00  0.00    +0.000 A 
ATOM     14  F   UNL     1       7.598   6.753  17.103  0.00  0.00    +0.000 F 
ATOM     15  C   UNL     1       5.690   5.379  17.317  0.00  0.00    +0.000 A 
ENDBRANCH   8   9
ENDBRANCH   5   8
ENDBRANCH   3   5
BRANCH   2  16
ATOM     16  O   UNL     1       2.385   5.080  19.712  0.00  0.00    +0.000 OA
BRANCH  16  17
ATOM     17  C   UNL     1       2.105   6.225  20.532  0.00  0.00    +0.000 C 
BRANCH  17  18
ATOM     18  C   UNL     1       1.528   7.411  19.730  0.00  0.00    +0.000 C 
ATOM     19  C   UNL     1       2.435   7.740  18.531  0.00  0.00    +0.000 C 
ATOM     20  C   UNL     1       1.856   8.891  17.720  0.00  0.00    +0.000 C 
ATOM     21  C   UNL     1       1.613  10.106  18.607  0.00  0.00    +0.000 C 
ATOM     22  N   UNL     1       0.722   9.782  19.731  0.00  0.00    +0.000 NA
ATOM     23  C   UNL     1       0.463  11.005  20.511  0.00  0.00    +0.000 C 
ATOM     24  C   UNL     1      -0.521  10.756  21.650  0.00  0.00    +0.000 C 
ATOM     25  C   UNL     1      -0.037   9.628  22.545  0.00  0.00    +0.000 C 
ATOM     26  C   UNL     1       0.258   8.390  21.710  0.00  0.00    +0.000 C 
ATOM     27  C   UNL     1       1.266   8.688  20.577  0.00  0.00    +0.000 C 
ENDBRANCH  17  18
ENDBRANCH  16  17
ENDBRANCH   2  16
TORSDOF 6
ENDMDL
MODEL 7
REMARK VINA RESULT:      -7.5      4.874      8.294
REMARK  Name = 
REMARK  6 active torsions:
REMARK  status: ('A' for Active; 'I' for Inactive)
REMARK    1  A    between atoms: C_2  and  O_15
REMARK    2  A    between atoms: N_3  and  S_4
REMARK    3  A    between atoms: S_4  and  O_7
REMARK    4  A    between atoms: O_7  and  C_8
REMARK    5  A    between atoms: O_15  and  C_16
REMARK    6  A    between atoms: C_16  and  C_17
REMARK                            x       y       z     vdW  Elec       q    Type
REMARK                         _______ _______ _______ _____ _____    ______ ____
ROOT
ATOM      1  O   UNL     1       2.730  10.304  17.431  0.00  0.00    +0.000 OA
ATOM      2  C   UNL     1       1.785  10.067  18.167  0.00  0.00    +0.000 C 
ATOM      3  N   UNL     1       0.821  11.041  18.373  0.00  0.00    +0.000 N 
ATOM      4  H   UNL     1       0.984  11.943  17.943  0.00  0.00    +0.000 HD
ENDROOT
BRANCH   3   5
ATOM      5  S   UNL     1      -0.320  11.053  19.559  0.00  0.00    +0.000 S 
ATOM      6  O   UNL     1       0.241  10.507  20.776  0.00  0.00    +0.000 OA
ATOM      7  O   UNL     1      -0.847  12.401  19.546  0.00  0.00    +0.000 OA
BRANCH   5   8
ATOM      8  O   UNL     1      -1.498  10.055  19.014  0.00  0.00    +0.000 OA
BRANCH   8   9
ATOM      9  C   UNL     1      -2.357  10.425  18.005  0.00  0.00    +0.000 A 
ATOM     10  C   UNL     1      -3.526  11.172  18.190  0.00  0.00    +0.000 A 
ATOM     11  C   UNL     1      -4.365  11.463  17.111  0.00  0.00    +0.000 A 
ATOM     12  C   UNL     1      -4.038  11.018  15.836  0.00  0.00    +0.000 A 
ATOM     13  C   UNL     1      -2.869  10.288  15.650  0.00  0.00    +0.000 A 
ATOM     14  F   UNL     1      -2.552   9.862  14.420  0.00  0.00    +0.000 F 
ATOM     15  C   UNL     1      -2.028   9.987  16.719  0.00  0.00    +0.000 A 
ENDBRANCH   8   9
ENDBRANCH   5   8
ENDBRANCH   3   5
BRANCH   2  16
ATOM     16  O   UNL     1       1.566   8.893  18.793  0.00  0.00    +0.000 OA
BRANCH  16  17
ATOM     17  C   UNL     1       1.746   7.670  18.063  0.00  0.00    +0.000 C 
BRANCH  17  18
ATOM     18  C   UNL     1       2.956   6.848  18.558  0.00  0.00    +0.000 C 
ATOM     19  C   UNL     1       4.053   6.808  17.480  0.00  0.00    +0.000 C 
ATOM     20  C   UNL     1       5.261   6.022  17.973  0.00  0.00    +0.000 C 
ATOM     21  C   UNL     1       4.848   4.627  18.425  0.00  0.00    +0.000 C 
ATOM     22  N   UNL     1       3.820   4.684  19.474  0.00  0.00    +0.000 NA
ATOM     23  C   UNL     1       3.512   3.315  19.925  0.00  0.00    +0.000 C 
ATOM     24  C   UNL     1       2.507   3.306  21.073  0.00  0.00    +0.000 C 
ATOM     25  C   UNL     1       1.242   4.053  20.688  0.00  0.00    +0.000 C 
ATOM     26  C   UNL     1       1.591   5.449  20.193  0.00  0.00    +0.000 C 
ATOM     27  C   UNL     1       2.602   5.408  19.025  0.00  0.00    +0.000 C 
ENDBRANCH  17  18
ENDBRANCH  16  17
ENDBRANCH   2  16
TORSDOF 6
ENDMDL
MODEL 8
REMARK VINA RESULT:      -7.5      3.896      5.719
REMARK  Name = 
REMARK  6 active torsions:
REMARK  status: ('A' for Active; 'I' for Inactive)
REMARK    1  A    between atoms: C_2  and  O_15
REMARK    2  A    between atoms: N_3  and  S_4
REMARK    3  A    between atoms: S_4  and  O_7
REMARK    4  A    between atoms: O_7  and  C_8
REMARK    5  A    between atoms: O_15  and  C_16
REMARK    6  A    between atoms: C_16  and  C_17
REMARK                            x       y       z     vdW  Elec       q    Type
REMARK                         _______ _______ _______ _____ _____    ______ ____
ROOT
ATOM      1  O   UNL     1       8.686   4.044  17.966  0.00  0.00    +0.000 OA
ATOM      2  C   UNL     1       7.660   4.548  17.537  0.00  0.00    +0.000 C 
ATOM      3  N   UNL     1       7.295   4.335  16.217  0.00  0.00    +0.000 N 
ATOM      4  H   UNL     1       7.945   3.812  15.642  0.00  0.00    +0.000 HD
ENDROOT
BRANCH   3   5
ATOM      5  S   UNL     1       6.166   5.177  15.366  0.00  0.00    +0.000 S 
ATOM      6  O   UNL     1       4.890   4.499  15.453  0.00  0.00    +0.000 OA
ATOM      7  O   UNL     1       6.294   6.540  15.836  0.00  0.00    +0.000 OA
BRANCH   5   8
ATOM      8  O   UNL     1       6.694   5.134  13.817  0.00  0.00    +0.000 OA
BRANCH   8   9
ATOM      9  C   UNL     1       6.249   4.187  12.922  0.00  0.00    +0.000 A 
ATOM     10  C   UNL     1       4.912   4.015  12.546  0.00  0.00    +0.000 A 
ATOM     11  C   UNL     1       4.544   2.996  11.663  0.00  0.00    +0.000 A 
ATOM     12  C   UNL     1       5.512   2.146  11.141  0.00  0.00    +0.000 A 
ATOM     13  C   UNL     1       6.842   2.327  11.503  0.00  0.00    +0.000 A 
ATOM     14  F   UNL     1       7.775   1.510  10.997  0.00  0.00    +0.000 F 
ATOM     15  C   UNL     1       7.219   3.336  12.387  0.00  0.00    +0.000 A 
ENDBRANCH   8   9
ENDBRANCH   5   8
ENDBRANCH   3   5
BRANCH   2  16
ATOM     16  O   UNL     1       6.800   5.291  18.263  0.00  0.00    +0.000 OA
BRANCH  16  17
ATOM     17  C   UNL     1       5.911   4.632  19.178  0.00  0.00    +0.000 C 
BRANCH  17  18
ATOM     18  C   UNL     1       4.423   4.853  18.833  0.00  0.00    +0.000 C 
ATOM     19  C   UNL     1       4.185   6.308  18.392  0.00  0.00    +0.000 C 
ATOM     20  C   UNL     1       2.723   6.525  18.024  0.00  0.00    +0.000 C 
ATOM     21  C   UNL     1       1.811   6.117  19.174  0.00  0.00    +0.000 C 
ATOM     22  N   UNL     1       2.032   4.717  19.564  0.00  0.00    +0.000 NA
ATOM     23  C   UNL     1       1.077   4.355  20.626  0.00  0.00    +0.000 C 
ATOM     24  C   UNL     1       1.197   2.887  21.025  0.00  0.00    +0.000 C 
ATOM     25  C   UNL     1       2.621   2.553  21.432  0.00  0.00    +0.000 C 
ATOM     26  C   UNL     1       3.589   2.970  20.334  0.00  0.00    +0.000 C 
ATOM     27  C   UNL     1       3.438   4.465  19.973  0.00  0.00    +0.000 C 
ENDBRANCH  17  18
ENDBRANCH  16  17
ENDBRANCH   2  16
TORSDOF 6
ENDMDL
MODEL 9
REMARK VINA RESULT:      -7.4      2.787      3.516
REMARK  Name = 
REMARK  6 active torsions:
REMARK  status: ('A' for Active; 'I' for Inactive)
REMARK    1  A    between atoms: C_2  and  O_15
REMARK    2  A    between atoms: N_3  and  S_4
REMARK    3  A    between atoms: S_4  and  O_7
REMARK    4  A    between atoms: O_7  and  C_8
REMARK    5  A    between atoms: O_15  and  C_16
REMARK    6  A    between atoms: C_16  and  C_17
REMARK                            x       y       z     vdW  Elec       q    Type
REMARK                         _______ _______ _______ _____ _____    ______ ____
ROOT
ATOM      1  O   UNL     1       4.152   3.178  19.375  0.00  0.00    +0.000 OA
ATOM      2  C   UNL     1       4.710   4.115  18.825  0.00  0.00    +0.000 C 
ATOM      3  N   UNL     1       5.695   3.864  17.883  0.00  0.00    +0.000 N 
ATOM      4  H   UNL     1       5.954   2.895  17.740  0.00  0.00    +0.000 HD
ENDROOT
BRANCH   3   5
ATOM      5  S   UNL     1       6.781   4.948  17.290  0.00  0.00    +0.000 S 
ATOM      6  O   UNL     1       6.928   6.045  18.222  0.00  0.00    +0.000 OA
ATOM      7  O   UNL     1       7.933   4.151  16.924  0.00  0.00    +0.000 OA
BRANCH   5   8
ATOM      8  O   UNL     1       6.103   5.503  15.907  0.00  0.00    +0.000 OA
BRANCH   8   9
ATOM      9  C   UNL     1       6.509   5.061  14.668  0.00  0.00    +0.000 A 
ATOM     10  C   UNL     1       7.598   5.576  13.958  0.00  0.00    +0.000 A 
ATOM     11  C   UNL     1       7.911   5.096  12.683  0.00  0.00    +0.000 A 
ATOM     12  C   UNL     1       7.140   4.091  12.111  0.00  0.00    +0.000 A 
ATOM     13  C   UNL     1       6.066   3.569  12.823  0.00  0.00    +0.000 A 
ATOM     14  F   UNL     1       5.327   2.597  12.273  0.00  0.00    +0.000 F 
ATOM     15  C   UNL     1       5.743   4.044  14.093  0.00  0.00    +0.000 A 
ENDBRANCH   8   9
ENDBRANCH   5   8
ENDBRANCH   3   5
BRANCH   2  16
ATOM     16  O   UNL     1       4.422   5.417  19.029  0.00  0.00    +0.000 OA
BRANCH  16  17
ATOM     17  C   UNL     1       3.235   5.762  19.758  0.00  0.00    +0.000 C 
BRANCH  17  18
ATOM     18  C   UNL     1       2.416   6.879  19.077  0.00  0.00    +0.000 C 
ATOM     19  C   UNL     1       3.188   7.455  17.877  0.00  0.00    +0.000 C 
ATOM     20  C   UNL     1       2.372   8.537  17.183  0.00  0.00    +0.000 C 
ATOM     21  C   UNL     1       1.960   9.619  18.174  0.00  0.00    +0.000 C 
ATOM     22  N   UNL     1       1.199   9.056  19.299  0.00  0.00    +0.000 NA
ATOM     23  C   UNL     1       0.764  10.151  20.185  0.00  0.00    +0.000 C 
ATOM     24  C   UNL     1      -0.101   9.644  21.335  0.00  0.00    +0.000 C 
ATOM     25  C   UNL     1       0.622   8.561  22.117  0.00  0.00    +0.000 C 
ATOM     26  C   UNL     1       1.092   7.462  21.174  0.00  0.00    +0.000 C 
ATOM     27  C   UNL     1       1.972   8.021  20.034  0.00  0.00    +0.000 C 
ENDBRANCH  17  18
ENDBRANCH  16  17
ENDBRANCH   2  16
TORSDOF 6
ENDMDL
