MODEL 1
REMARK VINA RESULT:      -6.9      0.000      0.000
REMARK  Name = 
REMARK  13 active torsions:
REMARK  status: ('A' for Active; 'I' for Inactive)
REMARK    1  A    between atoms: C_2  and  O_3
REMARK    2  A    between atoms: C_2  and  C_4
REMARK    3  A    between atoms: C_9  and  C_11
REMARK    4  A    between atoms: C_12  and  C_13
REMARK    5  A    between atoms: C_13  and  C_14
REMARK    6  A    between atoms: C_14  and  C_15
REMARK    7  A    between atoms: C_15  and  C_16
REMARK    8  A    between atoms: C_16  and  C_17
REMARK    9  A    between atoms: C_17  and  C_18
REMARK   10  A    between atoms: C_18  and  C_19
REMARK   11  A    between atoms: C_19  and  C_20
REMARK   12  A    between atoms: C_20  and  C_21
REMARK   13  A    between atoms: C_21  and  C_22
REMARK                            x       y       z     vdW  Elec       q    Type
REMARK                         _______ _______ _______ _____ _____    ______ ____
ROOT
ATOM      1  C   UNL     1       4.714   4.717  17.610  0.00  0.00    +0.000 C 
ATOM      2  C   UNL     1       5.992   4.443  17.332  0.00  0.00    +0.000 C 
ENDROOT
BRANCH   1   8
ATOM      3  C   UNL     1       1.992   3.285  19.949  0.00  0.00    +0.000 C 
ATOM      4  C   UNL     1       0.952   4.346  20.321  0.00  0.00    +0.000 C 
ATOM      5  C   UNL     1       1.799   5.573  20.640  0.00  0.00    +0.000 C 
ATOM      6  C   UNL     1       3.027   5.435  19.756  0.00  0.00    +0.000 C 
ATOM      7  N   UNL     1       3.013   4.082  19.241  0.00  0.00    +0.000 N 
ATOM      8  C   UNL     1       3.787   3.678  18.158  0.00  0.00    +0.000 C 
ATOM      9  O   UNL     1       3.768   2.549  17.715  0.00  0.00    +0.000 OA
BRANCH   3  11
ATOM     10  O   UNL     1       3.755   2.273  21.346  0.00  0.00    +0.000 OA
ATOM     11  C   UNL     1       2.589   2.650  21.231  0.00  0.00    +0.000 C 
BRANCH  11  12
ATOM     12  O   UNL     1       1.721   2.556  22.264  0.00  0.00    +0.000 OA
ATOM     13  H   UNL     1       1.025   1.879  22.132  0.00  0.00    +0.000 HD
ENDBRANCH  11  12
ENDBRANCH   3  11
ENDBRANCH   1   8
BRANCH   2  14
ATOM     14  C   UNL     1       6.935   5.472  16.781  0.00  0.00    +0.000 C 
BRANCH  14  15
ATOM     15  C   UNL     1       6.643   6.879  17.304  0.00  0.00    +0.000 C 
BRANCH  15  16
ATOM     16  C   UNL     1       7.859   7.475  18.018  0.00  0.00    +0.000 C 
BRANCH  16  17
ATOM     17  C   UNL     1       8.002   8.964  17.712  0.00  0.00    +0.000 C 
BRANCH  17  18
ATOM     18  C   UNL     1       8.890   9.659  18.731  0.00  0.00    +0.000 C 
BRANCH  18  19
ATOM     19  C   UNL     1       9.281  11.047  18.237  0.00  0.00    +0.000 C 
BRANCH  19  20
ATOM     20  C   UNL     1      10.733  11.350  18.580  0.00  0.00    +0.000 C 
BRANCH  20  21
ATOM     21  C   UNL     1      10.834  12.566  19.498  0.00  0.00    +0.000 C 
BRANCH  21  22
ATOM     22  C   UNL     1      10.389  12.194  20.909  0.00  0.00    +0.000 C 
BRANCH  22  23
ATOM     23  C   UNL     1       9.035  12.749  21.245  0.00  0.00    +0.000 C 
ATOM     24  C   UNL     1       8.804  13.978  21.733  0.00  0.00    +0.000 C 
ATOM     25 BR   UNL     1      10.152  15.240  22.055  0.00  0.00    +0.000 Br
ATOM     26 BR   UNL     1       7.061  14.550  22.109  0.00  0.00    +0.000 Br
ENDBRANCH  22  23
ENDBRANCH  21  22
ENDBRANCH  20  21
ENDBRANCH  19  20
ENDBRANCH  18  19
ENDBRANCH  17  18
ENDBRANCH  16  17
ENDBRANCH  15  16
ENDBRANCH  14  15
ENDBRANCH   2  14
TORSDOF 13
ENDMDL
MODEL 2
REMARK VINA RESULT:      -6.7      1.277      1.821
REMARK  Name = 
REMARK  13 active torsions:
REMARK  status: ('A' for Active; 'I' for Inactive)
REMARK    1  A    between atoms: C_2  and  O_3
REMARK    2  A    between atoms: C_2  and  C_4
REMARK    3  A    between atoms: C_9  and  C_11
REMARK    4  A    between atoms: C_12  and  C_13
REMARK    5  A    between atoms: C_13  and  C_14
REMARK    6  A    between atoms: C_14  and  C_15
REMARK    7  A    between atoms: C_15  and  C_16
REMARK    8  A    between atoms: C_16  and  C_17
REMARK    9  A    between atoms: C_17  and  C_18
REMARK   10  A    between atoms: C_18  and  C_19
REMARK   11  A    between atoms: C_19  and  C_20
REMARK   12  A    between atoms: C_20  and  C_21
REMARK   13  A    between atoms: C_21  and  C_22
REMARK                            x       y       z     vdW  Elec       q    Type
REMARK                         _______ _______ _______ _____ _____    ______ ____
ROOT
ATOM      1  C   UNL     1       3.593   4.026  16.649  0.00  0.00    +0.000 C 
ATOM      2  C   UNL     1       4.919   4.138  16.527  0.00  0.00    +0.000 C 
ENDROOT
BRANCH   1   8
ATOM      3  C   UNL     1       1.947   3.029  20.000  0.00  0.00    +0.000 C 
ATOM      4  C   UNL     1       1.057   4.149  20.548  0.00  0.00    +0.000 C 
ATOM      5  C   UNL     1       1.905   5.401  20.348  0.00  0.00    +0.000 C 
ATOM      6  C   UNL     1       2.745   5.105  19.116  0.00  0.00    +0.000 C 
ATOM      7  N   UNL     1       2.612   3.687  18.858  0.00  0.00    +0.000 N 
ATOM      8  C   UNL     1       2.969   3.102  17.647  0.00  0.00    +0.000 C 
ATOM      9  O   UNL     1       2.847   1.917  17.423  0.00  0.00    +0.000 OA
BRANCH   3  11
ATOM     10  O   UNL     1       4.153   2.293  20.819  0.00  0.00    +0.000 OA
ATOM     11  C   UNL     1       2.987   2.603  21.066  0.00  0.00    +0.000 C 
BRANCH  11  12
ATOM     12  O   UNL     1       2.524   2.617  22.336  0.00  0.00    +0.000 OA
ATOM     13  H   UNL     1       2.215   3.499  22.632  0.00  0.00    +0.000 HD
ENDBRANCH  11  12
ENDBRANCH   3  11
ENDBRANCH   1   8
BRANCH   2  14
ATOM     14  C   UNL     1       5.562   5.058  15.530  0.00  0.00    +0.000 C 
BRANCH  14  15
ATOM     15  C   UNL     1       5.942   6.409  16.137  0.00  0.00    +0.000 C 
BRANCH  15  16
ATOM     16  C   UNL     1       6.289   6.279  17.622  0.00  0.00    +0.000 C 
BRANCH  16  17
ATOM     17  C   UNL     1       7.797   6.359  17.844  0.00  0.00    +0.000 C 
BRANCH  17  18
ATOM     18  C   UNL     1       8.194   7.668  18.506  0.00  0.00    +0.000 C 
BRANCH  18  19
ATOM     19  C   UNL     1       7.784   8.849  17.634  0.00  0.00    +0.000 C 
BRANCH  19  20
ATOM     20  C   UNL     1       8.663  10.059  17.921  0.00  0.00    +0.000 C 
BRANCH  20  21
ATOM     21  C   UNL     1       9.149  10.050  19.369  0.00  0.00    +0.000 C 
BRANCH  21  22
ATOM     22  C   UNL     1      10.273  11.066  19.548  0.00  0.00    +0.000 C 
BRANCH  22  23
ATOM     23  C   UNL     1       9.898  12.171  20.491  0.00  0.00    +0.000 C 
ATOM     24  C   UNL     1       9.457  13.385  20.123  0.00  0.00    +0.000 C 
ATOM     25 BR   UNL     1       9.203  13.902  18.339  0.00  0.00    +0.000 Br
ATOM     26 BR   UNL     1       9.019  14.678  21.404  0.00  0.00    +0.000 Br
ENDBRANCH  22  23
ENDBRANCH  21  22
ENDBRANCH  20  21
ENDBRANCH  19  20
ENDBRANCH  18  19
ENDBRANCH  17  18
ENDBRANCH  16  17
ENDBRANCH  15  16
ENDBRANCH  14  15
ENDBRANCH   2  14
TORSDOF 13
ENDMDL
MODEL 3
REMARK VINA RESULT:      -6.6      1.949      2.998
REMARK  Name = 
REMARK  13 active torsions:
REMARK  status: ('A' for Active; 'I' for Inactive)
REMARK    1  A    between atoms: C_2  and  O_3
REMARK    2  A    between atoms: C_2  and  C_4
REMARK    3  A    between atoms: C_9  and  C_11
REMARK    4  A    between atoms: C_12  and  C_13
REMARK    5  A    between atoms: C_13  and  C_14
REMARK    6  A    between atoms: C_14  and  C_15
REMARK    7  A    between atoms: C_15  and  C_16
REMARK    8  A    between atoms: C_16  and  C_17
REMARK    9  A    between atoms: C_17  and  C_18
REMARK   10  A    between atoms: C_18  and  C_19
REMARK   11  A    between atoms: C_19  and  C_20
REMARK   12  A    between atoms: C_20  and  C_21
REMARK   13  A    between atoms: C_21  and  C_22
REMARK                            x       y       z     vdW  Elec       q    Type
REMARK                         _______ _______ _______ _____ _____    ______ ____
ROOT
ATOM      1  C   UNL     1       6.448   6.203  18.205  0.00  0.00    +0.000 C 
ATOM      2  C   UNL     1       7.702   6.559  17.911  0.00  0.00    +0.000 C 
ENDROOT
BRANCH   1   8
ATOM      3  C   UNL     1       3.650   3.607  17.601  0.00  0.00    +0.000 C 
ATOM      4  C   UNL     1       2.260   4.244  17.685  0.00  0.00    +0.000 C 
ATOM      5  C   UNL     1       2.355   5.132  18.922  0.00  0.00    +0.000 C 
ATOM      6  C   UNL     1       3.813   5.555  18.983  0.00  0.00    +0.000 C 
ATOM      7  N   UNL     1       4.527   4.705  18.053  0.00  0.00    +0.000 N 
ATOM      8  C   UNL     1       5.809   4.995  17.596  0.00  0.00    +0.000 C 
ATOM      9  O   UNL     1       6.404   4.293  16.806  0.00  0.00    +0.000 OA
BRANCH   3  11
ATOM     10  O   UNL     1       2.851   1.572  18.741  0.00  0.00    +0.000 OA
ATOM     11  C   UNL     1       3.745   2.401  18.569  0.00  0.00    +0.000 C 
BRANCH  11  12
ATOM     12  O   UNL     1       4.926   2.297  19.219  0.00  0.00    +0.000 OA
ATOM     13  H   UNL     1       4.963   1.547  19.849  0.00  0.00    +0.000 HD
ENDBRANCH  11  12
ENDBRANCH   3  11
ENDBRANCH   1   8
BRANCH   2  14
ATOM     14  C   UNL     1       8.358   7.769  18.511  0.00  0.00    +0.000 C 
BRANCH  14  15
ATOM     15  C   UNL     1       8.135   9.032  17.679  0.00  0.00    +0.000 C 
BRANCH  15  16
ATOM     16  C   UNL     1       8.422  10.297  18.493  0.00  0.00    +0.000 C 
BRANCH  16  17
ATOM     17  C   UNL     1       9.768  10.906  18.109  0.00  0.00    +0.000 C 
BRANCH  17  18
ATOM     18  C   UNL     1      10.589  11.259  19.338  0.00  0.00    +0.000 C 
BRANCH  18  19
ATOM     19  C   UNL     1      12.016  11.615  18.939  0.00  0.00    +0.000 C 
BRANCH  19  20
ATOM     20  C   UNL     1      12.180  13.125  18.822  0.00  0.00    +0.000 C 
BRANCH  20  21
ATOM     21  C   UNL     1      12.055  13.577  17.369  0.00  0.00    +0.000 C 
BRANCH  21  22
ATOM     22  C   UNL     1      11.016  14.688  17.255  0.00  0.00    +0.000 C 
BRANCH  22  23
ATOM     23  C   UNL     1      10.372  15.004  18.574  0.00  0.00    +0.000 C 
ATOM     24  C   UNL     1       9.086  14.767  18.882  0.00  0.00    +0.000 C 
ATOM     25 BR   UNL     1       7.867  13.963  17.709  0.00  0.00    +0.000 Br
ATOM     26 BR   UNL     1       8.407  15.208  20.570  0.00  0.00    +0.000 Br
ENDBRANCH  22  23
ENDBRANCH  21  22
ENDBRANCH  20  21
ENDBRANCH  19  20
ENDBRANCH  18  19
ENDBRANCH  17  18
ENDBRANCH  16  17
ENDBRANCH  15  16
ENDBRANCH  14  15
ENDBRANCH   2  14
TORSDOF 13
ENDMDL
MODEL 4
REMARK VINA RESULT:      -6.6      5.185      7.336
REMARK  Name = 
REMARK  13 active torsions:
REMARK  status: ('A' for Active; 'I' for Inactive)
REMARK    1  A    between atoms: C_2  and  O_3
REMARK    2  A    between atoms: C_2  and  C_4
REMARK    3  A    between atoms: C_9  and  C_11
REMARK    4  A    between atoms: C_12  and  C_13
REMARK    5  A    between atoms: C_13  and  C_14
REMARK    6  A    between atoms: C_14  and  C_15
REMARK    7  A    between atoms: C_15  and  C_16
REMARK    8  A    between atoms: C_16  and  C_17
REMARK    9  A    between atoms: C_17  and  C_18
REMARK   10  A    between atoms: C_18  and  C_19
REMARK   11  A    between atoms: C_19  and  C_20
REMARK   12  A    between atoms: C_20  and  C_21
REMARK   13  A    between atoms: C_21  and  C_22
REMARK                            x       y       z     vdW  Elec       q    Type
REMARK                         _______ _______ _______ _____ _____    ______ ____
ROOT
ATOM      1  C   UNL     1       4.445   3.302  19.481  0.00  0.00    +0.000 C 
ATOM      2  C   UNL     1       3.817   3.391  20.656  0.00  0.00    +0.000 C 
ENDROOT
BRANCH   1   8
ATOM      3  C   UNL     1       6.202   5.569  16.892  0.00  0.00    +0.000 C 
ATOM      4  C   UNL     1       5.264   5.943  15.740  0.00  0.00    +0.000 C 
ATOM      5  C   UNL     1       4.580   4.623  15.400  0.00  0.00    +0.000 C 
ATOM      6  C   UNL     1       4.530   3.865  16.716  0.00  0.00    +0.000 C 
ATOM      7  N   UNL     1       5.408   4.566  17.629  0.00  0.00    +0.000 N 
ATOM      8  C   UNL     1       5.383   4.367  19.005  0.00  0.00    +0.000 C 
ATOM      9  O   UNL     1       6.107   4.962  19.774  0.00  0.00    +0.000 OA
BRANCH   3  11
ATOM     10  O   UNL     1       8.236   4.178  16.972  0.00  0.00    +0.000 OA
ATOM     11  C   UNL     1       7.503   4.934  16.337  0.00  0.00    +0.000 C 
BRANCH  11  12
ATOM     12  O   UNL     1       7.778   5.257  15.053  0.00  0.00    +0.000 OA
ATOM     13  H   UNL     1       7.815   6.223  14.890  0.00  0.00    +0.000 HD
ENDBRANCH  11  12
ENDBRANCH   3  11
ENDBRANCH   1   8
BRANCH   2  14
ATOM     14  C   UNL     1       2.872   2.334  21.148  0.00  0.00    +0.000 C 
BRANCH  14  15
ATOM     15  C   UNL     1       1.460   2.871  21.387  0.00  0.00    +0.000 C 
BRANCH  15  16
ATOM     16  C   UNL     1       0.905   3.562  20.139  0.00  0.00    +0.000 C 
BRANCH  16  17
ATOM     17  C   UNL     1       1.152   5.068  20.187  0.00  0.00    +0.000 C 
BRANCH  17  18
ATOM     18  C   UNL     1       1.788   5.568  18.900  0.00  0.00    +0.000 C 
BRANCH  18  19
ATOM     19  C   UNL     1       2.763   6.702  19.197  0.00  0.00    +0.000 C 
BRANCH  19  20
ATOM     20  C   UNL     1       2.906   7.617  17.988  0.00  0.00    +0.000 C 
BRANCH  20  21
ATOM     21  C   UNL     1       1.683   8.520  17.841  0.00  0.00    +0.000 C 
BRANCH  21  22
ATOM     22  C   UNL     1       1.402   9.239  19.158  0.00  0.00    +0.000 C 
BRANCH  22  23
ATOM     23  C   UNL     1       0.302  10.251  19.032  0.00  0.00    +0.000 C 
ATOM     24  C   UNL     1       0.479  11.557  18.770  0.00  0.00    +0.000 C 
ATOM     25 BR   UNL     1       2.157  12.341  18.483  0.00  0.00    +0.000 Br
ATOM     26 BR   UNL     1      -0.984  12.717  18.637  0.00  0.00    +0.000 Br
ENDBRANCH  22  23
ENDBRANCH  21  22
ENDBRANCH  20  21
ENDBRANCH  19  20
ENDBRANCH  18  19
ENDBRANCH  17  18
ENDBRANCH  16  17
ENDBRANCH  15  16
ENDBRANCH  14  15
ENDBRANCH   2  14
TORSDOF 13
ENDMDL
MODEL 5
REMARK VINA RESULT:      -6.6      1.470      1.511
REMARK  Name = 
REMARK  13 active torsions:
REMARK  status: ('A' for Active; 'I' for Inactive)
REMARK    1  A    between atoms: C_2  and  O_3
REMARK    2  A    between atoms: C_2  and  C_4
REMARK    3  A    between atoms: C_9  and  C_11
REMARK    4  A    between atoms: C_12  and  C_13
REMARK    5  A    between atoms: C_13  and  C_14
REMARK    6  A    between atoms: C_14  and  C_15
REMARK    7  A    between atoms: C_15  and  C_16
REMARK    8  A    between atoms: C_16  and  C_17
REMARK    9  A    between atoms: C_17  and  C_18
REMARK   10  A    between atoms: C_18  and  C_19
REMARK   11  A    between atoms: C_19  and  C_20
REMARK   12  A    between atoms: C_20  and  C_21
REMARK   13  A    between atoms: C_21  and  C_22
REMARK                            x       y       z     vdW  Elec       q    Type
REMARK                         _______ _______ _______ _____ _____    ______ ____
ROOT
ATOM      1  C   UNL     1       5.063   5.050  18.034  0.00  0.00    +0.000 C 
ATOM      2  C   UNL     1       5.896   4.954  16.995  0.00  0.00    +0.000 C 
ENDROOT
BRANCH   1   8
ATOM      3  C   UNL     1       2.149   3.360  19.927  0.00  0.00    +0.000 C 
ATOM      4  C   UNL     1       1.018   4.350  20.223  0.00  0.00    +0.000 C 
ATOM      5  C   UNL     1       1.756   5.591  20.715  0.00  0.00    +0.000 C 
ATOM      6  C   UNL     1       3.089   5.561  19.986  0.00  0.00    +0.000 C 
ATOM      7  N   UNL     1       3.208   4.243  19.399  0.00  0.00    +0.000 N 
ATOM      8  C   UNL     1       4.128   3.940  18.401  0.00  0.00    +0.000 C 
ATOM      9  O   UNL     1       4.221   2.841  17.897  0.00  0.00    +0.000 OA
BRANCH   3  11
ATOM     10  O   UNL     1       3.766   2.305  21.460  0.00  0.00    +0.000 OA
ATOM     11  C   UNL     1       2.614   2.673  21.236  0.00  0.00    +0.000 C 
BRANCH  11  12
ATOM     12  O   UNL     1       1.641   2.520  22.163  0.00  0.00    +0.000 OA
ATOM     13  H   UNL     1       0.737   2.651  21.809  0.00  0.00    +0.000 HD
ENDBRANCH  11  12
ENDBRANCH   3  11
ENDBRANCH   1   8
BRANCH   2  14
ATOM     14  C   UNL     1       6.838   6.058  16.611  0.00  0.00    +0.000 C 
BRANCH  14  15
ATOM     15  C   UNL     1       7.445   6.761  17.826  0.00  0.00    +0.000 C 
BRANCH  15  16
ATOM     16  C   UNL     1       7.722   8.239  17.537  0.00  0.00    +0.000 C 
BRANCH  16  17
ATOM     17  C   UNL     1       8.623   8.850  18.607  0.00  0.00    +0.000 C 
BRANCH  17  18
ATOM     18  C   UNL     1       8.926  10.310  18.312  0.00  0.00    +0.000 C 
BRANCH  18  19
ATOM     19  C   UNL     1       9.611  10.962  19.507  0.00  0.00    +0.000 C 
BRANCH  19  20
ATOM     20  C   UNL     1      11.010  11.433  19.134  0.00  0.00    +0.000 C 
BRANCH  20  21
ATOM     21  C   UNL     1      11.023  12.933  18.846  0.00  0.00    +0.000 C 
BRANCH  21  22
ATOM     22  C   UNL     1      10.404  13.694  20.014  0.00  0.00    +0.000 C 
BRANCH  22  23
ATOM     23  C   UNL     1       9.241  14.543  19.590  0.00  0.00    +0.000 C 
ATOM     24  C   UNL     1       9.327  15.814  19.166  0.00  0.00    +0.000 C 
ATOM     25 BR   UNL     1      10.943  16.749  19.000  0.00  0.00    +0.000 Br
ATOM     26 BR   UNL     1       7.794  16.764  18.662  0.00  0.00    +0.000 Br
ENDBRANCH  22  23
ENDBRANCH  21  22
ENDBRANCH  20  21
ENDBRANCH  19  20
ENDBRANCH  18  19
ENDBRANCH  17  18
ENDBRANCH  16  17
ENDBRANCH  15  16
ENDBRANCH  14  15
ENDBRANCH   2  14
TORSDOF 13
ENDMDL
MODEL 6
REMARK VINA RESULT:      -6.5      5.792      8.929
REMARK  Name = 
REMARK  13 active torsions:
REMARK  status: ('A' for Active; 'I' for Inactive)
REMARK    1  A    between atoms: C_2  and  O_3
REMARK    2  A    between atoms: C_2  and  C_4
REMARK    3  A    between atoms: C_9  and  C_11
REMARK    4  A    between atoms: C_12  and  C_13
REMARK    5  A    between atoms: C_13  and  C_14
REMARK    6  A    between atoms: C_14  and  C_15
REMARK    7  A    between atoms: C_15  and  C_16
REMARK    8  A    between atoms: C_16  and  C_17
REMARK    9  A    between atoms: C_17  and  C_18
REMARK   10  A    between atoms: C_18  and  C_19
REMARK   11  A    between atoms: C_19  and  C_20
REMARK   12  A    between atoms: C_20  and  C_21
REMARK   13  A    between atoms: C_21  and  C_22
REMARK                            x       y       z     vdW  Elec       q    Type
REMARK                         _______ _______ _______ _____ _____    ______ ____
ROOT
ATOM      1  C   UNL     1       1.449   8.168  20.152  0.00  0.00    +0.000 C 
ATOM      2  C   UNL     1       2.107   7.047  19.841  0.00  0.00    +0.000 C 
ENDROOT
BRANCH   1   8
ATOM      3  C   UNL     1       0.574  11.752  19.004  0.00  0.00    +0.000 C 
ATOM      4  C   UNL     1       0.779  12.772  20.128  0.00  0.00    +0.000 C 
ATOM      5  C   UNL     1       0.163  12.085  21.343  0.00  0.00    +0.000 C 
ATOM      6  C   UNL     1       0.369  10.600  21.092  0.00  0.00    +0.000 C 
ATOM      7  N   UNL     1       0.765  10.468  19.706  0.00  0.00    +0.000 N 
ATOM      8  C   UNL     1       1.346   9.312  19.193  0.00  0.00    +0.000 C 
ATOM      9  O   UNL     1       1.691   9.203  18.036  0.00  0.00    +0.000 OA
BRANCH   3  11
ATOM     10  O   UNL     1      -1.670  10.926  18.401  0.00  0.00    +0.000 OA
ATOM     11  C   UNL     1      -0.867  11.858  18.443  0.00  0.00    +0.000 C 
BRANCH  11  12
ATOM     12  O   UNL     1      -1.209  13.093  18.011  0.00  0.00    +0.000 OA
ATOM     13  H   UNL     1      -0.941  13.811  18.622  0.00  0.00    +0.000 HD
ENDBRANCH  11  12
ENDBRANCH   3  11
ENDBRANCH   1   8
BRANCH   2  14
ATOM     14  C   UNL     1       2.223   5.891  20.791  0.00  0.00    +0.000 C 
BRANCH  14  15
ATOM     15  C   UNL     1       1.229   4.771  20.479  0.00  0.00    +0.000 C 
BRANCH  15  16
ATOM     16  C   UNL     1       1.542   3.506  21.282  0.00  0.00    +0.000 C 
BRANCH  16  17
ATOM     17  C   UNL     1       2.627   2.675  20.601  0.00  0.00    +0.000 C 
BRANCH  17  18
ATOM     18  C   UNL     1       2.065   1.867  19.443  0.00  0.00    +0.000 C 
BRANCH  18  19
ATOM     19  C   UNL     1       3.007   1.927  18.246  0.00  0.00    +0.000 C 
BRANCH  19  20
ATOM     20  C   UNL     1       2.636   3.085  17.329  0.00  0.00    +0.000 C 
BRANCH  20  21
ATOM     21  C   UNL     1       3.887   3.775  16.788  0.00  0.00    +0.000 C 
BRANCH  21  22
ATOM     22  C   UNL     1       3.968   5.203  17.319  0.00  0.00    +0.000 C 
BRANCH  22  23
ATOM     23  C   UNL     1       5.075   5.379  18.316  0.00  0.00    +0.000 C 
ATOM     24  C   UNL     1       6.377   5.511  18.010  0.00  0.00    +0.000 C 
ATOM     25 BR   UNL     1       7.035   5.528  16.255  0.00  0.00    +0.000 Br
ATOM     26 BR   UNL     1       7.662   5.728  19.353  0.00  0.00    +0.000 Br
ENDBRANCH  22  23
ENDBRANCH  21  22
ENDBRANCH  20  21
ENDBRANCH  19  20
ENDBRANCH  18  19
ENDBRANCH  17  18
ENDBRANCH  16  17
ENDBRANCH  15  16
ENDBRANCH  14  15
ENDBRANCH   2  14
TORSDOF 13
ENDMDL
MODEL 7
REMARK VINA RESULT:      -6.5      2.384      4.436
REMARK  Name = 
REMARK  13 active torsions:
REMARK  status: ('A' for Active; 'I' for Inactive)
REMARK    1  A    between atoms: C_2  and  O_3
REMARK    2  A    between atoms: C_2  and  C_4
REMARK    3  A    between atoms: C_9  and  C_11
REMARK    4  A    between atoms: C_12  and  C_13
REMARK    5  A    between atoms: C_13  and  C_14
REMARK    6  A    between atoms: C_14  and  C_15
REMARK    7  A    between atoms: C_15  and  C_16
REMARK    8  A    between atoms: C_16  and  C_17
REMARK    9  A    between atoms: C_17  and  C_18
REMARK   10  A    between atoms: C_18  and  C_19
REMARK   11  A    between atoms: C_19  and  C_20
REMARK   12  A    between atoms: C_20  and  C_21
REMARK   13  A    between atoms: C_21  and  C_22
REMARK                            x       y       z     vdW  Elec       q    Type
REMARK                         _______ _______ _______ _____ _____    ______ ____
ROOT
ATOM      1  C   UNL     1       7.864   7.871  17.834  0.00  0.00    +0.000 C 
ATOM      2  C   UNL     1       8.585   8.683  18.612  0.00  0.00    +0.000 C 
ENDROOT
BRANCH   1   8
ATOM      3  C   UNL     1       6.048   4.464  17.681  0.00  0.00    +0.000 C 
ATOM      4  C   UNL     1       5.672   4.088  16.244  0.00  0.00    +0.000 C 
ATOM      5  C   UNL     1       5.109   5.387  15.676  0.00  0.00    +0.000 C 
ATOM      6  C   UNL     1       5.856   6.486  16.414  0.00  0.00    +0.000 C 
ATOM      7  N   UNL     1       6.531   5.850  17.526  0.00  0.00    +0.000 N 
ATOM      8  C   UNL     1       7.559   6.462  18.236  0.00  0.00    +0.000 C 
ATOM      9  O   UNL     1       8.135   5.927  19.159  0.00  0.00    +0.000 OA
BRANCH   3  11
ATOM     10  O   UNL     1       4.529   5.256  19.454  0.00  0.00    +0.000 OA
ATOM     11  C   UNL     1       4.793   4.421  18.589  0.00  0.00    +0.000 C 
BRANCH  11  12
ATOM     12  O   UNL     1       3.962   3.383  18.346  0.00  0.00    +0.000 OA
ATOM     13  H   UNL     1       4.290   2.771  17.654  0.00  0.00    +0.000 HD
ENDBRANCH  11  12
ENDBRANCH   3  11
ENDBRANCH   1   8
BRANCH   2  14
ATOM     14  C   UNL     1       8.903  10.098  18.224  0.00  0.00    +0.000 C 
BRANCH  14  15
ATOM     15  C   UNL     1       9.645  10.858  19.324  0.00  0.00    +0.000 C 
BRANCH  15  16
ATOM     16  C   UNL     1      11.007  11.358  18.838  0.00  0.00    +0.000 C 
BRANCH  16  17
ATOM     17  C   UNL     1      11.742  12.116  19.942  0.00  0.00    +0.000 C 
BRANCH  17  18
ATOM     18  C   UNL     1      12.324  13.422  19.428  0.00  0.00    +0.000 C 
BRANCH  18  19
ATOM     19  C   UNL     1      11.343  14.566  19.655  0.00  0.00    +0.000 C 
BRANCH  19  20
ATOM     20  C   UNL     1      10.694  14.985  18.343  0.00  0.00    +0.000 C 
BRANCH  20  21
ATOM     21  C   UNL     1       9.215  15.307  18.543  0.00  0.00    +0.000 C 
BRANCH  21  22
ATOM     22  C   UNL     1       8.534  14.178  19.312  0.00  0.00    +0.000 C 
BRANCH  22  23
ATOM     23  C   UNL     1       7.639  14.689  20.402  0.00  0.00    +0.000 C 
ATOM     24  C   UNL     1       7.674  14.286  21.684  0.00  0.00    +0.000 C 
ATOM     25 BR   UNL     1       8.888  13.019  22.342  0.00  0.00    +0.000 Br
ATOM     26 BR   UNL     1       6.500  15.008  22.950  0.00  0.00    +0.000 Br
ENDBRANCH  22  23
ENDBRANCH  21  22
ENDBRANCH  20  21
ENDBRANCH  19  20
ENDBRANCH  18  19
ENDBRANCH  17  18
ENDBRANCH  16  17
ENDBRANCH  15  16
ENDBRANCH  14  15
ENDBRANCH   2  14
TORSDOF 13
ENDMDL
MODEL 8
REMARK VINA RESULT:      -6.4      6.070      9.400
REMARK  Name = 
REMARK  13 active torsions:
REMARK  status: ('A' for Active; 'I' for Inactive)
REMARK    1  A    between atoms: C_2  and  O_3
REMARK    2  A    between atoms: C_2  and  C_4
REMARK    3  A    between atoms: C_9  and  C_11
REMARK    4  A    between atoms: C_12  and  C_13
REMARK    5  A    between atoms: C_13  and  C_14
REMARK    6  A    between atoms: C_14  and  C_15
REMARK    7  A    between atoms: C_15  and  C_16
REMARK    8  A    between atoms: C_16  and  C_17
REMARK    9  A    between atoms: C_17  and  C_18
REMARK   10  A    between atoms: C_18  and  C_19
REMARK   11  A    between atoms: C_19  and  C_20
REMARK   12  A    between atoms: C_20  and  C_21
REMARK   13  A    between atoms: C_21  and  C_22
REMARK                            x       y       z     vdW  Elec       q    Type
REMARK                         _______ _______ _______ _____ _____    ______ ____
ROOT
ATOM      1  C   UNL     1       1.052   8.791  20.500  0.00  0.00    +0.000 C 
ATOM      2  C   UNL     1       1.205   7.489  20.758  0.00  0.00    +0.000 C 
ENDROOT
BRANCH   1   8
ATOM      3  C   UNL     1      -1.373  11.779  20.853  0.00  0.00    +0.000 C 
ATOM      4  C   UNL     1      -1.768  12.350  19.488  0.00  0.00    +0.000 C 
ATOM      5  C   UNL     1      -0.444  12.404  18.732  0.00  0.00    +0.000 C 
ATOM      6  C   UNL     1       0.371  11.253  19.299  0.00  0.00    +0.000 C 
ATOM      7  N   UNL     1      -0.317  10.812  20.494  0.00  0.00    +0.000 N 
ATOM      8  C   UNL     1      -0.059   9.589  21.107  0.00  0.00    +0.000 C 
ATOM      9  O   UNL     1      -0.642   9.211  22.100  0.00  0.00    +0.000 OA
BRANCH   3  11
ATOM     10  O   UNL     1      -0.787  14.095  21.461  0.00  0.00    +0.000 OA
ATOM     11  C   UNL     1      -0.801  12.901  21.756  0.00  0.00    +0.000 C 
BRANCH  11  12
ATOM     12  O   UNL     1      -0.323  12.471  22.946  0.00  0.00    +0.000 OA
ATOM     13  H   UNL     1      -0.787  11.682  23.294  0.00  0.00    +0.000 HD
ENDBRANCH  11  12
ENDBRANCH   3  11
ENDBRANCH   1   8
BRANCH   2  14
ATOM     14  C   UNL     1       2.312   6.673  20.156  0.00  0.00    +0.000 C 
BRANCH  14  15
ATOM     15  C   UNL     1       2.398   5.268  20.753  0.00  0.00    +0.000 C 
BRANCH  15  16
ATOM     16  C   UNL     1       1.128   4.461  20.471  0.00  0.00    +0.000 C 
BRANCH  16  17
ATOM     17  C   UNL     1       1.273   3.020  20.954  0.00  0.00    +0.000 C 
BRANCH  17  18
ATOM     18  C   UNL     1       1.801   2.114  19.854  0.00  0.00    +0.000 C 
BRANCH  18  19
ATOM     19  C   UNL     1       1.393   2.648  18.485  0.00  0.00    +0.000 C 
BRANCH  19  20
ATOM     20  C   UNL     1       2.522   2.468  17.480  0.00  0.00    +0.000 C 
BRANCH  20  21
ATOM     21  C   UNL     1       3.746   3.289  17.880  0.00  0.00    +0.000 C 
BRANCH  21  22
ATOM     22  C   UNL     1       3.633   4.703  17.316  0.00  0.00    +0.000 C 
BRANCH  22  23
ATOM     23  C   UNL     1       4.811   5.558  17.680  0.00  0.00    +0.000 C 
ATOM     24  C   UNL     1       5.938   5.670  16.958  0.00  0.00    +0.000 C 
ATOM     25 BR   UNL     1       6.223   4.784  15.332  0.00  0.00    +0.000 Br
ATOM     26 BR   UNL     1       7.336   6.778  17.526  0.00  0.00    +0.000 Br
ENDBRANCH  22  23
ENDBRANCH  21  22
ENDBRANCH  20  21
ENDBRANCH  19  20
ENDBRANCH  18  19
ENDBRANCH  17  18
ENDBRANCH  16  17
ENDBRANCH  15  16
ENDBRANCH  14  15
ENDBRANCH   2  14
TORSDOF 13
ENDMDL
MODEL 9
REMARK VINA RESULT:      -6.4      6.167     10.024
REMARK  Name = 
REMARK  13 active torsions:
REMARK  status: ('A' for Active; 'I' for Inactive)
REMARK    1  A    between atoms: C_2  and  O_3
REMARK    2  A    between atoms: C_2  and  C_4
REMARK    3  A    between atoms: C_9  and  C_11
REMARK    4  A    between atoms: C_12  and  C_13
REMARK    5  A    between atoms: C_13  and  C_14
REMARK    6  A    between atoms: C_14  and  C_15
REMARK    7  A    between atoms: C_15  and  C_16
REMARK    8  A    between atoms: C_16  and  C_17
REMARK    9  A    between atoms: C_17  and  C_18
REMARK   10  A    between atoms: C_18  and  C_19
REMARK   11  A    between atoms: C_19  and  C_20
REMARK   12  A    between atoms: C_20  and  C_21
REMARK   13  A    between atoms: C_21  and  C_22
REMARK                            x       y       z     vdW  Elec       q    Type
REMARK                         _______ _______ _______ _____ _____    ______ ____
ROOT
ATOM      1  C   UNL     1       9.111   9.859  18.593  0.00  0.00    +0.000 C 
ATOM      2  C   UNL     1       8.228   9.464  17.672  0.00  0.00    +0.000 C 
ENDROOT
BRANCH   1   8
ATOM      3  C   UNL     1      10.121  13.397  19.774  0.00  0.00    +0.000 C 
ATOM      4  C   UNL     1      10.281  13.460  21.296  0.00  0.00    +0.000 C 
ATOM      5  C   UNL     1       9.062  12.699  21.809  0.00  0.00    +0.000 C 
ATOM      6  C   UNL     1       8.769  11.669  20.731  0.00  0.00    +0.000 C 
ATOM      7  N   UNL     1       9.551  12.050  19.574  0.00  0.00    +0.000 N 
ATOM      8  C   UNL     1       9.795  11.187  18.510  0.00  0.00    +0.000 C 
ATOM      9  O   UNL     1      10.461  11.498  17.546  0.00  0.00    +0.000 OA
BRANCH   3  11
ATOM     10  O   UNL     1       8.474  14.425  18.254  0.00  0.00    +0.000 OA
ATOM     11  C   UNL     1       9.128  14.486  19.294  0.00  0.00    +0.000 C 
BRANCH  11  12
ATOM     12  O   UNL     1       9.002  15.536  20.137  0.00  0.00    +0.000 OA
ATOM     13  H   UNL     1       8.154  15.546  20.629  0.00  0.00    +0.000 HD
ENDBRANCH  11  12
ENDBRANCH   3  11
ENDBRANCH   1   8
BRANCH   2  14
ATOM     14  C   UNL     1       7.535   8.134  17.738  0.00  0.00    +0.000 C 
BRANCH  14  15
ATOM     15  C   UNL     1       8.217   7.162  18.702  0.00  0.00    +0.000 C 
BRANCH  15  16
ATOM     16  C   UNL     1       7.787   5.717  18.437  0.00  0.00    +0.000 C 
BRANCH  16  17
ATOM     17  C   UNL     1       6.637   5.307  19.355  0.00  0.00    +0.000 C 
BRANCH  17  18
ATOM     18  C   UNL     1       5.590   4.500  18.607  0.00  0.00    +0.000 C 
BRANCH  18  19
ATOM     19  C   UNL     1       5.596   4.865  17.126  0.00  0.00    +0.000 C 
BRANCH  19  20
ATOM     20  C   UNL     1       4.355   5.671  16.767  0.00  0.00    +0.000 C 
BRANCH  20  21
ATOM     21  C   UNL     1       3.992   6.643  17.888  0.00  0.00    +0.000 C 
BRANCH  21  22
ATOM     22  C   UNL     1       2.525   6.474  18.271  0.00  0.00    +0.000 C 
BRANCH  22  23
ATOM     23  C   UNL     1       2.353   5.708  19.550  0.00  0.00    +0.000 C 
ATOM     24  C   UNL     1       2.037   4.406  19.635  0.00  0.00    +0.000 C 
ATOM     25 BR   UNL     1       1.780   3.299  18.145  0.00  0.00    +0.000 Br
ATOM     26 BR   UNL     1       1.854   3.568  21.299  0.00  0.00    +0.000 Br
ENDBRANCH  22  23
ENDBRANCH  21  22
ENDBRANCH  20  21
ENDBRANCH  19  20
ENDBRANCH  18  19
ENDBRANCH  17  18
ENDBRANCH  16  17
ENDBRANCH  15  16
ENDBRANCH  14  15
ENDBRANCH   2  14
TORSDOF 13
ENDMDL
