MODEL 1
REMARK VINA RESULT:      -7.1      0.000      0.000
REMARK  Name = 
REMARK  1 active torsions:
REMARK  status: ('A' for Active; 'I' for Inactive)
REMARK    1  A    between atoms: N_3  and  O_4
REMARK                            x       y       z     vdW  Elec       q    Type
REMARK                         _______ _______ _______ _____ _____    ______ ____
ROOT
ATOM      1  N   UNL     1       7.096   4.383  18.237  0.00  0.00    +0.000 N 
ATOM      2  C   UNL     1       6.066   4.694  17.402  0.00  0.00    +0.000 C 
ATOM      3  N   UNL     1       6.177   5.581  16.457  0.00  0.00    +0.000 NA
ATOM      4  N   UNL     1       4.934   3.950  17.642  0.00  0.00    +0.000 N 
ATOM      5  C   UNL     1       3.853   4.011  16.632  0.00  0.00    +0.000 C 
ATOM      6  C   UNL     1       2.654   3.175  17.076  0.00  0.00    +0.000 C 
ATOM      7  C   UNL     1       2.036   3.773  18.358  0.00  0.00    +0.000 C 
ATOM      8  C   UNL     1       1.243   2.762  19.159  0.00  0.00    +0.000 C 
ATOM      9  C   UNL     1       1.091   2.900  20.489  0.00  0.00    +0.000 C 
ATOM     10  C   UNL     1       1.700   3.998  21.201  0.00  0.00    +0.000 C 
ATOM     11  C   UNL     1       2.697   4.705  20.650  0.00  0.00    +0.000 C 
ATOM     12  C   UNL     1       3.122   4.493  19.215  0.00  0.00    +0.000 C 
ATOM     13  C   UNL     1       4.462   3.754  19.036  0.00  0.00    +0.000 C 
ATOM     14  H   UNL     1       7.936   4.833  17.887  0.00  0.00    +0.000 HD
ATOM     15  H   UNL     1       7.217   3.383  18.320  0.00  0.00    +0.000 HD
ENDROOT
BRANCH   3  16
ATOM     16  O   UNL     1       7.457   6.166  16.461  0.00  0.00    +0.000 OA
ATOM     17  H   UNL     1       8.029   5.389  16.601  0.00  0.00    +0.000 HD
ENDBRANCH   3  16
TORSDOF 1
ENDMDL
MODEL 2
REMARK VINA RESULT:      -7.0      1.099      1.128
REMARK  Name = 
REMARK  1 active torsions:
REMARK  status: ('A' for Active; 'I' for Inactive)
REMARK    1  A    between atoms: N_3  and  O_4
REMARK                            x       y       z     vdW  Elec       q    Type
REMARK                         _______ _______ _______ _____ _____    ______ ____
ROOT
ATOM      1  N   UNL     1       7.089   5.171  19.618  0.00  0.00    +0.000 N 
ATOM      2  C   UNL     1       6.367   5.473  18.504  0.00  0.00    +0.000 C 
ATOM      3  N   UNL     1       6.694   6.444  17.702  0.00  0.00    +0.000 NA
ATOM      4  N   UNL     1       5.299   4.628  18.307  0.00  0.00    +0.000 N 
ATOM      5  C   UNL     1       4.612   4.694  16.997  0.00  0.00    +0.000 C 
ATOM      6  C   UNL     1       3.423   3.735  16.964  0.00  0.00    +0.000 C 
ATOM      7  C   UNL     1       2.361   4.172  17.995  0.00  0.00    +0.000 C 
ATOM      8  C   UNL     1       1.453   3.039  18.425  0.00  0.00    +0.000 C 
ATOM      9  C   UNL     1       0.858   3.049  19.631  0.00  0.00    +0.000 C 
ATOM     10  C   UNL     1       1.085   4.124  20.567  0.00  0.00    +0.000 C 
ATOM     11  C   UNL     1       2.132   4.950  20.424  0.00  0.00    +0.000 C 
ATOM     12  C   UNL     1       3.025   4.895  19.206  0.00  0.00    +0.000 C 
ATOM     13  C   UNL     1       4.417   4.277  19.448  0.00  0.00    +0.000 C 
ATOM     14  H   UNL     1       7.948   5.711  19.596  0.00  0.00    +0.000 HD
ATOM     15  H   UNL     1       7.276   4.178  19.680  0.00  0.00    +0.000 HD
ENDROOT
BRANCH   3  16
ATOM     16  O   UNL     1       7.836   7.122  18.170  0.00  0.00    +0.000 OA
ATOM     17  H   UNL     1       7.726   7.052  19.136  0.00  0.00    +0.000 HD
ENDBRANCH   3  16
TORSDOF 1
ENDMDL
MODEL 3
REMARK VINA RESULT:      -7.0      1.560      2.055
REMARK  Name = 
REMARK  1 active torsions:
REMARK  status: ('A' for Active; 'I' for Inactive)
REMARK    1  A    between atoms: N_3  and  O_4
REMARK                            x       y       z     vdW  Elec       q    Type
REMARK                         _______ _______ _______ _____ _____    ______ ____
ROOT
ATOM      1  N   UNL     1       7.733   5.430  19.983  0.00  0.00    +0.000 N 
ATOM      2  C   UNL     1       7.233   5.843  18.785  0.00  0.00    +0.000 C 
ATOM      3  N   UNL     1       7.668   6.909  18.178  0.00  0.00    +0.000 NA
ATOM      4  N   UNL     1       6.267   5.003  18.284  0.00  0.00    +0.000 N 
ATOM      5  C   UNL     1       5.851   5.206  16.878  0.00  0.00    +0.000 C 
ATOM      6  C   UNL     1       4.738   4.230  16.499  0.00  0.00    +0.000 C 
ATOM      7  C   UNL     1       3.474   4.519  17.334  0.00  0.00    +0.000 C 
ATOM      8  C   UNL     1       2.551   3.323  17.443  0.00  0.00    +0.000 C 
ATOM      9  C   UNL     1       1.729   3.179  18.497  0.00  0.00    +0.000 C 
ATOM     10  C   UNL     1       1.714   4.142  19.572  0.00  0.00    +0.000 C 
ATOM     11  C   UNL     1       2.729   5.002  19.736  0.00  0.00    +0.000 C 
ATOM     12  C   UNL     1       3.849   5.110  18.727  0.00  0.00    +0.000 C 
ATOM     13  C   UNL     1       5.192   4.501  19.176  0.00  0.00    +0.000 C 
ATOM     14  H   UNL     1       8.553   5.988  20.195  0.00  0.00    +0.000 HD
ATOM     15  H   UNL     1       7.949   4.441  19.972  0.00  0.00    +0.000 HD
ENDROOT
BRANCH   3  16
ATOM     16  O   UNL     1       8.662   7.553  18.940  0.00  0.00    +0.000 OA
ATOM     17  H   UNL     1       9.324   7.772  18.257  0.00  0.00    +0.000 HD
ENDBRANCH   3  16
TORSDOF 1
ENDMDL
MODEL 4
REMARK VINA RESULT:      -6.9      1.301      2.596
REMARK  Name = 
REMARK  1 active torsions:
REMARK  status: ('A' for Active; 'I' for Inactive)
REMARK    1  A    between atoms: N_3  and  O_4
REMARK                            x       y       z     vdW  Elec       q    Type
REMARK                         _______ _______ _______ _____ _____    ______ ____
ROOT
ATOM      1  N   UNL     1       5.556   6.495  15.156  0.00  0.00    +0.000 N 
ATOM      2  C   UNL     1       6.155   5.634  16.025  0.00  0.00    +0.000 C 
ATOM      3  N   UNL     1       7.271   5.025  15.748  0.00  0.00    +0.000 NA
ATOM      4  N   UNL     1       5.480   5.515  17.218  0.00  0.00    +0.000 N 
ATOM      5  C   UNL     1       6.175   4.823  18.327  0.00  0.00    +0.000 C 
ATOM      6  C   UNL     1       5.270   4.730  19.555  0.00  0.00    +0.000 C 
ATOM      7  C   UNL     1       4.042   3.850  19.243  0.00  0.00    +0.000 C 
ATOM      8  C   UNL     1       2.863   4.138  20.149  0.00  0.00    +0.000 C 
ATOM      9  C   UNL     1       1.604   3.906  19.739  0.00  0.00    +0.000 C 
ATOM     10  C   UNL     1       1.329   3.402  18.415  0.00  0.00    +0.000 C 
ATOM     11  C   UNL     1       2.255   3.473  17.448  0.00  0.00    +0.000 C 
ATOM     12  C   UNL     1       3.666   3.934  17.732  0.00  0.00    +0.000 C 
ATOM     13  C   UNL     1       4.005   5.347  17.217  0.00  0.00    +0.000 C 
ATOM     14  H   UNL     1       6.197   6.667  14.388  0.00  0.00    +0.000 HD
ATOM     15  H   UNL     1       5.286   7.355  15.615  0.00  0.00    +0.000 HD
ENDROOT
BRANCH   3  16
ATOM     16  O   UNL     1       7.718   5.355  14.454  0.00  0.00    +0.000 OA
ATOM     17  H   UNL     1       8.208   6.182  14.619  0.00  0.00    +0.000 HD
ENDBRANCH   3  16
TORSDOF 1
ENDMDL
MODEL 5
REMARK VINA RESULT:      -6.9      1.402      1.920
REMARK  Name = 
REMARK  1 active torsions:
REMARK  status: ('A' for Active; 'I' for Inactive)
REMARK    1  A    between atoms: N_3  and  O_4
REMARK                            x       y       z     vdW  Elec       q    Type
REMARK                         _______ _______ _______ _____ _____    ______ ____
ROOT
ATOM      1  N   UNL     1       5.703   3.289  16.104  0.00  0.00    +0.000 N 
ATOM      2  C   UNL     1       5.756   4.400  16.891  0.00  0.00    +0.000 C 
ATOM      3  N   UNL     1       6.837   5.114  17.019  0.00  0.00    +0.000 NA
ATOM      4  N   UNL     1       4.553   4.697  17.488  0.00  0.00    +0.000 N 
ATOM      5  C   UNL     1       4.426   6.019  18.141  0.00  0.00    +0.000 C 
ATOM      6  C   UNL     1       3.054   6.165  18.798  0.00  0.00    +0.000 C 
ATOM      7  C   UNL     1       2.902   5.140  19.940  0.00  0.00    +0.000 C 
ATOM      8  C   UNL     1       1.456   4.828  20.266  0.00  0.00    +0.000 C 
ATOM      9  C   UNL     1       1.108   3.645  20.803  0.00  0.00    +0.000 C 
ATOM     10  C   UNL     1       2.092   2.622  21.060  0.00  0.00    +0.000 C 
ATOM     11  C   UNL     1       3.297   2.666  20.474  0.00  0.00    +0.000 C 
ATOM     12  C   UNL     1       3.736   3.854  19.650  0.00  0.00    +0.000 C 
ATOM     13  C   UNL     1       3.761   3.616  18.127  0.00  0.00    +0.000 C 
ATOM     14  H   UNL     1       6.561   3.241  15.564  0.00  0.00    +0.000 HD
ATOM     15  H   UNL     1       4.888   3.298  15.506  0.00  0.00    +0.000 HD
ENDROOT
BRANCH   3  16
ATOM     16  O   UNL     1       7.900   4.558  16.281  0.00  0.00    +0.000 OA
ATOM     17  H   UNL     1       8.119   5.286  15.671  0.00  0.00    +0.000 HD
ENDBRANCH   3  16
TORSDOF 1
ENDMDL
MODEL 6
REMARK VINA RESULT:      -6.8      3.198      5.166
REMARK  Name = 
REMARK  1 active torsions:
REMARK  status: ('A' for Active; 'I' for Inactive)
REMARK    1  A    between atoms: N_3  and  O_4
REMARK                            x       y       z     vdW  Elec       q    Type
REMARK                         _______ _______ _______ _____ _____    ______ ____
ROOT
ATOM      1  N   UNL     1       2.325   5.016  21.251  0.00  0.00    +0.000 N 
ATOM      2  C   UNL     1       2.693   3.975  20.453  0.00  0.00    +0.000 C 
ATOM      3  N   UNL     1       2.448   2.735  20.765  0.00  0.00    +0.000 NA
ATOM      4  N   UNL     1       3.302   4.378  19.287  0.00  0.00    +0.000 N 
ATOM      5  C   UNL     1       3.498   3.356  18.233  0.00  0.00    +0.000 C 
ATOM      6  C   UNL     1       4.232   3.954  17.034  0.00  0.00    +0.000 C 
ATOM      7  C   UNL     1       5.657   4.380  17.445  0.00  0.00    +0.000 C 
ATOM      8  C   UNL     1       6.241   5.443  16.537  0.00  0.00    +0.000 C 
ATOM      9  C   UNL     1       7.173   6.301  16.988  0.00  0.00    +0.000 C 
ATOM     10  C   UNL     1       7.629   6.259  18.356  0.00  0.00    +0.000 C 
ATOM     11  C   UNL     1       6.918   5.621  19.297  0.00  0.00    +0.000 C 
ATOM     12  C   UNL     1       5.704   4.792  18.948  0.00  0.00    +0.000 C 
ATOM     13  C   UNL     1       4.351   5.427  19.328  0.00  0.00    +0.000 C 
ATOM     14  H   UNL     1       1.730   4.655  21.990  0.00  0.00    +0.000 HD
ATOM     15  H   UNL     1       1.862   5.742  20.722  0.00  0.00    +0.000 HD
ENDROOT
BRANCH   3  16
ATOM     16  O   UNL     1       1.809   2.647  22.016  0.00  0.00    +0.000 OA
ATOM     17  H   UNL     1       1.682   1.684  22.106  0.00  0.00    +0.000 HD
ENDBRANCH   3  16
TORSDOF 1
ENDMDL
MODEL 7
REMARK VINA RESULT:      -6.7      1.728      2.341
REMARK  Name = 
REMARK  1 active torsions:
REMARK  status: ('A' for Active; 'I' for Inactive)
REMARK    1  A    between atoms: N_3  and  O_4
REMARK                            x       y       z     vdW  Elec       q    Type
REMARK                         _______ _______ _______ _____ _____    ______ ____
ROOT
ATOM      1  N   UNL     1       6.432   5.570  15.450  0.00  0.00    +0.000 N 
ATOM      2  C   UNL     1       5.902   6.230  16.517  0.00  0.00    +0.000 C 
ATOM      3  N   UNL     1       6.557   7.149  17.164  0.00  0.00    +0.000 NA
ATOM      4  N   UNL     1       4.610   5.850  16.799  0.00  0.00    +0.000 N 
ATOM      5  C   UNL     1       3.850   6.684  17.757  0.00  0.00    +0.000 C 
ATOM      6  C   UNL     1       2.461   6.095  17.999  0.00  0.00    +0.000 C 
ATOM      7  C   UNL     1       2.581   4.716  18.680  0.00  0.00    +0.000 C 
ATOM      8  C   UNL     1       1.364   3.841  18.461  0.00  0.00    +0.000 C 
ATOM      9  C   UNL     1       1.464   2.500  18.487  0.00  0.00    +0.000 C 
ATOM     10  C   UNL     1       2.735   1.848  18.695  0.00  0.00    +0.000 C 
ATOM     11  C   UNL     1       3.885   2.517  18.527  0.00  0.00    +0.000 C 
ATOM     12  C   UNL     1       3.907   4.005  18.268  0.00  0.00    +0.000 C 
ATOM     13  C   UNL     1       4.254   4.409  16.821  0.00  0.00    +0.000 C 
ATOM     14  H   UNL     1       7.302   6.026  15.194  0.00  0.00    +0.000 HD
ATOM     15  H   UNL     1       5.785   5.542  14.673  0.00  0.00    +0.000 HD
ENDROOT
BRANCH   3  16
ATOM     16  O   UNL     1       7.850   7.316  16.634  0.00  0.00    +0.000 OA
ATOM     17  H   UNL     1       7.674   7.874  15.854  0.00  0.00    +0.000 HD
ENDBRANCH   3  16
TORSDOF 1
ENDMDL
MODEL 8
REMARK VINA RESULT:      -6.7      1.246      2.317
REMARK  Name = 
REMARK  1 active torsions:
REMARK  status: ('A' for Active; 'I' for Inactive)
REMARK    1  A    between atoms: N_3  and  O_4
REMARK                            x       y       z     vdW  Elec       q    Type
REMARK                         _______ _______ _______ _____ _____    ______ ____
ROOT
ATOM      1  N   UNL     1       5.365   4.814  15.288  0.00  0.00    +0.000 N 
ATOM      2  C   UNL     1       5.757   4.846  16.592  0.00  0.00    +0.000 C 
ATOM      3  N   UNL     1       7.005   4.747  16.948  0.00  0.00    +0.000 NA
ATOM      4  N   UNL     1       4.711   5.033  17.466  0.00  0.00    +0.000 N 
ATOM      5  C   UNL     1       5.048   5.350  18.872  0.00  0.00    +0.000 C 
ATOM      6  C   UNL     1       3.779   5.471  19.715  0.00  0.00    +0.000 C 
ATOM      7  C   UNL     1       3.053   4.111  19.776  0.00  0.00    +0.000 C 
ATOM      8  C   UNL     1       1.577   4.243  20.090  0.00  0.00    +0.000 C 
ATOM      9  C   UNL     1       0.698   3.312  19.679  0.00  0.00    +0.000 C 
ATOM     10  C   UNL     1       1.123   2.172  18.903  0.00  0.00    +0.000 C 
ATOM     11  C   UNL     1       2.310   2.170  18.280  0.00  0.00    +0.000 C 
ATOM     12  C   UNL     1       3.315   3.281  18.483  0.00  0.00    +0.000 C 
ATOM     13  C   UNL     1       3.460   4.252  17.294  0.00  0.00    +0.000 C 
ATOM     14  H   UNL     1       6.195   4.858  14.705  0.00  0.00    +0.000 HD
ATOM     15  H   UNL     1       4.722   5.565  15.076  0.00  0.00    +0.000 HD
ENDROOT
BRANCH   3  16
ATOM     16  O   UNL     1       7.838   4.572  15.827  0.00  0.00    +0.000 OA
ATOM     17  H   UNL     1       8.665   4.993  16.126  0.00  0.00    +0.000 HD
ENDBRANCH   3  16
TORSDOF 1
ENDMDL
MODEL 9
REMARK VINA RESULT:      -6.7      3.189      5.358
REMARK  Name = 
REMARK  1 active torsions:
REMARK  status: ('A' for Active; 'I' for Inactive)
REMARK    1  A    between atoms: N_3  and  O_4
REMARK                            x       y       z     vdW  Elec       q    Type
REMARK                         _______ _______ _______ _____ _____    ______ ____
ROOT
ATOM      1  N   UNL     1       2.714   1.663  18.895  0.00  0.00    +0.000 N 
ATOM      2  C   UNL     1       2.207   2.850  18.458  0.00  0.00    +0.000 C 
ATOM      3  N   UNL     1       0.951   3.002  18.152  0.00  0.00    +0.000 NA
ATOM      4  N   UNL     1       3.144   3.856  18.419  0.00  0.00    +0.000 N 
ATOM      5  C   UNL     1       2.652   5.237  18.220  0.00  0.00    +0.000 C 
ATOM      6  C   UNL     1       3.820   6.220  18.146  0.00  0.00    +0.000 C 
ATOM      7  C   UNL     1       4.684   5.922  16.903  0.00  0.00    +0.000 C 
ATOM      8  C   UNL     1       6.103   6.436  17.032  0.00  0.00    +0.000 C 
ATOM      9  C   UNL     1       7.113   5.853  16.361  0.00  0.00    +0.000 C 
ATOM     10  C   UNL     1       6.886   4.704  15.519  0.00  0.00    +0.000 C 
ATOM     11  C   UNL     1       5.766   3.976  15.637  0.00  0.00    +0.000 C 
ATOM     12  C   UNL     1       4.631   4.407  16.537  0.00  0.00    +0.000 C 
ATOM     13  C   UNL     1       4.484   3.591  17.836  0.00  0.00    +0.000 C 
ATOM     14  H   UNL     1       1.939   1.032  19.070  0.00  0.00    +0.000 HD
ATOM     15  H   UNL     1       3.286   1.786  19.720  0.00  0.00    +0.000 HD
ENDROOT
BRANCH   3  16
ATOM     16  O   UNL     1       0.245   1.793  18.301  0.00  0.00    +0.000 OA
ATOM     17  H   UNL     1       0.290   1.426  17.399  0.00  0.00    +0.000 HD
ENDBRANCH   3  16
TORSDOF 1
ENDMDL
