MODEL 1
REMARK VINA RESULT:      -6.9      0.000      0.000
REMARK  Name = 
REMARK  11 active torsions:
REMARK  status: ('A' for Active; 'I' for Inactive)
REMARK    1  A    between atoms: C_1  and  C_2
REMARK    2  A    between atoms: C_2  and  O_3
REMARK    3  A    between atoms: O_3  and  C_4
REMARK    4  A    between atoms: C_4  and  C_6
REMARK    5  A    between atoms: C_9  and  N_10
REMARK    6  A    between atoms: N_10  and  C_11
REMARK    7  A    between atoms: C_11  and  C_12
REMARK    8  A    between atoms: C_12  and  C_13
REMARK    9  A    between atoms: C_13  and  C_14
REMARK   10  A    between atoms: C_14  and  C_15
REMARK   11  A    between atoms: C_15  and  C_16
REMARK                            x       y       z     vdW  Elec       q    Type
REMARK                         _______ _______ _______ _____ _____    ______ ____
ROOT
ATOM      1  N   UNL     1       3.447   2.463  19.572  0.00  0.00    +0.000 N 
ATOM      2  H   UNL     1       3.370   2.874  20.500  0.00  0.00    +0.000 HD
ENDROOT
BRANCH   1   6
ATOM      3  C   UNL     1       5.751   4.907  17.009  0.00  0.00    +0.000 A 
ATOM      4  C   UNL     1       4.680   4.155  16.522  0.00  0.00    +0.000 A 
ATOM      5  C   UNL     1       3.946   3.338  17.386  0.00  0.00    +0.000 A 
ATOM      6  C   UNL     1       4.277   3.224  18.743  0.00  0.00    +0.000 A 
ATOM      7  C   UNL     1       5.347   3.993  19.220  0.00  0.00    +0.000 A 
ATOM      8  C   UNL     1       6.084   4.822  18.364  0.00  0.00    +0.000 A 
BRANCH   3   9
ATOM      9  C   UNL     1       6.514   5.737  16.043  0.00  0.00    +0.000 C 
ATOM     10  O   UNL     1       6.319   5.718  14.837  0.00  0.00    +0.000 OA
BRANCH   9  11
ATOM     11  O   UNL     1       7.499   6.417  16.682  0.00  0.00    +0.000 OA
BRANCH  11  13
ATOM     12  C   UNL     1       8.226   8.188  18.107  0.00  0.00    +0.000 C 
ATOM     13  C   UNL     1       7.116   7.700  17.194  0.00  0.00    +0.000 C 
ENDBRANCH  11  13
ENDBRANCH   9  11
ENDBRANCH   3   9
ENDBRANCH   1   6
BRANCH   1  14
ATOM     14  C   UNL     1       2.154   2.017  19.062  0.00  0.00    +0.000 C 
BRANCH  14  15
ATOM     15  C   UNL     1       1.092   2.228  20.144  0.00  0.00    +0.000 C 
BRANCH  15  16
ATOM     16  C   UNL     1       1.470   3.381  21.071  0.00  0.00    +0.000 C 
BRANCH  16  17
ATOM     17  C   UNL     1       1.147   4.736  20.440  0.00  0.00    +0.000 C 
BRANCH  17  18
ATOM     18  C   UNL     1       2.245   5.758  20.742  0.00  0.00    +0.000 C 
BRANCH  18  19
ATOM     19  C   UNL     1       2.236   6.896  19.754  0.00  0.00    +0.000 A 
ATOM     20  C   UNL     1       1.544   8.079  20.038  0.00  0.00    +0.000 A 
ATOM     21  C   UNL     1       1.522   9.127  19.117  0.00  0.00    +0.000 A 
ATOM     22  C   UNL     1       2.186   8.996  17.897  0.00  0.00    +0.000 A 
ATOM     23  C   UNL     1       2.874   7.822  17.603  0.00  0.00    +0.000 A 
ATOM     24  C   UNL     1       2.894   6.773  18.521  0.00  0.00    +0.000 A 
ENDBRANCH  18  19
ENDBRANCH  17  18
ENDBRANCH  16  17
ENDBRANCH  15  16
ENDBRANCH  14  15
ENDBRANCH   1  14
TORSDOF 10
ENDMDL
MODEL 2
REMARK VINA RESULT:      -6.8      1.142      1.788
REMARK  Name = 
REMARK  11 active torsions:
REMARK  status: ('A' for Active; 'I' for Inactive)
REMARK    1  A    between atoms: C_1  and  C_2
REMARK    2  A    between atoms: C_2  and  O_3
REMARK    3  A    between atoms: O_3  and  C_4
REMARK    4  A    between atoms: C_4  and  C_6
REMARK    5  A    between atoms: C_9  and  N_10
REMARK    6  A    between atoms: N_10  and  C_11
REMARK    7  A    between atoms: C_11  and  C_12
REMARK    8  A    between atoms: C_12  and  C_13
REMARK    9  A    between atoms: C_13  and  C_14
REMARK   10  A    between atoms: C_14  and  C_15
REMARK   11  A    between atoms: C_15  and  C_16
REMARK                            x       y       z     vdW  Elec       q    Type
REMARK                         _______ _______ _______ _____ _____    ______ ____
ROOT
ATOM      1  N   UNL     1       2.885   3.091  17.091  0.00  0.00    +0.000 N 
ATOM      2  H   UNL     1       2.938   2.677  16.161  0.00  0.00    +0.000 HD
ENDROOT
BRANCH   1   6
ATOM      3  C   UNL     1       6.367   5.324  17.950  0.00  0.00    +0.000 A 
ATOM      4  C   UNL     1       5.720   4.581  18.941  0.00  0.00    +0.000 A 
ATOM      5  C   UNL     1       4.558   3.868  18.636  0.00  0.00    +0.000 A 
ATOM      6  C   UNL     1       3.994   3.900  17.353  0.00  0.00    +0.000 A 
ATOM      7  C   UNL     1       4.661   4.639  16.366  0.00  0.00    +0.000 A 
ATOM      8  C   UNL     1       5.832   5.351  16.659  0.00  0.00    +0.000 A 
BRANCH   3   9
ATOM      9  C   UNL     1       7.583   6.085  18.335  0.00  0.00    +0.000 C 
ATOM     10  O   UNL     1       8.199   5.891  19.372  0.00  0.00    +0.000 OA
BRANCH   9  11
ATOM     11  O   UNL     1       7.829   7.065  17.430  0.00  0.00    +0.000 OA
BRANCH  11  13
ATOM     12  C   UNL     1       8.382   9.291  18.090  0.00  0.00    +0.000 C 
ATOM     13  C   UNL     1       7.251   8.339  17.745  0.00  0.00    +0.000 C 
ENDBRANCH  11  13
ENDBRANCH   9  11
ENDBRANCH   3   9
ENDBRANCH   1   6
BRANCH   1  14
ATOM     14  C   UNL     1       2.459   2.124  18.097  0.00  0.00    +0.000 C 
BRANCH  14  15
ATOM     15  C   UNL     1       1.132   2.587  18.703  0.00  0.00    +0.000 C 
BRANCH  15  16
ATOM     16  C   UNL     1       1.298   2.965  20.174  0.00  0.00    +0.000 C 
BRANCH  16  17
ATOM     17  C   UNL     1       0.924   4.427  20.421  0.00  0.00    +0.000 C 
BRANCH  17  18
ATOM     18  C   UNL     1       2.175   5.287  20.618  0.00  0.00    +0.000 C 
BRANCH  18  19
ATOM     19  C   UNL     1       2.045   6.625  19.936  0.00  0.00    +0.000 A 
ATOM     20  C   UNL     1       1.445   7.704  20.594  0.00  0.00    +0.000 A 
ATOM     21  C   UNL     1       1.311   8.939  19.958  0.00  0.00    +0.000 A 
ATOM     22  C   UNL     1       1.768   9.101  18.650  0.00  0.00    +0.000 A 
ATOM     23  C   UNL     1       2.362   8.032  17.984  0.00  0.00    +0.000 A 
ATOM     24  C   UNL     1       2.494   6.798  18.618  0.00  0.00    +0.000 A 
ENDBRANCH  18  19
ENDBRANCH  17  18
ENDBRANCH  16  17
ENDBRANCH  15  16
ENDBRANCH  14  15
ENDBRANCH   1  14
TORSDOF 10
ENDMDL
MODEL 3
REMARK VINA RESULT:      -6.7      3.495      5.731
REMARK  Name = 
REMARK  11 active torsions:
REMARK  status: ('A' for Active; 'I' for Inactive)
REMARK    1  A    between atoms: C_1  and  C_2
REMARK    2  A    between atoms: C_2  and  O_3
REMARK    3  A    between atoms: O_3  and  C_4
REMARK    4  A    between atoms: C_4  and  C_6
REMARK    5  A    between atoms: C_9  and  N_10
REMARK    6  A    between atoms: N_10  and  C_11
REMARK    7  A    between atoms: C_11  and  C_12
REMARK    8  A    between atoms: C_12  and  C_13
REMARK    9  A    between atoms: C_13  and  C_14
REMARK   10  A    between atoms: C_14  and  C_15
REMARK   11  A    between atoms: C_15  and  C_16
REMARK                            x       y       z     vdW  Elec       q    Type
REMARK                         _______ _______ _______ _____ _____    ______ ____
ROOT
ATOM      1  N   UNL     1       7.669   5.665  16.031  0.00  0.00    +0.000 N 
ATOM      2  H   UNL     1       7.785   6.661  15.849  0.00  0.00    +0.000 HD
ENDROOT
BRANCH   1   6
ATOM      3  C   UNL     1       5.800   3.610  12.848  0.00  0.00    +0.000 A 
ATOM      4  C   UNL     1       6.950   4.375  12.640  0.00  0.00    +0.000 A 
ATOM      5  C   UNL     1       7.538   5.063  13.705  0.00  0.00    +0.000 A 
ATOM      6  C   UNL     1       6.981   5.033  14.991  0.00  0.00    +0.000 A 
ATOM      7  C   UNL     1       5.834   4.252  15.188  0.00  0.00    +0.000 A 
ATOM      8  C   UNL     1       5.242   3.552  14.128  0.00  0.00    +0.000 A 
BRANCH   3   9
ATOM      9  C   UNL     1       5.201   2.922  11.676  0.00  0.00    +0.000 C 
ATOM     10  O   UNL     1       5.433   1.758  11.388  0.00  0.00    +0.000 OA
BRANCH   9  11
ATOM     11  O   UNL     1       4.465   3.795  10.945  0.00  0.00    +0.000 OA
BRANCH  11  13
ATOM     12  C   UNL     1       2.698   4.260   9.409  0.00  0.00    +0.000 C 
ATOM     13  C   UNL     1       3.243   3.262  10.414  0.00  0.00    +0.000 C 
ENDBRANCH  11  13
ENDBRANCH   9  11
ENDBRANCH   3   9
ENDBRANCH   1   6
BRANCH   1  14
ATOM     14  C   UNL     1       7.267   5.404  17.409  0.00  0.00    +0.000 C 
BRANCH  14  15
ATOM     15  C   UNL     1       6.297   6.499  17.861  0.00  0.00    +0.000 C 
BRANCH  15  16
ATOM     16  C   UNL     1       4.969   5.904  18.324  0.00  0.00    +0.000 C 
BRANCH  16  17
ATOM     17  C   UNL     1       3.785   6.553  17.608  0.00  0.00    +0.000 C 
BRANCH  17  18
ATOM     18  C   UNL     1       2.585   6.693  18.547  0.00  0.00    +0.000 C 
BRANCH  18  19
ATOM     19  C   UNL     1       2.049   5.350  18.972  0.00  0.00    +0.000 A 
ATOM     20  C   UNL     1       1.713   4.383  18.018  0.00  0.00    +0.000 A 
ATOM     21  C   UNL     1       1.202   3.145  18.410  0.00  0.00    +0.000 A 
ATOM     22  C   UNL     1       1.014   2.868  19.764  0.00  0.00    +0.000 A 
ATOM     23  C   UNL     1       1.341   3.824  20.722  0.00  0.00    +0.000 A 
ATOM     24  C   UNL     1       1.848   5.062  20.331  0.00  0.00    +0.000 A 
ENDBRANCH  18  19
ENDBRANCH  17  18
ENDBRANCH  16  17
ENDBRANCH  15  16
ENDBRANCH  14  15
ENDBRANCH   1  14
TORSDOF 10
ENDMDL
MODEL 4
REMARK VINA RESULT:      -6.6      1.096      2.086
REMARK  Name = 
REMARK  11 active torsions:
REMARK  status: ('A' for Active; 'I' for Inactive)
REMARK    1  A    between atoms: C_1  and  C_2
REMARK    2  A    between atoms: C_2  and  O_3
REMARK    3  A    between atoms: O_3  and  C_4
REMARK    4  A    between atoms: C_4  and  C_6
REMARK    5  A    between atoms: C_9  and  N_10
REMARK    6  A    between atoms: N_10  and  C_11
REMARK    7  A    between atoms: C_11  and  C_12
REMARK    8  A    between atoms: C_12  and  C_13
REMARK    9  A    between atoms: C_13  and  C_14
REMARK   10  A    between atoms: C_14  and  C_15
REMARK   11  A    between atoms: C_15  and  C_16
REMARK                            x       y       z     vdW  Elec       q    Type
REMARK                         _______ _______ _______ _____ _____    ______ ____
ROOT
ATOM      1  N   UNL     1       3.335   2.598  19.487  0.00  0.00    +0.000 N 
ATOM      2  H   UNL     1       3.405   2.961  20.436  0.00  0.00    +0.000 HD
ENDROOT
BRANCH   1   6
ATOM      3  C   UNL     1       5.783   4.774  16.818  0.00  0.00    +0.000 A 
ATOM      4  C   UNL     1       6.100   4.676  18.175  0.00  0.00    +0.000 A 
ATOM      5  C   UNL     1       5.263   3.967  19.042  0.00  0.00    +0.000 A 
ATOM      6  C   UNL     1       4.079   3.369  18.589  0.00  0.00    +0.000 A 
ATOM      7  C   UNL     1       3.779   3.466  17.223  0.00  0.00    +0.000 A 
ATOM      8  C   UNL     1       4.616   4.166  16.344  0.00  0.00    +0.000 A 
BRANCH   3   9
ATOM      9  C   UNL     1       6.692   5.560  15.946  0.00  0.00    +0.000 C 
ATOM     10  O   UNL     1       7.624   6.225  16.371  0.00  0.00    +0.000 OA
BRANCH   9  11
ATOM     11  O   UNL     1       6.270   5.508  14.659  0.00  0.00    +0.000 OA
BRANCH  11  13
ATOM     12  C   UNL     1       7.969   5.442  12.983  0.00  0.00    +0.000 C 
ATOM     13  C   UNL     1       7.007   4.613  13.815  0.00  0.00    +0.000 C 
ENDBRANCH  11  13
ENDBRANCH   9  11
ENDBRANCH   3   9
ENDBRANCH   1   6
BRANCH   1  14
ATOM     14  C   UNL     1       1.966   2.230  19.141  0.00  0.00    +0.000 C 
BRANCH  14  15
ATOM     15  C   UNL     1       0.998   3.136  19.907  0.00  0.00    +0.000 C 
BRANCH  15  16
ATOM     16  C   UNL     1       1.727   3.938  20.983  0.00  0.00    +0.000 C 
BRANCH  16  17
ATOM     17  C   UNL     1       1.460   5.437  20.841  0.00  0.00    +0.000 C 
BRANCH  17  18
ATOM     18  C   UNL     1       2.540   6.107  19.988  0.00  0.00    +0.000 C 
BRANCH  18  19
ATOM     19  C   UNL     1       2.104   7.466  19.504  0.00  0.00    +0.000 A 
ATOM     20  C   UNL     1       1.324   8.296  20.317  0.00  0.00    +0.000 A 
ATOM     21  C   UNL     1       0.907   9.548  19.864  0.00  0.00    +0.000 A 
ATOM     22  C   UNL     1       1.261   9.978  18.585  0.00  0.00    +0.000 A 
ATOM     23  C   UNL     1       2.034   9.160  17.766  0.00  0.00    +0.000 A 
ATOM     24  C   UNL     1       2.448   7.907  18.216  0.00  0.00    +0.000 A 
ENDBRANCH  18  19
ENDBRANCH  17  18
ENDBRANCH  16  17
ENDBRANCH  15  16
ENDBRANCH  14  15
ENDBRANCH   1  14
TORSDOF 10
ENDMDL
MODEL 5
REMARK VINA RESULT:      -6.6      2.146      4.588
REMARK  Name = 
REMARK  11 active torsions:
REMARK  status: ('A' for Active; 'I' for Inactive)
REMARK    1  A    between atoms: C_1  and  C_2
REMARK    2  A    between atoms: C_2  and  O_3
REMARK    3  A    between atoms: O_3  and  C_4
REMARK    4  A    between atoms: C_4  and  C_6
REMARK    5  A    between atoms: C_9  and  N_10
REMARK    6  A    between atoms: N_10  and  C_11
REMARK    7  A    between atoms: C_11  and  C_12
REMARK    8  A    between atoms: C_12  and  C_13
REMARK    9  A    between atoms: C_13  and  C_14
REMARK   10  A    between atoms: C_14  and  C_15
REMARK   11  A    between atoms: C_15  and  C_16
REMARK                            x       y       z     vdW  Elec       q    Type
REMARK                         _______ _______ _______ _____ _____    ______ ____
ROOT
ATOM      1  N   UNL     1       3.783   6.413  18.572  0.00  0.00    +0.000 N 
ATOM      2  H   UNL     1       4.346   7.108  19.061  0.00  0.00    +0.000 HD
ENDROOT
BRANCH   1   6
ATOM      3  C   UNL     1       5.999   5.050  15.243  0.00  0.00    +0.000 A 
ATOM      4  C   UNL     1       5.441   6.331  15.267  0.00  0.00    +0.000 A 
ATOM      5  C   UNL     1       4.695   6.751  16.371  0.00  0.00    +0.000 A 
ATOM      6  C   UNL     1       4.458   5.901  17.460  0.00  0.00    +0.000 A 
ATOM      7  C   UNL     1       5.034   4.623  17.428  0.00  0.00    +0.000 A 
ATOM      8  C   UNL     1       5.791   4.195  16.330  0.00  0.00    +0.000 A 
BRANCH   3   9
ATOM      9  C   UNL     1       6.760   4.645  14.034  0.00  0.00    +0.000 C 
ATOM     10  O   UNL     1       7.594   5.356  13.493  0.00  0.00    +0.000 OA
BRANCH   9  11
ATOM     11  O   UNL     1       6.320   3.445  13.582  0.00  0.00    +0.000 OA
BRANCH  11  13
ATOM     12  C   UNL     1       4.726   3.317  11.810  0.00  0.00    +0.000 C 
ATOM     13  C   UNL     1       6.203   3.339  12.157  0.00  0.00    +0.000 C 
ENDBRANCH  11  13
ENDBRANCH   9  11
ENDBRANCH   3   9
ENDBRANCH   1   6
BRANCH   1  14
ATOM     14  C   UNL     1       2.395   6.839  18.424  0.00  0.00    +0.000 C 
BRANCH  14  15
ATOM     15  C   UNL     1       1.993   7.660  19.651  0.00  0.00    +0.000 C 
BRANCH  15  16
ATOM     16  C   UNL     1       1.796   6.767  20.875  0.00  0.00    +0.000 C 
BRANCH  16  17
ATOM     17  C   UNL     1       1.179   5.422  20.491  0.00  0.00    +0.000 C 
BRANCH  17  18
ATOM     18  C   UNL     1       1.966   4.262  21.107  0.00  0.00    +0.000 C 
BRANCH  18  19
ATOM     19  C   UNL     1       2.488   3.320  20.053  0.00  0.00    +0.000 A 
ATOM     20  C   UNL     1       1.803   3.154  18.844  0.00  0.00    +0.000 A 
ATOM     21  C   UNL     1       2.278   2.270  17.874  0.00  0.00    +0.000 A 
ATOM     22  C   UNL     1       3.440   1.535  18.111  0.00  0.00    +0.000 A 
ATOM     23  C   UNL     1       4.127   1.690  19.311  0.00  0.00    +0.000 A 
ATOM     24  C   UNL     1       3.652   2.570  20.283  0.00  0.00    +0.000 A 
ENDBRANCH  18  19
ENDBRANCH  17  18
ENDBRANCH  16  17
ENDBRANCH  15  16
ENDBRANCH  14  15
ENDBRANCH   1  14
TORSDOF 10
ENDMDL
MODEL 6
REMARK VINA RESULT:      -6.5      3.540      7.494
REMARK  Name = 
REMARK  11 active torsions:
REMARK  status: ('A' for Active; 'I' for Inactive)
REMARK    1  A    between atoms: C_1  and  C_2
REMARK    2  A    between atoms: C_2  and  O_3
REMARK    3  A    between atoms: O_3  and  C_4
REMARK    4  A    between atoms: C_4  and  C_6
REMARK    5  A    between atoms: C_9  and  N_10
REMARK    6  A    between atoms: N_10  and  C_11
REMARK    7  A    between atoms: C_11  and  C_12
REMARK    8  A    between atoms: C_12  and  C_13
REMARK    9  A    between atoms: C_13  and  C_14
REMARK   10  A    between atoms: C_14  and  C_15
REMARK   11  A    between atoms: C_15  and  C_16
REMARK                            x       y       z     vdW  Elec       q    Type
REMARK                         _______ _______ _______ _____ _____    ______ ____
ROOT
ATOM      1  N   UNL     1       7.508   5.121  18.233  0.00  0.00    +0.000 N 
ATOM      2  H   UNL     1       8.090   4.838  17.446  0.00  0.00    +0.000 HD
ENDROOT
BRANCH   1   6
ATOM      3  C   UNL     1       3.433   4.140  17.706  0.00  0.00    +0.000 A 
ATOM      4  C   UNL     1       3.870   4.837  18.835  0.00  0.00    +0.000 A 
ATOM      5  C   UNL     1       5.226   5.131  18.996  0.00  0.00    +0.000 A 
ATOM      6  C   UNL     1       6.182   4.714  18.060  0.00  0.00    +0.000 A 
ATOM      7  C   UNL     1       5.728   4.026  16.926  0.00  0.00    +0.000 A 
ATOM      8  C   UNL     1       4.369   3.733  16.750  0.00  0.00    +0.000 A 
BRANCH   3   9
ATOM      9  C   UNL     1       1.984   3.830  17.597  0.00  0.00    +0.000 C 
ATOM     10  O   UNL     1       1.125   4.679  17.418  0.00  0.00    +0.000 OA
BRANCH   9  11
ATOM     11  O   UNL     1       1.768   2.511  17.826  0.00  0.00    +0.000 OA
BRANCH  11  13
ATOM     12  C   UNL     1       1.103   2.704  20.110  0.00  0.00    +0.000 C 
ATOM     13  C   UNL     1       2.089   2.064  19.150  0.00  0.00    +0.000 C 
ENDBRANCH  11  13
ENDBRANCH   9  11
ENDBRANCH   3   9
ENDBRANCH   1   6
BRANCH   1  14
ATOM     14  C   UNL     1       7.780   6.493  18.650  0.00  0.00    +0.000 C 
BRANCH  14  15
ATOM     15  C   UNL     1       7.611   7.422  17.445  0.00  0.00    +0.000 C 
BRANCH  15  16
ATOM     16  C   UNL     1       7.814   8.883  17.841  0.00  0.00    +0.000 C 
BRANCH  16  17
ATOM     17  C   UNL     1       9.100   9.071  18.647  0.00  0.00    +0.000 C 
BRANCH  17  18
ATOM     18  C   UNL     1       9.052  10.365  19.462  0.00  0.00    +0.000 C 
BRANCH  18  19
ATOM     19  C   UNL     1      10.199  11.281  19.123  0.00  0.00    +0.000 A 
ATOM     20  C   UNL     1      10.979  11.852  20.136  0.00  0.00    +0.000 A 
ATOM     21  C   UNL     1      12.032  12.713  19.823  0.00  0.00    +0.000 A 
ATOM     22  C   UNL     1      12.307  13.019  18.490  0.00  0.00    +0.000 A 
ATOM     23  C   UNL     1      11.536  12.460  17.475  0.00  0.00    +0.000 A 
ATOM     24  C   UNL     1      10.482  11.603  17.786  0.00  0.00    +0.000 A 
ENDBRANCH  18  19
ENDBRANCH  17  18
ENDBRANCH  16  17
ENDBRANCH  15  16
ENDBRANCH  14  15
ENDBRANCH   1  14
TORSDOF 10
ENDMDL
MODEL 7
REMARK VINA RESULT:      -6.2      3.450      6.634
REMARK  Name = 
REMARK  11 active torsions:
REMARK  status: ('A' for Active; 'I' for Inactive)
REMARK    1  A    between atoms: C_1  and  C_2
REMARK    2  A    between atoms: C_2  and  O_3
REMARK    3  A    between atoms: O_3  and  C_4
REMARK    4  A    between atoms: C_4  and  C_6
REMARK    5  A    between atoms: C_9  and  N_10
REMARK    6  A    between atoms: N_10  and  C_11
REMARK    7  A    between atoms: C_11  and  C_12
REMARK    8  A    between atoms: C_12  and  C_13
REMARK    9  A    between atoms: C_13  and  C_14
REMARK   10  A    between atoms: C_14  and  C_15
REMARK   11  A    between atoms: C_15  and  C_16
REMARK                            x       y       z     vdW  Elec       q    Type
REMARK                         _______ _______ _______ _____ _____    ______ ____
ROOT
ATOM      1  N   UNL     1       3.201   6.317  19.504  0.00  0.00    +0.000 N 
ATOM      2  H   UNL     1       3.782   6.414  20.336  0.00  0.00    +0.000 HD
ENDROOT
BRANCH   1   6
ATOM      3  C   UNL     1       0.791   9.773  19.187  0.00  0.00    +0.000 A 
ATOM      4  C   UNL     1       0.894   9.069  20.389  0.00  0.00    +0.000 A 
ATOM      5  C   UNL     1       1.681   7.917  20.463  0.00  0.00    +0.000 A 
ATOM      6  C   UNL     1       2.357   7.420  19.341  0.00  0.00    +0.000 A 
ATOM      7  C   UNL     1       2.254   8.142  18.144  0.00  0.00    +0.000 A 
ATOM      8  C   UNL     1       1.474   9.303  18.061  0.00  0.00    +0.000 A 
BRANCH   3   9
ATOM      9  C   UNL     1      -0.080  10.975  19.156  0.00  0.00    +0.000 C 
ATOM     10  O   UNL     1      -0.155  11.776  20.075  0.00  0.00    +0.000 OA
BRANCH   9  11
ATOM     11  O   UNL     1      -0.832  10.982  18.028  0.00  0.00    +0.000 OA
BRANCH  11  13
ATOM     12  C   UNL     1      -3.188  11.317  18.217  0.00  0.00    +0.000 C 
ATOM     13  C   UNL     1      -2.081  10.283  18.126  0.00  0.00    +0.000 C 
ENDBRANCH  11  13
ENDBRANCH   9  11
ENDBRANCH   3   9
ENDBRANCH   1   6
BRANCH   1  14
ATOM     14  C   UNL     1       2.645   4.974  19.378  0.00  0.00    +0.000 C 
BRANCH  14  15
ATOM     15  C   UNL     1       2.126   4.782  17.951  0.00  0.00    +0.000 C 
BRANCH  15  16
ATOM     16  C   UNL     1       2.530   3.417  17.396  0.00  0.00    +0.000 C 
BRANCH  16  17
ATOM     17  C   UNL     1       4.045   3.219  17.448  0.00  0.00    +0.000 C 
BRANCH  17  18
ATOM     18  C   UNL     1       4.747   4.067  16.385  0.00  0.00    +0.000 C 
BRANCH  18  19
ATOM     19  C   UNL     1       5.728   5.032  16.999  0.00  0.00    +0.000 A 
ATOM     20  C   UNL     1       5.638   6.403  16.736  0.00  0.00    +0.000 A 
ATOM     21  C   UNL     1       6.556   7.296  17.292  0.00  0.00    +0.000 A 
ATOM     22  C   UNL     1       7.581   6.820  18.109  0.00  0.00    +0.000 A 
ATOM     23  C   UNL     1       7.683   5.457  18.373  0.00  0.00    +0.000 A 
ATOM     24  C   UNL     1       6.769   4.565  17.816  0.00  0.00    +0.000 A 
ENDBRANCH  18  19
ENDBRANCH  17  18
ENDBRANCH  16  17
ENDBRANCH  15  16
ENDBRANCH  14  15
ENDBRANCH   1  14
TORSDOF 10
ENDMDL
MODEL 8
REMARK VINA RESULT:      -6.2      4.421      8.203
REMARK  Name = 
REMARK  11 active torsions:
REMARK  status: ('A' for Active; 'I' for Inactive)
REMARK    1  A    between atoms: C_1  and  C_2
REMARK    2  A    between atoms: C_2  and  O_3
REMARK    3  A    between atoms: O_3  and  C_4
REMARK    4  A    between atoms: C_4  and  C_6
REMARK    5  A    between atoms: C_9  and  N_10
REMARK    6  A    between atoms: N_10  and  C_11
REMARK    7  A    between atoms: C_11  and  C_12
REMARK    8  A    between atoms: C_12  and  C_13
REMARK    9  A    between atoms: C_13  and  C_14
REMARK   10  A    between atoms: C_14  and  C_15
REMARK   11  A    between atoms: C_15  and  C_16
REMARK                            x       y       z     vdW  Elec       q    Type
REMARK                         _______ _______ _______ _____ _____    ______ ____
ROOT
ATOM      1  N   UNL     1       7.476   7.900  17.177  0.00  0.00    +0.000 N 
ATOM      2  H   UNL     1       7.018   8.709  16.761  0.00  0.00    +0.000 HD
ENDROOT
BRANCH   1   6
ATOM      3  C   UNL     1       4.761   4.766  17.989  0.00  0.00    +0.000 A 
ATOM      4  C   UNL     1       6.036   4.785  18.558  0.00  0.00    +0.000 A 
ATOM      5  C   UNL     1       6.924   5.822  18.258  0.00  0.00    +0.000 A 
ATOM      6  C   UNL     1       6.579   6.844  17.363  0.00  0.00    +0.000 A 
ATOM      7  C   UNL     1       5.292   6.819  16.808  0.00  0.00    +0.000 A 
ATOM      8  C   UNL     1       4.391   5.789  17.109  0.00  0.00    +0.000 A 
BRANCH   3   9
ATOM      9  C   UNL     1       3.868   3.628  18.321  0.00  0.00    +0.000 C 
ATOM     10  O   UNL     1       3.753   2.635  17.619  0.00  0.00    +0.000 OA
BRANCH   9  11
ATOM     11  O   UNL     1       3.147   3.906  19.435  0.00  0.00    +0.000 OA
BRANCH  11  13
ATOM     12  C   UNL     1       0.922   3.154  19.863  0.00  0.00    +0.000 C 
ATOM     13  C   UNL     1       1.768   4.226  19.202  0.00  0.00    +0.000 C 
ENDBRANCH  11  13
ENDBRANCH   9  11
ENDBRANCH   3   9
ENDBRANCH   1   6
BRANCH   1  14
ATOM     14  C   UNL     1       8.363   8.277  18.274  0.00  0.00    +0.000 C 
BRANCH  14  15
ATOM     15  C   UNL     1       8.608   9.786  18.220  0.00  0.00    +0.000 C 
BRANCH  15  16
ATOM     16  C   UNL     1       9.308  10.278  19.486  0.00  0.00    +0.000 C 
BRANCH  16  17
ATOM     17  C   UNL     1      10.455  11.233  19.156  0.00  0.00    +0.000 C 
BRANCH  17  18
ATOM     18  C   UNL     1      10.380  11.697  17.699  0.00  0.00    +0.000 C 
BRANCH  18  19
ATOM     19  C   UNL     1      10.296  13.198  17.594  0.00  0.00    +0.000 A 
ATOM     20  C   UNL     1      11.357  13.935  17.056  0.00  0.00    +0.000 A 
ATOM     21  C   UNL     1      11.286  15.326  16.973  0.00  0.00    +0.000 A 
ATOM     22  C   UNL     1      10.153  15.994  17.438  0.00  0.00    +0.000 A 
ATOM     23  C   UNL     1       9.094  15.271  17.979  0.00  0.00    +0.000 A 
ATOM     24  C   UNL     1       9.165  13.881  18.065  0.00  0.00    +0.000 A 
ENDBRANCH  18  19
ENDBRANCH  17  18
ENDBRANCH  16  17
ENDBRANCH  15  16
ENDBRANCH  14  15
ENDBRANCH   1  14
TORSDOF 10
ENDMDL
MODEL 9
REMARK VINA RESULT:      -6.2      3.432      6.492
REMARK  Name = 
REMARK  11 active torsions:
REMARK  status: ('A' for Active; 'I' for Inactive)
REMARK    1  A    between atoms: C_1  and  C_2
REMARK    2  A    between atoms: C_2  and  O_3
REMARK    3  A    between atoms: O_3  and  C_4
REMARK    4  A    between atoms: C_4  and  C_6
REMARK    5  A    between atoms: C_9  and  N_10
REMARK    6  A    between atoms: N_10  and  C_11
REMARK    7  A    between atoms: C_11  and  C_12
REMARK    8  A    between atoms: C_12  and  C_13
REMARK    9  A    between atoms: C_13  and  C_14
REMARK   10  A    between atoms: C_14  and  C_15
REMARK   11  A    between atoms: C_15  and  C_16
REMARK                            x       y       z     vdW  Elec       q    Type
REMARK                         _______ _______ _______ _____ _____    ______ ____
ROOT
ATOM      1  N   UNL     1       2.756   6.295  19.967  0.00  0.00    +0.000 N 
ATOM      2  H   UNL     1       3.535   6.340  20.622  0.00  0.00    +0.000 HD
ENDROOT
BRANCH   1   6
ATOM      3  C   UNL     1       0.694   9.939  19.401  0.00  0.00    +0.000 A 
ATOM      4  C   UNL     1       1.418   9.348  18.363  0.00  0.00    +0.000 A 
ATOM      5  C   UNL     1       2.109   8.153  18.581  0.00  0.00    +0.000 A 
ATOM      6  C   UNL     1       2.124   7.536  19.839  0.00  0.00    +0.000 A 
ATOM      7  C   UNL     1       1.383   8.134  20.868  0.00  0.00    +0.000 A 
ATOM      8  C   UNL     1       0.681   9.327  20.658  0.00  0.00    +0.000 A 
BRANCH   3   9
ATOM      9  C   UNL     1       0.001  11.222  19.122  0.00  0.00    +0.000 C 
ATOM     10  O   UNL     1       0.095  12.208  19.837  0.00  0.00    +0.000 OA
BRANCH   9  11
ATOM     11  O   UNL     1      -0.809  11.093  18.042  0.00  0.00    +0.000 OA
BRANCH  11  13
ATOM     12  C   UNL     1      -2.660   9.775  17.312  0.00  0.00    +0.000 C 
ATOM     13  C   UNL     1      -2.176  10.779  18.342  0.00  0.00    +0.000 C 
ENDBRANCH  11  13
ENDBRANCH   9  11
ENDBRANCH   3   9
ENDBRANCH   1   6
BRANCH   1  14
ATOM     14  C   UNL     1       1.941   5.102  20.167  0.00  0.00    +0.000 C 
BRANCH  14  15
ATOM     15  C   UNL     1       1.973   4.257  18.891  0.00  0.00    +0.000 C 
BRANCH  15  16
ATOM     16  C   UNL     1       3.076   3.202  18.955  0.00  0.00    +0.000 C 
BRANCH  16  17
ATOM     17  C   UNL     1       3.922   3.199  17.682  0.00  0.00    +0.000 C 
BRANCH  17  18
ATOM     18  C   UNL     1       3.971   4.594  17.054  0.00  0.00    +0.000 C 
BRANCH  18  19
ATOM     19  C   UNL     1       5.245   5.319  17.401  0.00  0.00    +0.000 A 
ATOM     20  C   UNL     1       5.411   6.668  17.068  0.00  0.00    +0.000 A 
ATOM     21  C   UNL     1       6.597   7.336  17.376  0.00  0.00    +0.000 A 
ATOM     22  C   UNL     1       7.634   6.654  18.012  0.00  0.00    +0.000 A 
ATOM     23  C   UNL     1       7.482   5.311  18.344  0.00  0.00    +0.000 A 
ATOM     24  C   UNL     1       6.299   4.642  18.035  0.00  0.00    +0.000 A 
ENDBRANCH  18  19
ENDBRANCH  17  18
ENDBRANCH  16  17
ENDBRANCH  15  16
ENDBRANCH  14  15
ENDBRANCH   1  14
TORSDOF 10
ENDMDL
