MODEL 1
REMARK VINA RESULT:      -8.4      0.000      0.000
REMARK  Name = 
REMARK  6 active torsions:
REMARK  status: ('A' for Active; 'I' for Inactive)
REMARK    1  A    between atoms: C_1  and  C_2
REMARK    2  A    between atoms: N_4  and  C_5
REMARK    3  A    between atoms: C_5  and  C_6
REMARK    4  A    between atoms: N_8  and  C_9
REMARK    5  A    between atoms: C_13  and  N_14
REMARK    6  A    between atoms: C_19  and  C_20
REMARK                            x       y       z     vdW  Elec       q    Type
REMARK                         _______ _______ _______ _____ _____    ______ ____
ROOT
ATOM      1  C   UNL     1       2.898   7.047  18.677  0.00  0.00    +0.000 A 
ATOM      2  C   UNL     1       2.214   7.104  19.887  0.00  0.00    +0.000 A 
ATOM      3  C   UNL     1       1.455   8.225  20.236  0.00  0.00    +0.000 A 
ATOM      4  F   UNL     1       0.883   8.186  21.449  0.00  0.00    +0.000 F 
ATOM      5  C   UNL     1       1.290   9.338  19.393  0.00  0.00    +0.000 A 
ATOM      6  C   UNL     1       1.996   9.248  18.178  0.00  0.00    +0.000 A 
ATOM      7  F   UNL     1       1.945  10.246  17.279  0.00  0.00    +0.000 F 
ATOM      8  C   UNL     1       2.788   8.145  17.825  0.00  0.00    +0.000 A 
ENDROOT
BRANCH   1  11
ATOM      9  C   UNL     1       5.477   4.478  18.270  0.00  0.00    +0.000 C 
ATOM     10  C   UNL     1       5.129   5.952  18.329  0.00  0.00    +0.000 C 
ATOM     11  N   UNL     1       3.699   5.932  18.343  0.00  0.00    +0.000 N 
ATOM     12  C   UNL     1       3.244   4.696  17.906  0.00  0.00    +0.000 C 
ATOM     13  O   UNL     1       2.101   4.352  17.655  0.00  0.00    +0.000 OA
ATOM     14  O   UNL     1       4.306   3.855  17.720  0.00  0.00    +0.000 OA
BRANCH   9  15
ATOM     15  C   UNL     1       6.668   4.188  17.364  0.00  0.00    +0.000 C 
BRANCH  15  19
ATOM     16  C   UNL     1       6.196   3.830  13.626  0.00  0.00    +0.000 C 
ATOM     17  C   UNL     1       6.724   4.414  14.910  0.00  0.00    +0.000 C 
ATOM     18  O   UNL     1       7.493   5.365  14.944  0.00  0.00    +0.000 OA
ATOM     19  N   UNL     1       6.243   3.785  16.033  0.00  0.00    +0.000 N 
ATOM     20  H   UNL     1       5.836   2.862  15.931  0.00  0.00    +0.000 HD
ENDBRANCH  15  19
ENDBRANCH   9  15
ENDBRANCH   1  11
BRANCH   5  21
ATOM     21  N   UNL     1       0.494  10.418  19.727  0.00  0.00    +0.000 N 
ATOM     22  C   UNL     1       0.997  11.635  20.383  0.00  0.00    +0.000 C 
ATOM     23  C   UNL     1      -0.225  12.233  21.005  0.00  0.00    +0.000 C 
ATOM     24  C   UNL     1      -1.419  11.510  20.502  0.00  0.00    +0.000 C 
ATOM     25  C   UNL     1      -0.966  10.452  19.543  0.00  0.00    +0.000 C 
ATOM     26  C   UNL     1      -1.043  11.396  21.964  0.00  0.00    +0.000 C 
BRANCH  26  27
ATOM     27  C   UNL     1      -1.839  12.046  23.025  0.00  0.00    +0.000 C 
ATOM     28  N   UNL     1      -1.351  13.246  23.435  0.00  0.00    +0.000 N 
ATOM     29  O   UNL     1      -2.858  11.549  23.481  0.00  0.00    +0.000 OA
ATOM     30  H   UNL     1      -1.861  13.741  24.154  0.00  0.00    +0.000 HD
ATOM     31  H   UNL     1      -0.533  13.677  23.032  0.00  0.00    +0.000 HD
ENDBRANCH  26  27
ENDBRANCH   5  21
TORSDOF 5
ENDMDL
MODEL 2
REMARK VINA RESULT:      -8.4      0.659      1.691
REMARK  Name = 
REMARK  6 active torsions:
REMARK  status: ('A' for Active; 'I' for Inactive)
REMARK    1  A    between atoms: C_1  and  C_2
REMARK    2  A    between atoms: N_4  and  C_5
REMARK    3  A    between atoms: C_5  and  C_6
REMARK    4  A    between atoms: N_8  and  C_9
REMARK    5  A    between atoms: C_13  and  N_14
REMARK    6  A    between atoms: C_19  and  C_20
REMARK                            x       y       z     vdW  Elec       q    Type
REMARK                         _______ _______ _______ _____ _____    ______ ____
ROOT
ATOM      1  C   UNL     1       2.742   7.117  18.812  0.00  0.00    +0.000 A 
ATOM      2  C   UNL     1       2.590   8.175  17.921  0.00  0.00    +0.000 A 
ATOM      3  C   UNL     1       1.811   9.289  18.249  0.00  0.00    +0.000 A 
ATOM      4  F   UNL     1       1.697  10.221  17.291  0.00  0.00    +0.000 F 
ATOM      5  C   UNL     1       1.173   9.445  19.492  0.00  0.00    +0.000 A 
ATOM      6  C   UNL     1       1.347   8.357  20.368  0.00  0.00    +0.000 A 
ATOM      7  F   UNL     1       0.780   8.360  21.587  0.00  0.00    +0.000 F 
ATOM      8  C   UNL     1       2.098   7.217  20.043  0.00  0.00    +0.000 A 
ENDROOT
BRANCH   1  11
ATOM      9  C   UNL     1       5.183   4.415  18.416  0.00  0.00    +0.000 C 
ATOM     10  C   UNL     1       4.921   5.902  18.539  0.00  0.00    +0.000 C 
ATOM     11  N   UNL     1       3.495   5.973  18.464  0.00  0.00    +0.000 N 
ATOM     12  C   UNL     1       2.996   4.794  17.928  0.00  0.00    +0.000 C 
ATOM     13  O   UNL     1       1.853   4.538  17.588  0.00  0.00    +0.000 OA
ATOM     14  O   UNL     1       4.015   3.899  17.760  0.00  0.00    +0.000 OA
BRANCH   9  15
ATOM     15  C   UNL     1       6.411   4.098  17.569  0.00  0.00    +0.000 C 
BRANCH  15  19
ATOM     16  C   UNL     1       6.140   3.942  13.797  0.00  0.00    +0.000 C 
ATOM     17  C   UNL     1       6.614   4.442  15.137  0.00  0.00    +0.000 C 
ATOM     18  O   UNL     1       7.414   5.361  15.262  0.00  0.00    +0.000 OA
ATOM     19  N   UNL     1       6.048   3.777  16.198  0.00  0.00    +0.000 N 
ATOM     20  H   UNL     1       5.615   2.877  16.028  0.00  0.00    +0.000 HD
ENDBRANCH  15  19
ENDBRANCH   9  15
ENDBRANCH   1  11
BRANCH   5  21
ATOM     21  N   UNL     1       0.450  10.576  19.824  0.00  0.00    +0.000 N 
ATOM     22  C   UNL     1       1.033  11.759  20.477  0.00  0.00    +0.000 C 
ATOM     23  C   UNL     1      -0.147  12.438  21.097  0.00  0.00    +0.000 C 
ATOM     24  C   UNL     1      -1.386  11.794  20.597  0.00  0.00    +0.000 C 
ATOM     25  C   UNL     1      -1.005  10.706  19.641  0.00  0.00    +0.000 C 
ATOM     26  C   UNL     1      -1.018  11.659  22.060  0.00  0.00    +0.000 C 
BRANCH  26  27
ATOM     27  C   UNL     1      -1.768  12.363  23.119  0.00  0.00    +0.000 C 
ATOM     28  N   UNL     1      -2.909  11.736  23.508  0.00  0.00    +0.000 N 
ATOM     29  O   UNL     1      -1.383  13.413  23.611  0.00  0.00    +0.000 OA
ATOM     30  H   UNL     1      -3.459  12.169  24.237  0.00  0.00    +0.000 HD
ATOM     31  H   UNL     1      -3.208  10.849  23.132  0.00  0.00    +0.000 HD
ENDBRANCH  26  27
ENDBRANCH   5  21
TORSDOF 5
ENDMDL
MODEL 3
REMARK VINA RESULT:      -8.2      1.680      2.549
REMARK  Name = 
REMARK  6 active torsions:
REMARK  status: ('A' for Active; 'I' for Inactive)
REMARK    1  A    between atoms: C_1  and  C_2
REMARK    2  A    between atoms: N_4  and  C_5
REMARK    3  A    between atoms: C_5  and  C_6
REMARK    4  A    between atoms: N_8  and  C_9
REMARK    5  A    between atoms: C_13  and  N_14
REMARK    6  A    between atoms: C_19  and  C_20
REMARK                            x       y       z     vdW  Elec       q    Type
REMARK                         _______ _______ _______ _____ _____    ______ ____
ROOT
ATOM      1  C   UNL     1       2.966   6.892  18.681  0.00  0.00    +0.000 A 
ATOM      2  C   UNL     1       2.724   7.997  17.871  0.00  0.00    +0.000 A 
ATOM      3  C   UNL     1       1.881   9.030  18.292  0.00  0.00    +0.000 A 
ATOM      4  F   UNL     1       1.684  10.018  17.405  0.00  0.00    +0.000 F 
ATOM      5  C   UNL     1       1.263   9.056  19.554  0.00  0.00    +0.000 A 
ATOM      6  C   UNL     1       1.529   7.923  20.347  0.00  0.00    +0.000 A 
ATOM      7  F   UNL     1       0.992   7.803  21.573  0.00  0.00    +0.000 F 
ATOM      8  C   UNL     1       2.345   6.862  19.928  0.00  0.00    +0.000 A 
ENDROOT
BRANCH   1  11
ATOM      9  C   UNL     1       5.598   4.439  17.994  0.00  0.00    +0.000 C 
ATOM     10  C   UNL     1       5.211   5.893  18.171  0.00  0.00    +0.000 C 
ATOM     11  N   UNL     1       3.784   5.828  18.238  0.00  0.00    +0.000 N 
ATOM     12  C   UNL     1       3.347   4.613  17.731  0.00  0.00    +0.000 C 
ATOM     13  O   UNL     1       2.205   4.252  17.500  0.00  0.00    +0.000 OA
ATOM     14  O   UNL     1       4.424   3.820  17.446  0.00  0.00    +0.000 OA
BRANCH   9  15
ATOM     15  C   UNL     1       6.759   4.249  17.024  0.00  0.00    +0.000 C 
BRANCH  15  19
ATOM     16  C   UNL     1       6.185   3.789  13.312  0.00  0.00    +0.000 C 
ATOM     17  C   UNL     1       6.744   4.411  14.564  0.00  0.00    +0.000 C 
ATOM     18  O   UNL     1       7.506   5.368  14.552  0.00  0.00    +0.000 OA
ATOM     19  N   UNL     1       6.300   3.808  15.717  0.00  0.00    +0.000 N 
ATOM     20  H   UNL     1       5.897   2.880  15.652  0.00  0.00    +0.000 HD
ENDBRANCH  15  19
ENDBRANCH   9  15
ENDBRANCH   1  11
BRANCH   5  21
ATOM     21  N   UNL     1       0.475  10.109  19.979  0.00  0.00    +0.000 N 
ATOM     22  C   UNL     1      -0.821  10.459  19.375  0.00  0.00    +0.000 C 
ATOM     23  C   UNL     1      -1.016  11.891  19.762  0.00  0.00    +0.000 C 
ATOM     24  C   UNL     1       0.014  12.260  20.763  0.00  0.00    +0.000 C 
ATOM     25  C   UNL     1       0.868  11.059  21.032  0.00  0.00    +0.000 C 
ATOM     26  C   UNL     1       0.048  12.902  19.392  0.00  0.00    +0.000 C 
BRANCH  26  27
ATOM     27  C   UNL     1      -0.312  14.319  19.187  0.00  0.00    +0.000 C 
ATOM     28  N   UNL     1      -1.576  14.637  19.573  0.00  0.00    +0.000 N 
ATOM     29  O   UNL     1       0.469  15.136  18.724  0.00  0.00    +0.000 OA
ATOM     30  H   UNL     1      -1.874  15.597  19.464  0.00  0.00    +0.000 HD
ATOM     31  H   UNL     1      -2.209  13.973  19.993  0.00  0.00    +0.000 HD
ENDBRANCH  26  27
ENDBRANCH   5  21
TORSDOF 5
ENDMDL
MODEL 4
REMARK VINA RESULT:      -8.2      1.643      1.978
REMARK  Name = 
REMARK  6 active torsions:
REMARK  status: ('A' for Active; 'I' for Inactive)
REMARK    1  A    between atoms: C_1  and  C_2
REMARK    2  A    between atoms: N_4  and  C_5
REMARK    3  A    between atoms: C_5  and  C_6
REMARK    4  A    between atoms: N_8  and  C_9
REMARK    5  A    between atoms: C_13  and  N_14
REMARK    6  A    between atoms: C_19  and  C_20
REMARK                            x       y       z     vdW  Elec       q    Type
REMARK                         _______ _______ _______ _____ _____    ______ ____
ROOT
ATOM      1  C   UNL     1       2.969   6.862  18.622  0.00  0.00    +0.000 A 
ATOM      2  C   UNL     1       2.380   6.838  19.882  0.00  0.00    +0.000 A 
ATOM      3  C   UNL     1       1.595   7.904  20.333  0.00  0.00    +0.000 A 
ATOM      4  F   UNL     1       1.122   7.791  21.584  0.00  0.00    +0.000 F 
ATOM      5  C   UNL     1       1.308   9.037  19.550  0.00  0.00    +0.000 A 
ATOM      6  C   UNL     1       1.921   9.028  18.283  0.00  0.00    +0.000 A 
ATOM      7  F   UNL     1       1.749  10.054  17.431  0.00  0.00    +0.000 F 
ATOM      8  C   UNL     1       2.738   7.983  17.827  0.00  0.00    +0.000 A 
ENDROOT
BRANCH   1  11
ATOM      9  C   UNL     1       5.626   4.434  17.943  0.00  0.00    +0.000 C 
ATOM     10  C   UNL     1       5.223   5.884  18.111  0.00  0.00    +0.000 C 
ATOM     11  N   UNL     1       3.797   5.804  18.184  0.00  0.00    +0.000 N 
ATOM     12  C   UNL     1       3.371   4.581  17.688  0.00  0.00    +0.000 C 
ATOM     13  O   UNL     1       2.233   4.206  17.465  0.00  0.00    +0.000 OA
ATOM     14  O   UNL     1       4.456   3.798  17.404  0.00  0.00    +0.000 OA
BRANCH   9  15
ATOM     15  C   UNL     1       6.785   4.250  16.970  0.00  0.00    +0.000 C 
BRANCH  15  19
ATOM     16  C   UNL     1       6.194   3.769  13.263  0.00  0.00    +0.000 C 
ATOM     17  C   UNL     1       6.750   4.404  14.510  0.00  0.00    +0.000 C 
ATOM     18  O   UNL     1       7.496   5.375  14.490  0.00  0.00    +0.000 OA
ATOM     19  N   UNL     1       6.324   3.797  15.667  0.00  0.00    +0.000 N 
ATOM     20  H   UNL     1       5.938   2.862  15.607  0.00  0.00    +0.000 HD
ENDBRANCH  15  19
ENDBRANCH   9  15
ENDBRANCH   1  11
BRANCH   5  21
ATOM     21  N   UNL     1       0.487  10.059  19.987  0.00  0.00    +0.000 N 
ATOM     22  C   UNL     1      -0.794  10.409  19.353  0.00  0.00    +0.000 C 
ATOM     23  C   UNL     1      -1.029  11.821  19.786  0.00  0.00    +0.000 C 
ATOM     24  C   UNL     1      -0.040  12.170  20.835  0.00  0.00    +0.000 C 
ATOM     25  C   UNL     1       0.827  10.975  21.088  0.00  0.00    +0.000 C 
ATOM     26  C   UNL     1       0.028  12.864  19.491  0.00  0.00    +0.000 C 
BRANCH  26  27
ATOM     27  C   UNL     1      -0.352  14.282  19.327  0.00  0.00    +0.000 C 
ATOM     28  N   UNL     1      -1.654  14.549  19.612  0.00  0.00    +0.000 N 
ATOM     29  O   UNL     1       0.444  15.140  18.979  0.00  0.00    +0.000 OA
ATOM     30  H   UNL     1      -1.968  15.506  19.525  0.00  0.00    +0.000 HD
ATOM     31  H   UNL     1      -2.303  13.849  19.937  0.00  0.00    +0.000 HD
ENDBRANCH  26  27
ENDBRANCH   5  21
TORSDOF 5
ENDMDL
MODEL 5
REMARK VINA RESULT:      -8.1      2.265      9.289
REMARK  Name = 
REMARK  6 active torsions:
REMARK  status: ('A' for Active; 'I' for Inactive)
REMARK    1  A    between atoms: C_1  and  C_2
REMARK    2  A    between atoms: N_4  and  C_5
REMARK    3  A    between atoms: C_5  and  C_6
REMARK    4  A    between atoms: N_8  and  C_9
REMARK    5  A    between atoms: C_13  and  N_14
REMARK    6  A    between atoms: C_19  and  C_20
REMARK                            x       y       z     vdW  Elec       q    Type
REMARK                         _______ _______ _______ _____ _____    ______ ____
ROOT
ATOM      1  C   UNL     1       1.072   9.200  19.716  0.00  0.00    +0.000 A 
ATOM      2  C   UNL     1       1.161   8.125  20.594  0.00  0.00    +0.000 A 
ATOM      3  C   UNL     1       1.893   6.980  20.264  0.00  0.00    +0.000 A 
ATOM      4  F   UNL     1       1.863   5.989  21.168  0.00  0.00    +0.000 F 
ATOM      5  C   UNL     1       2.617   6.847  19.066  0.00  0.00    +0.000 A 
ATOM      6  C   UNL     1       2.505   7.952  18.201  0.00  0.00    +0.000 A 
ATOM      7  F   UNL     1       3.131   7.959  17.012  0.00  0.00    +0.000 F 
ATOM      8  C   UNL     1       1.749   9.095  18.503  0.00  0.00    +0.000 A 
ENDROOT
BRANCH   1  11
ATOM      9  C   UNL     1      -1.520  11.682  20.452  0.00  0.00    +0.000 C 
ATOM     10  C   UNL     1      -1.038  10.550  19.567  0.00  0.00    +0.000 C 
ATOM     11  N   UNL     1       0.298  10.338  20.033  0.00  0.00    +0.000 N 
ATOM     12  C   UNL     1       0.721  11.444  20.757  0.00  0.00    +0.000 C 
ATOM     13  O   UNL     1       1.834  11.688  21.190  0.00  0.00    +0.000 OA
ATOM     14  O   UNL     1      -0.315  12.325  20.896  0.00  0.00    +0.000 OA
BRANCH   9  15
ATOM     15  C   UNL     1      -2.378  12.695  19.702  0.00  0.00    +0.000 C 
BRANCH  15  19
ATOM     16  C   UNL     1      -4.617  11.280  16.998  0.00  0.00    +0.000 C 
ATOM     17  C   UNL     1      -4.245  11.808  18.359  0.00  0.00    +0.000 C 
ATOM     18  O   UNL     1      -5.049  11.918  19.275  0.00  0.00    +0.000 OA
ATOM     19  N   UNL     1      -2.915  12.136  18.471  0.00  0.00    +0.000 N 
ATOM     20  H   UNL     1      -2.378  12.272  17.622  0.00  0.00    +0.000 HD
ENDBRANCH  15  19
ENDBRANCH   9  15
ENDBRANCH   1  11
BRANCH   5  21
ATOM     21  N   UNL     1       3.381   5.732  18.774  0.00  0.00    +0.000 N 
ATOM     22  C   UNL     1       4.671   5.432  19.416  0.00  0.00    +0.000 C 
ATOM     23  C   UNL     1       5.338   4.502  18.452  0.00  0.00    +0.000 C 
ATOM     24  C   UNL     1       4.351   4.094  17.422  0.00  0.00    +0.000 C 
ATOM     25  C   UNL     1       3.041   4.752  17.731  0.00  0.00    +0.000 C 
ATOM     26  C   UNL     1       5.534   4.950  17.019  0.00  0.00    +0.000 C 
BRANCH  26  27
ATOM     27  C   UNL     1       6.649   4.408  16.218  0.00  0.00    +0.000 C 
ATOM     28  N   UNL     1       7.826   4.311  16.890  0.00  0.00    +0.000 N 
ATOM     29  O   UNL     1       6.516   4.064  15.053  0.00  0.00    +0.000 OA
ATOM     30  H   UNL     1       8.623   3.937  16.392  0.00  0.00    +0.000 HD
ATOM     31  H   UNL     1       7.929   4.557  17.863  0.00  0.00    +0.000 HD
ENDBRANCH  26  27
ENDBRANCH   5  21
TORSDOF 5
ENDMDL
MODEL 6
REMARK VINA RESULT:      -8.1      1.836      9.659
REMARK  Name = 
REMARK  6 active torsions:
REMARK  status: ('A' for Active; 'I' for Inactive)
REMARK    1  A    between atoms: C_1  and  C_2
REMARK    2  A    between atoms: N_4  and  C_5
REMARK    3  A    between atoms: C_5  and  C_6
REMARK    4  A    between atoms: N_8  and  C_9
REMARK    5  A    between atoms: C_13  and  N_14
REMARK    6  A    between atoms: C_19  and  C_20
REMARK                            x       y       z     vdW  Elec       q    Type
REMARK                         _______ _______ _______ _____ _____    ______ ____
ROOT
ATOM      1  C   UNL     1       1.133   8.911  19.866  0.00  0.00    +0.000 A 
ATOM      2  C   UNL     1       1.251   7.790  20.681  0.00  0.00    +0.000 A 
ATOM      3  C   UNL     1       2.008   6.683  20.282  0.00  0.00    +0.000 A 
ATOM      4  F   UNL     1       2.006   5.642  21.128  0.00  0.00    +0.000 F 
ATOM      5  C   UNL     1       2.728   6.636  19.075  0.00  0.00    +0.000 A 
ATOM      6  C   UNL     1       2.585   7.785  18.275  0.00  0.00    +0.000 A 
ATOM      7  F   UNL     1       3.203   7.875  17.085  0.00  0.00    +0.000 F 
ATOM      8  C   UNL     1       1.804   8.891  18.645  0.00  0.00    +0.000 A 
ENDROOT
BRANCH   1  11
ATOM      9  C   UNL     1      -0.331  11.965  21.261  0.00  0.00    +0.000 C 
ATOM     10  C   UNL     1       0.474  10.703  21.494  0.00  0.00    +0.000 C 
ATOM     11  N   UNL     1       0.334  10.011  20.251  0.00  0.00    +0.000 N 
ATOM     12  C   UNL     1      -0.741  10.532  19.545  0.00  0.00    +0.000 C 
ATOM     13  O   UNL     1      -1.249  10.116  18.518  0.00  0.00    +0.000 OA
ATOM     14  O   UNL     1      -1.242  11.618  20.207  0.00  0.00    +0.000 OA
BRANCH   9  15
ATOM     15  C   UNL     1      -1.128  12.394  22.488  0.00  0.00    +0.000 C 
BRANCH  15  19
ATOM     16  C   UNL     1      -4.840  13.126  22.391  0.00  0.00    +0.000 C 
ATOM     17  C   UNL     1      -3.554  12.537  22.906  0.00  0.00    +0.000 C 
ATOM     18  O   UNL     1      -3.493  11.838  23.909  0.00  0.00    +0.000 OA
ATOM     19  N   UNL     1      -2.463  12.846  22.129  0.00  0.00    +0.000 N 
ATOM     20  H   UNL     1      -2.535  13.626  21.486  0.00  0.00    +0.000 HD
ENDBRANCH  15  19
ENDBRANCH   9  15
ENDBRANCH   1  11
BRANCH   5  21
ATOM     21  N   UNL     1       3.515   5.557  18.716  0.00  0.00    +0.000 N 
ATOM     22  C   UNL     1       4.839   5.281  19.296  0.00  0.00    +0.000 C 
ATOM     23  C   UNL     1       5.496   4.406  18.277  0.00  0.00    +0.000 C 
ATOM     24  C   UNL     1       4.483   3.997  17.274  0.00  0.00    +0.000 C 
ATOM     25  C   UNL     1       3.165   4.600  17.655  0.00  0.00    +0.000 C 
ATOM     26  C   UNL     1       5.619   4.905  16.853  0.00  0.00    +0.000 C 
BRANCH  26  27
ATOM     27  C   UNL     1       6.718   4.428  15.990  0.00  0.00    +0.000 C 
ATOM     28  N   UNL     1       6.329   4.050  14.744  0.00  0.00    +0.000 N 
ATOM     29  O   UNL     1       7.881   4.391  16.365  0.00  0.00    +0.000 OA
ATOM     30  H   UNL     1       7.042   3.722  14.107  0.00  0.00    +0.000 HD
ATOM     31  H   UNL     1       5.376   4.117  14.419  0.00  0.00    +0.000 HD
ENDBRANCH  26  27
ENDBRANCH   5  21
TORSDOF 5
ENDMDL
MODEL 7
REMARK VINA RESULT:      -8.1      2.281      9.405
REMARK  Name = 
REMARK  6 active torsions:
REMARK  status: ('A' for Active; 'I' for Inactive)
REMARK    1  A    between atoms: C_1  and  C_2
REMARK    2  A    between atoms: N_4  and  C_5
REMARK    3  A    between atoms: C_5  and  C_6
REMARK    4  A    between atoms: N_8  and  C_9
REMARK    5  A    between atoms: C_13  and  N_14
REMARK    6  A    between atoms: C_19  and  C_20
REMARK                            x       y       z     vdW  Elec       q    Type
REMARK                         _______ _______ _______ _____ _____    ______ ____
ROOT
ATOM      1  C   UNL     1       1.046   9.179  19.710  0.00  0.00    +0.000 A 
ATOM      2  C   UNL     1       1.754   9.080  18.517  0.00  0.00    +0.000 A 
ATOM      3  C   UNL     1       2.535   7.956  18.232  0.00  0.00    +0.000 A 
ATOM      4  F   UNL     1       3.212   7.997  17.073  0.00  0.00    +0.000 F 
ATOM      5  C   UNL     1       2.629   6.844  19.087  0.00  0.00    +0.000 A 
ATOM      6  C   UNL     1       1.902   6.978  20.285  0.00  0.00    +0.000 A 
ATOM      7  F   UNL     1       1.911   5.999  21.206  0.00  0.00    +0.000 F 
ATOM      8  C   UNL     1       1.139   8.111  20.602  0.00  0.00    +0.000 A 
ENDROOT
BRANCH   1  11
ATOM      9  C   UNL     1      -1.500  11.700  20.468  0.00  0.00    +0.000 C 
ATOM     10  C   UNL     1      -1.066  10.530  19.609  0.00  0.00    +0.000 C 
ATOM     11  N   UNL     1       0.291  10.333  20.017  0.00  0.00    +0.000 N 
ATOM     12  C   UNL     1       0.752  11.465  20.672  0.00  0.00    +0.000 C 
ATOM     13  O   UNL     1       1.886  11.722  21.039  0.00  0.00    +0.000 OA
ATOM     14  O   UNL     1      -0.274  12.357  20.825  0.00  0.00    +0.000 OA
BRANCH   9  15
ATOM     15  C   UNL     1      -2.392  12.685  19.720  0.00  0.00    +0.000 C 
BRANCH  15  19
ATOM     16  C   UNL     1      -4.502  11.257  16.921  0.00  0.00    +0.000 C 
ATOM     17  C   UNL     1      -4.192  11.780  18.299  0.00  0.00    +0.000 C 
ATOM     18  O   UNL     1      -5.033  11.872  19.183  0.00  0.00    +0.000 OA
ATOM     19  N   UNL     1      -2.873  12.126  18.466  0.00  0.00    +0.000 N 
ATOM     20  H   UNL     1      -2.305  12.277  17.640  0.00  0.00    +0.000 HD
ENDBRANCH  15  19
ENDBRANCH   9  15
ENDBRANCH   1  11
BRANCH   5  21
ATOM     21  N   UNL     1       3.363   5.716  18.769  0.00  0.00    +0.000 N 
ATOM     22  C   UNL     1       4.656   5.379  19.385  0.00  0.00    +0.000 C 
ATOM     23  C   UNL     1       5.285   4.447  18.399  0.00  0.00    +0.000 C 
ATOM     24  C   UNL     1       4.273   4.074  17.381  0.00  0.00    +0.000 C 
ATOM     25  C   UNL     1       2.983   4.756  17.720  0.00  0.00    +0.000 C 
ATOM     26  C   UNL     1       5.467   4.908  16.968  0.00  0.00    +0.000 C 
BRANCH  26  27
ATOM     27  C   UNL     1       6.556   4.351  16.141  0.00  0.00    +0.000 C 
ATOM     28  N   UNL     1       7.762   4.297  16.765  0.00  0.00    +0.000 N 
ATOM     29  O   UNL     1       6.380   3.960  14.997  0.00  0.00    +0.000 OA
ATOM     30  H   UNL     1       8.543   3.916  16.248  0.00  0.00    +0.000 HD
ATOM     31  H   UNL     1       7.902   4.582  17.723  0.00  0.00    +0.000 HD
ENDBRANCH  26  27
ENDBRANCH   5  21
TORSDOF 5
ENDMDL
MODEL 8
REMARK VINA RESULT:      -8.0      2.579      9.583
REMARK  Name = 
REMARK  6 active torsions:
REMARK  status: ('A' for Active; 'I' for Inactive)
REMARK    1  A    between atoms: C_1  and  C_2
REMARK    2  A    between atoms: N_4  and  C_5
REMARK    3  A    between atoms: C_5  and  C_6
REMARK    4  A    between atoms: N_8  and  C_9
REMARK    5  A    between atoms: C_13  and  N_14
REMARK    6  A    between atoms: C_19  and  C_20
REMARK                            x       y       z     vdW  Elec       q    Type
REMARK                         _______ _______ _______ _____ _____    ______ ____
ROOT
ATOM      1  C   UNL     1       0.971   9.168  19.922  0.00  0.00    +0.000 A 
ATOM      2  C   UNL     1       1.169   8.039  20.711  0.00  0.00    +0.000 A 
ATOM      3  C   UNL     1       1.915   6.953  20.243  0.00  0.00    +0.000 A 
ATOM      4  F   UNL     1       1.994   5.901  21.073  0.00  0.00    +0.000 F 
ATOM      5  C   UNL     1       2.548   6.935  18.987  0.00  0.00    +0.000 A 
ATOM      6  C   UNL     1       2.326   8.091  18.216  0.00  0.00    +0.000 A 
ATOM      7  F   UNL     1       2.856   8.208  16.986  0.00  0.00    +0.000 F 
ATOM      8  C   UNL     1       1.553   9.176  18.656  0.00  0.00    +0.000 A 
ENDROOT
BRANCH   1  11
ATOM      9  C   UNL     1      -0.457  12.154  21.490  0.00  0.00    +0.000 C 
ATOM     10  C   UNL     1       0.360  10.887  21.644  0.00  0.00    +0.000 C 
ATOM     11  N   UNL     1       0.181  10.247  20.378  0.00  0.00    +0.000 N 
ATOM     12  C   UNL     1      -0.917  10.792  19.730  0.00  0.00    +0.000 C 
ATOM     13  O   UNL     1      -1.457  10.416  18.703  0.00  0.00    +0.000 OA
ATOM     14  O   UNL     1      -1.401  11.846  20.453  0.00  0.00    +0.000 OA
BRANCH   9  15
ATOM     15  C   UNL     1      -1.215  12.527  22.759  0.00  0.00    +0.000 C 
BRANCH  15  19
ATOM     16  C   UNL     1      -4.905  13.370  22.715  0.00  0.00    +0.000 C 
ATOM     17  C   UNL     1      -3.647  12.663  23.145  0.00  0.00    +0.000 C 
ATOM     18  O   UNL     1      -3.629  11.798  24.011  0.00  0.00    +0.000 OA
ATOM     19  N   UNL     1      -2.529  13.073  22.457  0.00  0.00    +0.000 N 
ATOM     20  H   UNL     1      -2.566  13.956  21.960  0.00  0.00    +0.000 HD
ENDBRANCH  15  19
ENDBRANCH   9  15
ENDBRANCH   1  11
BRANCH   5  21
ATOM     21  N   UNL     1       3.328   5.877  18.559  0.00  0.00    +0.000 N 
ATOM     22  C   UNL     1       2.818   4.758  17.749  0.00  0.00    +0.000 C 
ATOM     23  C   UNL     1       3.810   3.666  17.990  0.00  0.00    +0.000 C 
ATOM     24  C   UNL     1       4.977   4.231  18.712  0.00  0.00    +0.000 C 
ATOM     25  C   UNL     1       4.742   5.695  18.924  0.00  0.00    +0.000 C 
ATOM     26  C   UNL     1       4.086   3.227  19.413  0.00  0.00    +0.000 C 
BRANCH  26  27
ATOM     27  C   UNL     1       4.536   1.849  19.692  0.00  0.00    +0.000 C 
ATOM     28  N   UNL     1       4.238   0.954  18.714  0.00  0.00    +0.000 N 
ATOM     29  O   UNL     1       5.139   1.547  20.711  0.00  0.00    +0.000 OA
ATOM     30  H   UNL     1       4.530  -0.005  18.848  0.00  0.00    +0.000 HD
ATOM     31  H   UNL     1       3.775   1.208  17.854  0.00  0.00    +0.000 HD
ENDBRANCH  26  27
ENDBRANCH   5  21
TORSDOF 5
ENDMDL
MODEL 9
REMARK VINA RESULT:      -8.0      1.821      9.758
REMARK  Name = 
REMARK  6 active torsions:
REMARK  status: ('A' for Active; 'I' for Inactive)
REMARK    1  A    between atoms: C_1  and  C_2
REMARK    2  A    between atoms: N_4  and  C_5
REMARK    3  A    between atoms: C_5  and  C_6
REMARK    4  A    between atoms: N_8  and  C_9
REMARK    5  A    between atoms: C_13  and  N_14
REMARK    6  A    between atoms: C_19  and  C_20
REMARK                            x       y       z     vdW  Elec       q    Type
REMARK                         _______ _______ _______ _____ _____    ______ ____
ROOT
ATOM      1  C   UNL     1       1.082   8.961  19.822  0.00  0.00    +0.000 A 
ATOM      2  C   UNL     1       1.783   8.932  18.621  0.00  0.00    +0.000 A 
ATOM      3  C   UNL     1       2.590   7.841  18.282  0.00  0.00    +0.000 A 
ATOM      4  F   UNL     1       3.256   7.949  17.122  0.00  0.00    +0.000 F 
ATOM      5  C   UNL     1       2.717   6.696  19.087  0.00  0.00    +0.000 A 
ATOM      6  C   UNL     1       1.996   6.759  20.294  0.00  0.00    +0.000 A 
ATOM      7  F   UNL     1       2.036   5.742  21.172  0.00  0.00    +0.000 F 
ATOM      8  C   UNL     1       1.208   7.859  20.666  0.00  0.00    +0.000 A 
ENDROOT
BRANCH   1  11
ATOM      9  C   UNL     1      -0.318  12.087  21.120  0.00  0.00    +0.000 C 
ATOM     10  C   UNL     1       0.495  10.836  21.383  0.00  0.00    +0.000 C 
ATOM     11  N   UNL     1       0.301  10.082  20.184  0.00  0.00    +0.000 N 
ATOM     12  C   UNL     1      -0.802  10.569  19.498  0.00  0.00    +0.000 C 
ATOM     13  O   UNL     1      -1.353  10.102  18.516  0.00  0.00    +0.000 OA
ATOM     14  O   UNL     1      -1.274  11.689  20.124  0.00  0.00    +0.000 OA
BRANCH   9  15
ATOM     15  C   UNL     1      -1.063  12.580  22.356  0.00  0.00    +0.000 C 
BRANCH  15  19
ATOM     16  C   UNL     1      -4.817  13.065  22.362  0.00  0.00    +0.000 C 
ATOM     17  C   UNL     1      -3.483  12.542  22.826  0.00  0.00    +0.000 C 
ATOM     18  O   UNL     1      -3.354  11.808  23.798  0.00  0.00    +0.000 OA
ATOM     19  N   UNL     1      -2.433  12.956  22.042  0.00  0.00    +0.000 N 
ATOM     20  H   UNL     1      -2.570  13.755  21.434  0.00  0.00    +0.000 HD
ENDBRANCH  15  19
ENDBRANCH   9  15
ENDBRANCH   1  11
BRANCH   5  21
ATOM     21  N   UNL     1       3.476   5.601  18.715  0.00  0.00    +0.000 N 
ATOM     22  C   UNL     1       4.777   5.264  19.315  0.00  0.00    +0.000 C 
ATOM     23  C   UNL     1       5.426   4.395  18.285  0.00  0.00    +0.000 C 
ATOM     24  C   UNL     1       4.421   4.048  17.251  0.00  0.00    +0.000 C 
ATOM     25  C   UNL     1       3.117   4.684  17.621  0.00  0.00    +0.000 C 
ATOM     26  C   UNL     1       5.596   4.928  16.878  0.00  0.00    +0.000 C 
BRANCH  26  27
ATOM     27  C   UNL     1       6.697   4.436  16.025  0.00  0.00    +0.000 C 
ATOM     28  N   UNL     1       6.315   4.070  14.774  0.00  0.00    +0.000 N 
ATOM     29  O   UNL     1       7.854   4.379  16.413  0.00  0.00    +0.000 OA
ATOM     30  H   UNL     1       7.030   3.733  14.143  0.00  0.00    +0.000 HD
ATOM     31  H   UNL     1       5.367   4.153  14.438  0.00  0.00    +0.000 HD
ENDBRANCH  26  27
ENDBRANCH   5  21
TORSDOF 5
ENDMDL
