MODEL 1
REMARK VINA RESULT:      -8.2      0.000      0.000
REMARK  Name = 
REMARK  8 active torsions:
REMARK  status: ('A' for Active; 'I' for Inactive)
REMARK    1  A    between atoms: C_1  and  C_2
REMARK    2  A    between atoms: C_2  and  N_3
REMARK    3  A    between atoms: N_10  and  C_11
REMARK    4  A    between atoms: C_11  and  C_12
REMARK    5  A    between atoms: N_14  and  C_15
REMARK    6  A    between atoms: C_18  and  C_19
REMARK    7  A    between atoms: N_26  and  C_27
REMARK    8  A    between atoms: C_27  and  C_28
REMARK                            x       y       z     vdW  Elec       q    Type
REMARK                         _______ _______ _______ _____ _____    ______ ____
ROOT
ATOM      1  N   UNL     1       1.809   4.126  19.568  0.00  0.00    +0.000 N 
ATOM      2  C   UNL     1       2.400   3.523  18.485  0.00  0.00    +0.000 A 
ATOM      3  N   UNL     1       3.080   4.387  17.759  0.00  0.00    +0.000 NA
ATOM      4  C   UNL     1       2.864   5.587  18.369  0.00  0.00    +0.000 A 
ATOM      5  C   UNL     1       2.085   5.461  19.486  0.00  0.00    +0.000 A 
ATOM      6  C   UNL     1       1.692   6.575  20.284  0.00  0.00    +0.000 A 
ATOM      7  O   UNL     1       0.956   6.481  21.264  0.00  0.00    +0.000 OA
ATOM      8  N   UNL     1       2.149   7.789  19.781  0.00  0.00    +0.000 N 
ATOM      9  C   UNL     1       2.582   7.928  18.454  0.00  0.00    +0.000 A 
ATOM     10  O   UNL     1       2.336   8.945  17.798  0.00  0.00    +0.000 OA
ATOM     11  N   UNL     1       3.237   6.825  17.897  0.00  0.00    +0.000 N 
ENDROOT
BRANCH   1  13
ATOM     12  C   UNL     1       1.936   2.803  21.648  0.00  0.00    +0.000 C 
ATOM     13  C   UNL     1       1.051   3.451  20.599  0.00  0.00    +0.000 C 
ENDBRANCH   1  13
BRANCH   8  14
ATOM     14  C   UNL     1       1.814   8.996  20.536  0.00  0.00    +0.000 C 
BRANCH  14  15
ATOM     15  C   UNL     1       0.336   9.401  20.361  0.00  0.00    +0.000 C 
ATOM     16  O   UNL     1      -0.552   9.033  21.126  0.00  0.00    +0.000 OA
ATOM     17  N   UNL     1       0.115  10.195  19.229  0.00  0.00    +0.000 N 
ATOM     18  H   UNL     1       0.768  10.057  18.466  0.00  0.00    +0.000 HD
BRANCH  17  19
ATOM     19  C   UNL     1      -1.192  10.582  18.853  0.00  0.00    +0.000 A 
ATOM     20  C   UNL     1      -1.830  11.681  19.437  0.00  0.00    +0.000 A 
ATOM     21  C   UNL     1      -3.135  12.041  19.044  0.00  0.00    +0.000 A 
ATOM     22  C   UNL     1      -3.819  11.284  18.091  0.00  0.00    +0.000 A 
ATOM     23  C   UNL     1      -3.178  10.176  17.525  0.00  0.00    +0.000 A 
ATOM     24  C   UNL     1      -1.861   9.847  17.875  0.00  0.00    +0.000 A 
BRANCH  22  25
ATOM     25  C   UNL     1      -5.202  11.569  17.639  0.00  0.00    +0.000 C 
ATOM     26  N   UNL     1      -6.218  10.851  18.220  0.00  0.00    +0.000 N 
ATOM     27  O   UNL     1      -5.466  12.418  16.809  0.00  0.00    +0.000 OA
ATOM     28  H   UNL     1      -6.138  10.126  18.886  0.00  0.00    +0.000 HD
ATOM     29  H   UNL     1      -7.171  11.027  17.907  0.00  0.00    +0.000 HD
ENDBRANCH  22  25
ENDBRANCH  17  19
ENDBRANCH  14  15
ENDBRANCH   8  14
BRANCH  11  30
ATOM     30  C   UNL     1       4.023   6.970  16.682  0.00  0.00    +0.000 C 
BRANCH  30  31
ATOM     31  C   UNL     1       5.345   6.219  16.701  0.00  0.00    +0.000 A 
ATOM     32  C   UNL     1       6.206   6.336  17.805  0.00  0.00    +0.000 A 
ATOM     33  C   UNL     1       7.330   5.513  17.926  0.00  0.00    +0.000 A 
ATOM     34  C   UNL     1       7.621   4.577  16.937  0.00  0.00    +0.000 A 
ATOM     35  C   UNL     1       6.808   4.490  15.807  0.00  0.00    +0.000 A 
ATOM     36  C   UNL     1       5.684   5.316  15.682  0.00  0.00    +0.000 A 
ENDBRANCH  30  31
ENDBRANCH  11  30
TORSDOF 7
ENDMDL
MODEL 2
REMARK VINA RESULT:      -8.1      0.656      1.064
REMARK  Name = 
REMARK  8 active torsions:
REMARK  status: ('A' for Active; 'I' for Inactive)
REMARK    1  A    between atoms: C_1  and  C_2
REMARK    2  A    between atoms: C_2  and  N_3
REMARK    3  A    between atoms: N_10  and  C_11
REMARK    4  A    between atoms: C_11  and  C_12
REMARK    5  A    between atoms: N_14  and  C_15
REMARK    6  A    between atoms: C_18  and  C_19
REMARK    7  A    between atoms: N_26  and  C_27
REMARK    8  A    between atoms: C_27  and  C_28
REMARK                            x       y       z     vdW  Elec       q    Type
REMARK                         _______ _______ _______ _____ _____    ______ ____
ROOT
ATOM      1  N   UNL     1       1.987   4.483  19.771  0.00  0.00    +0.000 N 
ATOM      2  C   UNL     1       2.587   3.793  18.746  0.00  0.00    +0.000 A 
ATOM      3  N   UNL     1       3.211   4.603  17.915  0.00  0.00    +0.000 NA
ATOM      4  C   UNL     1       2.948   5.851  18.396  0.00  0.00    +0.000 A 
ATOM      5  C   UNL     1       2.197   5.812  19.539  0.00  0.00    +0.000 A 
ATOM      6  C   UNL     1       1.766   6.988  20.220  0.00  0.00    +0.000 A 
ATOM      7  O   UNL     1       1.053   6.967  21.222  0.00  0.00    +0.000 OA
ATOM      8  N   UNL     1       2.154   8.159  19.579  0.00  0.00    +0.000 N 
ATOM      9  C   UNL     1       2.556   8.172  18.235  0.00  0.00    +0.000 A 
ATOM     10  O   UNL     1       2.249   9.099  17.478  0.00  0.00    +0.000 OA
ATOM     11  N   UNL     1       3.252   7.047  17.785  0.00  0.00    +0.000 N 
ENDROOT
BRANCH   1  13
ATOM     12  C   UNL     1       1.817   2.521  21.259  0.00  0.00    +0.000 C 
ATOM     13  C   UNL     1       1.281   3.891  20.886  0.00  0.00    +0.000 C 
ENDBRANCH   1  13
BRANCH   8  14
ATOM     14  C   UNL     1       1.775   9.424  20.206  0.00  0.00    +0.000 C 
BRANCH  14  15
ATOM     15  C   UNL     1       0.264   9.706  20.083  0.00  0.00    +0.000 C 
ATOM     16  O   UNL     1      -0.555   9.340  20.923  0.00  0.00    +0.000 OA
ATOM     17  N   UNL     1      -0.073  10.386  18.907  0.00  0.00    +0.000 N 
ATOM     18  H   UNL     1       0.549  10.233  18.121  0.00  0.00    +0.000 HD
BRANCH  17  19
ATOM     19  C   UNL     1      -1.423  10.645  18.574  0.00  0.00    +0.000 A 
ATOM     20  C   UNL     1      -2.095   9.903  17.598  0.00  0.00    +0.000 A 
ATOM     21  C   UNL     1      -3.440  10.186  17.285  0.00  0.00    +0.000 A 
ATOM     22  C   UNL     1      -4.107  11.234  17.923  0.00  0.00    +0.000 A 
ATOM     23  C   UNL     1      -3.421  11.981  18.887  0.00  0.00    +0.000 A 
ATOM     24  C   UNL     1      -2.100  11.668  19.238  0.00  0.00    +0.000 A 
BRANCH  22  25
ATOM     25  C   UNL     1      -5.510  11.623  17.639  0.00  0.00    +0.000 C 
ATOM     26  N   UNL     1      -5.712  12.790  16.944  0.00  0.00    +0.000 N 
ATOM     27  O   UNL     1      -6.465  10.946  17.968  0.00  0.00    +0.000 OA
ATOM     28  H   UNL     1      -5.031  13.435  16.638  0.00  0.00    +0.000 HD
ATOM     29  H   UNL     1      -6.672  13.076  16.755  0.00  0.00    +0.000 HD
ENDBRANCH  22  25
ENDBRANCH  17  19
ENDBRANCH  14  15
ENDBRANCH   8  14
BRANCH  11  30
ATOM     30  C   UNL     1       4.009   7.094  16.544  0.00  0.00    +0.000 C 
BRANCH  30  31
ATOM     31  C   UNL     1       5.316   6.317  16.579  0.00  0.00    +0.000 A 
ATOM     32  C   UNL     1       6.250   6.557  17.600  0.00  0.00    +0.000 A 
ATOM     33  C   UNL     1       7.365   5.727  17.758  0.00  0.00    +0.000 A 
ATOM     34  C   UNL     1       7.572   4.661  16.887  0.00  0.00    +0.000 A 
ATOM     35  C   UNL     1       6.684   4.446  15.834  0.00  0.00    +0.000 A 
ATOM     36  C   UNL     1       5.570   5.278  15.670  0.00  0.00    +0.000 A 
ENDBRANCH  30  31
ENDBRANCH  11  30
TORSDOF 7
ENDMDL
MODEL 3
REMARK VINA RESULT:      -8.0      0.613      1.032
REMARK  Name = 
REMARK  8 active torsions:
REMARK  status: ('A' for Active; 'I' for Inactive)
REMARK    1  A    between atoms: C_1  and  C_2
REMARK    2  A    between atoms: C_2  and  N_3
REMARK    3  A    between atoms: N_10  and  C_11
REMARK    4  A    between atoms: C_11  and  C_12
REMARK    5  A    between atoms: N_14  and  C_15
REMARK    6  A    between atoms: C_18  and  C_19
REMARK    7  A    between atoms: N_26  and  C_27
REMARK    8  A    between atoms: C_27  and  C_28
REMARK                            x       y       z     vdW  Elec       q    Type
REMARK                         _______ _______ _______ _____ _____    ______ ____
ROOT
ATOM      1  N   UNL     1       1.792   3.993  19.414  0.00  0.00    +0.000 N 
ATOM      2  C   UNL     1       2.390   3.449  18.305  0.00  0.00    +0.000 A 
ATOM      3  N   UNL     1       3.080   4.350  17.634  0.00  0.00    +0.000 NA
ATOM      4  C   UNL     1       2.863   5.514  18.308  0.00  0.00    +0.000 A 
ATOM      5  C   UNL     1       2.073   5.329  19.410  0.00  0.00    +0.000 A 
ATOM      6  C   UNL     1       1.678   6.399  20.265  0.00  0.00    +0.000 A 
ATOM      7  O   UNL     1       0.933   6.253  21.233  0.00  0.00    +0.000 OA
ATOM      8  N   UNL     1       2.144   7.637  19.835  0.00  0.00    +0.000 N 
ATOM      9  C   UNL     1       2.589   7.848  18.522  0.00  0.00    +0.000 A 
ATOM     10  O   UNL     1       2.353   8.902  17.922  0.00  0.00    +0.000 OA
ATOM     11  N   UNL     1       3.244   6.776  17.909  0.00  0.00    +0.000 N 
ENDROOT
BRANCH   1  13
ATOM     12  C   UNL     1       1.856   2.831  21.591  0.00  0.00    +0.000 C 
ATOM     13  C   UNL     1       1.022   3.265  20.400  0.00  0.00    +0.000 C 
ENDBRANCH   1  13
BRANCH   8  14
ATOM     14  C   UNL     1       1.807   8.801  20.654  0.00  0.00    +0.000 C 
BRANCH  14  15
ATOM     15  C   UNL     1       0.344   9.248  20.456  0.00  0.00    +0.000 C 
ATOM     16  O   UNL     1      -0.568   8.900  21.203  0.00  0.00    +0.000 OA
ATOM     17  N   UNL     1       0.165  10.055  19.326  0.00  0.00    +0.000 N 
ATOM     18  H   UNL     1       0.827   9.904  18.574  0.00  0.00    +0.000 HD
BRANCH  17  19
ATOM     19  C   UNL     1      -1.124  10.481  18.930  0.00  0.00    +0.000 A 
ATOM     20  C   UNL     1      -1.728  11.612  19.488  0.00  0.00    +0.000 A 
ATOM     21  C   UNL     1      -3.016  12.011  19.076  0.00  0.00    +0.000 A 
ATOM     22  C   UNL     1      -3.717  11.261  18.130  0.00  0.00    +0.000 A 
ATOM     23  C   UNL     1      -3.110  10.122  17.589  0.00  0.00    +0.000 A 
ATOM     24  C   UNL     1      -1.809   9.753  17.958  0.00  0.00    +0.000 A 
BRANCH  22  25
ATOM     25  C   UNL     1      -5.085  11.587  17.658  0.00  0.00    +0.000 C 
ATOM     26  N   UNL     1      -5.232  12.699  16.867  0.00  0.00    +0.000 N 
ATOM     27  O   UNL     1      -6.056  10.902  17.918  0.00  0.00    +0.000 OA
ATOM     28  H   UNL     1      -4.535  13.345  16.601  0.00  0.00    +0.000 HD
ATOM     29  H   UNL     1      -6.169  12.943  16.549  0.00  0.00    +0.000 HD
ENDBRANCH  22  25
ENDBRANCH  17  19
ENDBRANCH  14  15
ENDBRANCH   8  14
BRANCH  11  30
ATOM     30  C   UNL     1       4.042   6.985  16.712  0.00  0.00    +0.000 C 
BRANCH  30  31
ATOM     31  C   UNL     1       5.239   6.055  16.588  0.00  0.00    +0.000 A 
ATOM     32  C   UNL     1       5.481   5.375  15.384  0.00  0.00    +0.000 A 
ATOM     33  C   UNL     1       6.672   4.669  15.188  0.00  0.00    +0.000 A 
ATOM     34  C   UNL     1       7.627   4.615  16.200  0.00  0.00    +0.000 A 
ATOM     35  C   UNL     1       7.375   5.236  17.422  0.00  0.00    +0.000 A 
ATOM     36  C   UNL     1       6.181   5.941  17.622  0.00  0.00    +0.000 A 
ENDBRANCH  30  31
ENDBRANCH  11  30
TORSDOF 7
ENDMDL
MODEL 4
REMARK VINA RESULT:      -7.8      0.981      1.526
REMARK  Name = 
REMARK  8 active torsions:
REMARK  status: ('A' for Active; 'I' for Inactive)
REMARK    1  A    between atoms: C_1  and  C_2
REMARK    2  A    between atoms: C_2  and  N_3
REMARK    3  A    between atoms: N_10  and  C_11
REMARK    4  A    between atoms: C_11  and  C_12
REMARK    5  A    between atoms: N_14  and  C_15
REMARK    6  A    between atoms: C_18  and  C_19
REMARK    7  A    between atoms: N_26  and  C_27
REMARK    8  A    between atoms: C_27  and  C_28
REMARK                            x       y       z     vdW  Elec       q    Type
REMARK                         _______ _______ _______ _____ _____    ______ ____
ROOT
ATOM      1  N   UNL     1       1.747   3.980  19.600  0.00  0.00    +0.000 N 
ATOM      2  C   UNL     1       2.438   3.353  18.593  0.00  0.00    +0.000 A 
ATOM      3  N   UNL     1       3.225   4.191  17.948  0.00  0.00    +0.000 NA
ATOM      4  C   UNL     1       2.979   5.400  18.527  0.00  0.00    +0.000 A 
ATOM      5  C   UNL     1       2.073   5.306  19.548  0.00  0.00    +0.000 A 
ATOM      6  C   UNL     1       1.629   6.436  20.294  0.00  0.00    +0.000 A 
ATOM      7  O   UNL     1       0.782   6.370  21.184  0.00  0.00    +0.000 OA
ATOM      8  N   UNL     1       2.179   7.632  19.845  0.00  0.00    +0.000 N 
ATOM      9  C   UNL     1       2.766   7.750  18.576  0.00  0.00    +0.000 A 
ATOM     10  O   UNL     1       2.630   8.771  17.895  0.00  0.00    +0.000 OA
ATOM     11  N   UNL     1       3.444   6.624  18.099  0.00  0.00    +0.000 N 
ENDROOT
BRANCH   1  13
ATOM     12  C   UNL     1       1.593   2.597  21.638  0.00  0.00    +0.000 C 
ATOM     13  C   UNL     1       0.853   3.336  20.538  0.00  0.00    +0.000 C 
ENDBRANCH   1  13
BRANCH   8  14
ATOM     14  C   UNL     1       1.799   8.853  20.555  0.00  0.00    +0.000 C 
BRANCH  14  15
ATOM     15  C   UNL     1       0.323   9.229  20.317  0.00  0.00    +0.000 C 
ATOM     16  O   UNL     1      -0.586   8.874  21.064  0.00  0.00    +0.000 OA
ATOM     17  N   UNL     1       0.129   9.981  19.151  0.00  0.00    +0.000 N 
ATOM     18  H   UNL     1       0.809   9.827  18.416  0.00  0.00    +0.000 HD
BRANCH  17  19
ATOM     19  C   UNL     1      -1.170  10.335  18.718  0.00  0.00    +0.000 A 
ATOM     20  C   UNL     1      -1.806   9.656  17.674  0.00  0.00    +0.000 A 
ATOM     21  C   UNL     1      -3.100  10.034  17.261  0.00  0.00    +0.000 A 
ATOM     22  C   UNL     1      -3.748  11.112  17.868  0.00  0.00    +0.000 A 
ATOM     23  C   UNL     1      -3.096  11.794  18.901  0.00  0.00    +0.000 A 
ATOM     24  C   UNL     1      -1.831  11.388  19.350  0.00  0.00    +0.000 A 
BRANCH  22  25
ATOM     25  C   UNL     1      -5.095  11.598  17.481  0.00  0.00    +0.000 C 
ATOM     26  N   UNL     1      -5.158  12.707  16.675  0.00  0.00    +0.000 N 
ATOM     27  O   UNL     1      -6.122  11.044  17.823  0.00  0.00    +0.000 OA
ATOM     28  H   UNL     1      -4.407  13.257  16.347  0.00  0.00    +0.000 HD
ATOM     29  H   UNL     1      -6.078  13.061  16.415  0.00  0.00    +0.000 HD
ENDBRANCH  22  25
ENDBRANCH  17  19
ENDBRANCH  14  15
ENDBRANCH   8  14
BRANCH  11  30
ATOM     30  C   UNL     1       4.369   6.737  16.983  0.00  0.00    +0.000 C 
BRANCH  30  31
ATOM     31  C   UNL     1       5.827   6.877  17.392  0.00  0.00    +0.000 A 
ATOM     32  C   UNL     1       6.519   8.072  17.134  0.00  0.00    +0.000 A 
ATOM     33  C   UNL     1       7.793   8.289  17.666  0.00  0.00    +0.000 A 
ATOM     34  C   UNL     1       8.402   7.309  18.445  0.00  0.00    +0.000 A 
ATOM     35  C   UNL     1       7.752   6.094  18.660  0.00  0.00    +0.000 A 
ATOM     36  C   UNL     1       6.477   5.873  18.125  0.00  0.00    +0.000 A 
ENDBRANCH  30  31
ENDBRANCH  11  30
TORSDOF 7
ENDMDL
MODEL 5
REMARK VINA RESULT:      -7.8      2.966      8.741
REMARK  Name = 
REMARK  8 active torsions:
REMARK  status: ('A' for Active; 'I' for Inactive)
REMARK    1  A    between atoms: C_1  and  C_2
REMARK    2  A    between atoms: C_2  and  N_3
REMARK    3  A    between atoms: N_10  and  C_11
REMARK    4  A    between atoms: C_11  and  C_12
REMARK    5  A    between atoms: N_14  and  C_15
REMARK    6  A    between atoms: C_18  and  C_19
REMARK    7  A    between atoms: N_26  and  C_27
REMARK    8  A    between atoms: C_27  and  C_28
REMARK                            x       y       z     vdW  Elec       q    Type
REMARK                         _______ _______ _______ _____ _____    ______ ____
ROOT
ATOM      1  N   UNL     1      -2.699  13.146  22.382  0.00  0.00    +0.000 N 
ATOM      2  C   UNL     1      -3.211  13.867  21.333  0.00  0.00    +0.000 A 
ATOM      3  N   UNL     1      -2.721  13.461  20.179  0.00  0.00    +0.000 NA
ATOM      4  C   UNL     1      -1.825  12.490  20.514  0.00  0.00    +0.000 A 
ATOM      5  C   UNL     1      -1.788  12.271  21.864  0.00  0.00    +0.000 A 
ATOM      6  C   UNL     1      -0.910  11.324  22.468  0.00  0.00    +0.000 A 
ATOM      7  O   UNL     1      -0.836  11.149  23.684  0.00  0.00    +0.000 OA
ATOM      8  N   UNL     1      -0.081  10.689  21.549  0.00  0.00    +0.000 N 
ATOM      9  C   UNL     1       0.142  11.211  20.266  0.00  0.00    +0.000 A 
ATOM     10  O   UNL     1       1.253  11.150  19.729  0.00  0.00    +0.000 OA
ATOM     11  N   UNL     1      -0.938  11.865  19.666  0.00  0.00    +0.000 N 
ENDROOT
BRANCH   1  13
ATOM     12  C   UNL     1      -2.464  14.516  24.422  0.00  0.00    +0.000 C 
ATOM     13  C   UNL     1      -3.079  13.291  23.771  0.00  0.00    +0.000 C 
ENDBRANCH   1  13
BRANCH   8  14
ATOM     14  C   UNL     1       0.847   9.684  22.066  0.00  0.00    +0.000 C 
BRANCH  14  15
ATOM     15  C   UNL     1       0.731   8.343  21.314  0.00  0.00    +0.000 C 
ATOM     16  O   UNL     1      -0.304   7.681  21.286  0.00  0.00    +0.000 OA
ATOM     17  N   UNL     1       1.929   7.950  20.705  0.00  0.00    +0.000 N 
ATOM     18  H   UNL     1       2.775   8.289  21.149  0.00  0.00    +0.000 HD
BRANCH  17  19
ATOM     19  C   UNL     1       2.041   6.700  20.053  0.00  0.00    +0.000 A 
ATOM     20  C   UNL     1       2.312   6.608  18.684  0.00  0.00    +0.000 A 
ATOM     21  C   UNL     1       2.414   5.348  18.060  0.00  0.00    +0.000 A 
ATOM     22  C   UNL     1       2.212   4.178  18.795  0.00  0.00    +0.000 A 
ATOM     23  C   UNL     1       1.926   4.282  20.161  0.00  0.00    +0.000 A 
ATOM     24  C   UNL     1       1.875   5.532  20.795  0.00  0.00    +0.000 A 
BRANCH  22  25
ATOM     25  C   UNL     1       2.271   2.813  18.218  0.00  0.00    +0.000 C 
ATOM     26  N   UNL     1       1.342   1.902  18.656  0.00  0.00    +0.000 N 
ATOM     27  O   UNL     1       3.078   2.487  17.369  0.00  0.00    +0.000 OA
ATOM     28  H   UNL     1       0.652   2.032  19.350  0.00  0.00    +0.000 HD
ATOM     29  H   UNL     1       1.381   0.956  18.279  0.00  0.00    +0.000 HD
ENDBRANCH  22  25
ENDBRANCH  17  19
ENDBRANCH  14  15
ENDBRANCH   8  14
BRANCH  11  30
ATOM     30  C   UNL     1      -0.939  12.130  18.237  0.00  0.00    +0.000 C 
BRANCH  30  31
ATOM     31  C   UNL     1      -1.952  11.312  17.451  0.00  0.00    +0.000 A 
ATOM     32  C   UNL     1      -2.295  11.687  16.141  0.00  0.00    +0.000 A 
ATOM     33  C   UNL     1      -3.074  10.849  15.338  0.00  0.00    +0.000 A 
ATOM     34  C   UNL     1      -3.540   9.635  15.839  0.00  0.00    +0.000 A 
ATOM     35  C   UNL     1      -3.256   9.277  17.156  0.00  0.00    +0.000 A 
ATOM     36  C   UNL     1      -2.479  10.117  17.964  0.00  0.00    +0.000 A 
ENDBRANCH  30  31
ENDBRANCH  11  30
TORSDOF 7
ENDMDL
MODEL 6
REMARK VINA RESULT:      -7.6      3.294      9.648
REMARK  Name = 
REMARK  8 active torsions:
REMARK  status: ('A' for Active; 'I' for Inactive)
REMARK    1  A    between atoms: C_1  and  C_2
REMARK    2  A    between atoms: C_2  and  N_3
REMARK    3  A    between atoms: N_10  and  C_11
REMARK    4  A    between atoms: C_11  and  C_12
REMARK    5  A    between atoms: N_14  and  C_15
REMARK    6  A    between atoms: C_18  and  C_19
REMARK    7  A    between atoms: N_26  and  C_27
REMARK    8  A    between atoms: C_27  and  C_28
REMARK                            x       y       z     vdW  Elec       q    Type
REMARK                         _______ _______ _______ _____ _____    ______ ____
ROOT
ATOM      1  N   UNL     1      -2.391  11.735  18.854  0.00  0.00    +0.000 N 
ATOM      2  C   UNL     1      -3.412  12.502  19.358  0.00  0.00    +0.000 A 
ATOM      3  N   UNL     1      -3.251  12.743  20.644  0.00  0.00    +0.000 NA
ATOM      4  C   UNL     1      -2.123  12.056  20.978  0.00  0.00    +0.000 A 
ATOM      5  C   UNL     1      -1.568  11.424  19.899  0.00  0.00    +0.000 A 
ATOM      6  C   UNL     1      -0.397  10.616  19.994  0.00  0.00    +0.000 A 
ATOM      7  O   UNL     1       0.085  10.007  19.040  0.00  0.00    +0.000 OA
ATOM      8  N   UNL     1       0.085  10.512  21.295  0.00  0.00    +0.000 N 
ATOM      9  C   UNL     1      -0.710  10.820  22.408  0.00  0.00    +0.000 A 
ATOM     10  O   UNL     1      -0.648  10.158  23.449  0.00  0.00    +0.000 OA
ATOM     11  N   UNL     1      -1.624  11.865  22.248  0.00  0.00    +0.000 N 
ENDROOT
BRANCH   1  13
ATOM     12  C   UNL     1      -2.896  10.024  17.148  0.00  0.00    +0.000 C 
ATOM     13  C   UNL     1      -2.229  11.349  17.469  0.00  0.00    +0.000 C 
ENDBRANCH   1  13
BRANCH   8  14
ATOM     14  C   UNL     1       1.295   9.717  21.499  0.00  0.00    +0.000 C 
BRANCH  14  15
ATOM     15  C   UNL     1       1.108   8.249  21.066  0.00  0.00    +0.000 C 
ATOM     16  O   UNL     1       0.162   7.558  21.438  0.00  0.00    +0.000 OA
ATOM     17  N   UNL     1       2.140   7.784  20.241  0.00  0.00    +0.000 N 
ATOM     18  H   UNL     1       3.038   8.236  20.371  0.00  0.00    +0.000 HD
BRANCH  17  19
ATOM     19  C   UNL     1       2.189   6.434  19.824  0.00  0.00    +0.000 A 
ATOM     20  C   UNL     1       2.027   5.379  20.729  0.00  0.00    +0.000 A 
ATOM     21  C   UNL     1       2.085   4.043  20.285  0.00  0.00    +0.000 A 
ATOM     22  C   UNL     1       2.338   3.756  18.942  0.00  0.00    +0.000 A 
ATOM     23  C   UNL     1       2.515   4.818  18.048  0.00  0.00    +0.000 A 
ATOM     24  C   UNL     1       2.405   6.149  18.477  0.00  0.00    +0.000 A 
BRANCH  22  25
ATOM     25  C   UNL     1       2.445   2.383  18.390  0.00  0.00    +0.000 C 
ATOM     26  N   UNL     1       1.500   1.469  18.786  0.00  0.00    +0.000 N 
ATOM     27  O   UNL     1       3.304   2.054  17.596  0.00  0.00    +0.000 OA
ATOM     28  H   UNL     1       0.768   1.601  19.435  0.00  0.00    +0.000 HD
ATOM     29  H   UNL     1       1.571   0.518  18.426  0.00  0.00    +0.000 HD
ENDBRANCH  22  25
ENDBRANCH  17  19
ENDBRANCH  14  15
ENDBRANCH   8  14
BRANCH  11  30
ATOM     30  C   UNL     1      -2.238  12.495  23.406  0.00  0.00    +0.000 C 
BRANCH  30  31
ATOM     31  C   UNL     1      -1.866  13.957  23.593  0.00  0.00    +0.000 A 
ATOM     32  C   UNL     1      -2.628  14.774  24.444  0.00  0.00    +0.000 A 
ATOM     33  C   UNL     1      -2.196  16.062  24.776  0.00  0.00    +0.000 A 
ATOM     34  C   UNL     1      -1.009  16.559  24.244  0.00  0.00    +0.000 A 
ATOM     35  C   UNL     1      -0.272  15.782  23.352  0.00  0.00    +0.000 A 
ATOM     36  C   UNL     1      -0.705  14.493  23.015  0.00  0.00    +0.000 A 
ENDBRANCH  30  31
ENDBRANCH  11  30
TORSDOF 7
ENDMDL
MODEL 7
REMARK VINA RESULT:      -7.5      3.561     10.310
REMARK  Name = 
REMARK  8 active torsions:
REMARK  status: ('A' for Active; 'I' for Inactive)
REMARK    1  A    between atoms: C_1  and  C_2
REMARK    2  A    between atoms: C_2  and  N_3
REMARK    3  A    between atoms: N_10  and  C_11
REMARK    4  A    between atoms: C_11  and  C_12
REMARK    5  A    between atoms: N_14  and  C_15
REMARK    6  A    between atoms: C_18  and  C_19
REMARK    7  A    between atoms: N_26  and  C_27
REMARK    8  A    between atoms: C_27  and  C_28
REMARK                            x       y       z     vdW  Elec       q    Type
REMARK                         _______ _______ _______ _____ _____    ______ ____
ROOT
ATOM      1  N   UNL     1      -5.999  11.999  20.179  0.00  0.00    +0.000 N 
ATOM      2  C   UNL     1      -6.442  12.170  21.467  0.00  0.00    +0.000 A 
ATOM      3  N   UNL     1      -5.472  12.565  22.267  0.00  0.00    +0.000 NA
ATOM      4  C   UNL     1      -4.366  12.588  21.472  0.00  0.00    +0.000 A 
ATOM      5  C   UNL     1      -4.655  12.244  20.180  0.00  0.00    +0.000 A 
ATOM      6  C   UNL     1      -3.662  12.166  19.160  0.00  0.00    +0.000 A 
ATOM      7  O   UNL     1      -3.903  11.816  18.006  0.00  0.00    +0.000 OA
ATOM      8  N   UNL     1      -2.380  12.433  19.630  0.00  0.00    +0.000 N 
ATOM      9  C   UNL     1      -2.064  12.379  20.996  0.00  0.00    +0.000 A 
ATOM     10  O   UNL     1      -0.982  11.932  21.390  0.00  0.00    +0.000 OA
ATOM     11  N   UNL     1      -3.066  12.787  21.881  0.00  0.00    +0.000 N 
ENDROOT
BRANCH   1  13
ATOM     12  C   UNL     1      -6.897  10.139  18.829  0.00  0.00    +0.000 C 
ATOM     13  C   UNL     1      -6.821  11.639  19.044  0.00  0.00    +0.000 C 
ENDBRANCH   1  13
BRANCH   8  14
ATOM     14  C   UNL     1      -1.289  12.395  18.658  0.00  0.00    +0.000 C 
BRANCH  14  15
ATOM     15  C   UNL     1      -0.715  10.975  18.481  0.00  0.00    +0.000 C 
ATOM     16  O   UNL     1      -1.352  10.056  17.971  0.00  0.00    +0.000 OA
ATOM     17  N   UNL     1       0.581  10.838  18.992  0.00  0.00    +0.000 N 
ATOM     18  H   UNL     1       0.816  11.462  19.756  0.00  0.00    +0.000 HD
BRANCH  17  19
ATOM     19  C   UNL     1       1.232   9.583  19.007  0.00  0.00    +0.000 A 
ATOM     20  C   UNL     1       1.235   8.770  20.146  0.00  0.00    +0.000 A 
ATOM     21  C   UNL     1       1.895   7.525  20.133  0.00  0.00    +0.000 A 
ATOM     22  C   UNL     1       2.582   7.103  18.993  0.00  0.00    +0.000 A 
ATOM     23  C   UNL     1       2.587   7.931  17.864  0.00  0.00    +0.000 A 
ATOM     24  C   UNL     1       1.887   9.146  17.857  0.00  0.00    +0.000 A 
BRANCH  22  25
ATOM     25  C   UNL     1       3.328   5.825  18.897  0.00  0.00    +0.000 C 
ATOM     26  N   UNL     1       3.038   5.003  17.837  0.00  0.00    +0.000 N 
ATOM     27  O   UNL     1       4.189   5.499  19.692  0.00  0.00    +0.000 OA
ATOM     28  H   UNL     1       2.354   5.139  17.138  0.00  0.00    +0.000 HD
ATOM     29  H   UNL     1       3.533   4.114  17.767  0.00  0.00    +0.000 HD
ENDBRANCH  22  25
ENDBRANCH  17  19
ENDBRANCH  14  15
ENDBRANCH   8  14
BRANCH  11  30
ATOM     30  C   UNL     1      -2.745  13.104  23.264  0.00  0.00    +0.000 C 
BRANCH  30  31
ATOM     31  C   UNL     1      -2.805  14.587  23.595  0.00  0.00    +0.000 A 
ATOM     32  C   UNL     1      -3.710  15.057  24.561  0.00  0.00    +0.000 A 
ATOM     33  C   UNL     1      -3.651  16.378  25.014  0.00  0.00    +0.000 A 
ATOM     34  C   UNL     1      -2.702  17.254  24.493  0.00  0.00    +0.000 A 
ATOM     35  C   UNL     1      -1.835  16.818  23.491  0.00  0.00    +0.000 A 
ATOM     36  C   UNL     1      -1.895  15.496  23.033  0.00  0.00    +0.000 A 
ENDBRANCH  30  31
ENDBRANCH  11  30
TORSDOF 7
ENDMDL
MODEL 8
REMARK VINA RESULT:      -7.4      2.799      9.520
REMARK  Name = 
REMARK  8 active torsions:
REMARK  status: ('A' for Active; 'I' for Inactive)
REMARK    1  A    between atoms: C_1  and  C_2
REMARK    2  A    between atoms: C_2  and  N_3
REMARK    3  A    between atoms: N_10  and  C_11
REMARK    4  A    between atoms: C_11  and  C_12
REMARK    5  A    between atoms: N_14  and  C_15
REMARK    6  A    between atoms: C_18  and  C_19
REMARK    7  A    between atoms: N_26  and  C_27
REMARK    8  A    between atoms: C_27  and  C_28
REMARK                            x       y       z     vdW  Elec       q    Type
REMARK                         _______ _______ _______ _____ _____    ______ ____
ROOT
ATOM      1  N   UNL     1      -3.158  11.081  18.271  0.00  0.00    +0.000 N 
ATOM      2  C   UNL     1      -3.889  11.960  19.031  0.00  0.00    +0.000 A 
ATOM      3  N   UNL     1      -3.114  12.703  19.796  0.00  0.00    +0.000 NA
ATOM      4  C   UNL     1      -1.856  12.238  19.557  0.00  0.00    +0.000 A 
ATOM      5  C   UNL     1      -1.847  11.239  18.622  0.00  0.00    +0.000 A 
ATOM      6  C   UNL     1      -0.655  10.568  18.219  0.00  0.00    +0.000 A 
ATOM      7  O   UNL     1      -0.640   9.639  17.413  0.00  0.00    +0.000 OA
ATOM      8  N   UNL     1       0.473  11.009  18.903  0.00  0.00    +0.000 N 
ATOM      9  C   UNL     1       0.379  11.720  20.109  0.00  0.00    +0.000 A 
ATOM     10  O   UNL     1       1.181  11.535  21.031  0.00  0.00    +0.000 OA
ATOM     11  N   UNL     1      -0.709  12.588  20.235  0.00  0.00    +0.000 N 
ENDROOT
BRANCH   1  13
ATOM     12  C   UNL     1      -3.659  10.754  15.877  0.00  0.00    +0.000 C 
ATOM     13  C   UNL     1      -3.694  10.174  17.279  0.00  0.00    +0.000 C 
ENDBRANCH   1  13
BRANCH   8  14
ATOM     14  C   UNL     1       1.753  10.396  18.551  0.00  0.00    +0.000 C 
BRANCH  14  15
ATOM     15  C   UNL     1       1.815   8.908  18.951  0.00  0.00    +0.000 C 
ATOM     16  O   UNL     1       1.360   8.481  20.011  0.00  0.00    +0.000 OA
ATOM     17  N   UNL     1       2.468   8.112  18.003  0.00  0.00    +0.000 N 
ATOM     18  H   UNL     1       3.167   8.586  17.443  0.00  0.00    +0.000 HD
BRANCH  17  19
ATOM     19  C   UNL     1       2.707   6.738  18.243  0.00  0.00    +0.000 A 
ATOM     20  C   UNL     1       1.781   5.757  17.875  0.00  0.00    +0.000 A 
ATOM     21  C   UNL     1       2.044   4.396  18.130  0.00  0.00    +0.000 A 
ATOM     22  C   UNL     1       3.218   4.014  18.782  0.00  0.00    +0.000 A 
ATOM     23  C   UNL     1       4.131   5.005  19.160  0.00  0.00    +0.000 A 
ATOM     24  C   UNL     1       3.896   6.355  18.861  0.00  0.00    +0.000 A 
BRANCH  22  25
ATOM     25  C   UNL     1       3.566   2.612  19.117  0.00  0.00    +0.000 C 
ATOM     26  N   UNL     1       4.802   2.382  19.669  0.00  0.00    +0.000 N 
ATOM     27  O   UNL     1       2.801   1.682  18.950  0.00  0.00    +0.000 OA
ATOM     28  H   UNL     1       5.518   3.041  19.837  0.00  0.00    +0.000 HD
ATOM     29  H   UNL     1       5.059   1.421  19.890  0.00  0.00    +0.000 HD
ENDBRANCH  22  25
ENDBRANCH  17  19
ENDBRANCH  14  15
ENDBRANCH   8  14
BRANCH  11  30
ATOM     30  C   UNL     1      -0.720  13.615  21.264  0.00  0.00    +0.000 C 
BRANCH  30  31
ATOM     31  C   UNL     1      -1.729  13.375  22.376  0.00  0.00    +0.000 A 
ATOM     32  C   UNL     1      -2.587  14.410  22.784  0.00  0.00    +0.000 A 
ATOM     33  C   UNL     1      -3.642  14.159  23.666  0.00  0.00    +0.000 A 
ATOM     34  C   UNL     1      -3.842  12.876  24.169  0.00  0.00    +0.000 A 
ATOM     35  C   UNL     1      -2.964  11.852  23.818  0.00  0.00    +0.000 A 
ATOM     36  C   UNL     1      -1.904  12.102  22.938  0.00  0.00    +0.000 A 
ENDBRANCH  30  31
ENDBRANCH  11  30
TORSDOF 7
ENDMDL
MODEL 9
REMARK VINA RESULT:      -7.3      2.793      9.812
REMARK  Name = 
REMARK  8 active torsions:
REMARK  status: ('A' for Active; 'I' for Inactive)
REMARK    1  A    between atoms: C_1  and  C_2
REMARK    2  A    between atoms: C_2  and  N_3
REMARK    3  A    between atoms: N_10  and  C_11
REMARK    4  A    between atoms: C_11  and  C_12
REMARK    5  A    between atoms: N_14  and  C_15
REMARK    6  A    between atoms: C_18  and  C_19
REMARK    7  A    between atoms: N_26  and  C_27
REMARK    8  A    between atoms: C_27  and  C_28
REMARK                            x       y       z     vdW  Elec       q    Type
REMARK                         _______ _______ _______ _____ _____    ______ ____
ROOT
ATOM      1  N   UNL     1      -3.534  10.994  17.769  0.00  0.00    +0.000 N 
ATOM      2  C   UNL     1      -4.592  11.772  18.168  0.00  0.00    +0.000 A 
ATOM      3  N   UNL     1      -4.263  12.564  19.168  0.00  0.00    +0.000 NA
ATOM      4  C   UNL     1      -2.972  12.234  19.451  0.00  0.00    +0.000 A 
ATOM      5  C   UNL     1      -2.492  11.270  18.607  0.00  0.00    +0.000 A 
ATOM      6  C   UNL     1      -1.175  10.734  18.715  0.00  0.00    +0.000 A 
ATOM      7  O   UNL     1      -0.748   9.836  17.991  0.00  0.00    +0.000 OA
ATOM      8  N   UNL     1      -0.461  11.264  19.784  0.00  0.00    +0.000 N 
ATOM      9  C   UNL     1      -1.094  11.925  20.847  0.00  0.00    +0.000 A 
ATOM     10  O   UNL     1      -0.707  11.792  22.012  0.00  0.00    +0.000 OA
ATOM     11  N   UNL     1      -2.228  12.676  20.522  0.00  0.00    +0.000 N 
ENDROOT
BRANCH   1  13
ATOM     12  C   UNL     1      -3.022  10.693  15.373  0.00  0.00    +0.000 C 
ATOM     13  C   UNL     1      -3.539  10.069  16.656  0.00  0.00    +0.000 C 
ENDBRANCH   1  13
BRANCH   8  14
ATOM     14  C   UNL     1       0.910  10.792  19.974  0.00  0.00    +0.000 C 
BRANCH  14  15
ATOM     15  C   UNL     1       0.976   9.267  20.195  0.00  0.00    +0.000 C 
ATOM     16  O   UNL     1       0.385   8.698  21.110  0.00  0.00    +0.000 OA
ATOM     17  N   UNL     1       1.800   8.613  19.270  0.00  0.00    +0.000 N 
ATOM     18  H   UNL     1       2.554   9.172  18.888  0.00  0.00    +0.000 HD
BRANCH  17  19
ATOM     19  C   UNL     1       2.059   7.227  19.375  0.00  0.00    +0.000 A 
ATOM     20  C   UNL     1       2.470   6.471  18.273  0.00  0.00    +0.000 A 
ATOM     21  C   UNL     1       2.718   5.090  18.407  0.00  0.00    +0.000 A 
ATOM     22  C   UNL     1       2.523   4.454  19.634  0.00  0.00    +0.000 A 
ATOM     23  C   UNL     1       2.096   5.216  20.727  0.00  0.00    +0.000 A 
ATOM     24  C   UNL     1       1.899   6.600  20.610  0.00  0.00    +0.000 A 
BRANCH  22  25
ATOM     25  C   UNL     1       2.730   3.003  19.861  0.00  0.00    +0.000 C 
ATOM     26  N   UNL     1       2.829   2.576  21.163  0.00  0.00    +0.000 N 
ATOM     27  O   UNL     1       2.785   2.192  18.957  0.00  0.00    +0.000 OA
ATOM     28  H   UNL     1       2.820   3.128  21.981  0.00  0.00    +0.000 HD
ATOM     29  H   UNL     1       2.986   1.583  21.332  0.00  0.00    +0.000 HD
ENDBRANCH  22  25
ENDBRANCH  17  19
ENDBRANCH  14  15
ENDBRANCH   8  14
BRANCH  11  30
ATOM     30  C   UNL     1      -2.749  13.665  21.452  0.00  0.00    +0.000 C 
BRANCH  30  31
ATOM     31  C   UNL     1      -3.793  13.126  22.418  0.00  0.00    +0.000 A 
ATOM     32  C   UNL     1      -3.400  12.614  23.665  0.00  0.00    +0.000 A 
ATOM     33  C   UNL     1      -4.351  12.291  24.638  0.00  0.00    +0.000 A 
ATOM     34  C   UNL     1      -5.708  12.454  24.370  0.00  0.00    +0.000 A 
ATOM     35  C   UNL     1      -6.115  12.906  23.115  0.00  0.00    +0.000 A 
ATOM     36  C   UNL     1      -5.164  13.227  22.138  0.00  0.00    +0.000 A 
ENDBRANCH  30  31
ENDBRANCH  11  30
TORSDOF 7
ENDMDL
