MODEL 1
REMARK VINA RESULT:      -8.3      0.000      0.000
REMARK  Name = 
REMARK  7 active torsions:
REMARK  status: ('A' for Active; 'I' for Inactive)
REMARK    1  A    between atoms: O_1  and  C_2
REMARK    2  A    between atoms: C_5  and  N_6
REMARK    3  A    between atoms: N_6  and  C_7
REMARK    4  A    between atoms: C_7  and  C_8
REMARK    5  A    between atoms: C_14  and  O_15
REMARK    6  A    between atoms: O_15  and  C_16
REMARK    7  A    between atoms: C_16  and  C_17
REMARK                            x       y       z     vdW  Elec       q    Type
REMARK                         _______ _______ _______ _____ _____    ______ ____
ROOT
ATOM      1  C   UNL     1       4.235   5.603  17.538  0.00  0.00    +0.000 A 
ATOM      2  C   UNL     1       5.224   6.590  17.702  0.00  0.00    +0.000 A 
ATOM      3  C   UNL     1       6.533   6.355  17.283  0.00  0.00    +0.000 A 
ATOM      4 CL   UNL     1       7.720   7.587  17.452  0.00  0.00    +0.000 Cl
ATOM      5  C   UNL     1       6.883   5.131  16.719  0.00  0.00    +0.000 A 
ATOM      6  C   UNL     1       5.914   4.137  16.562  0.00  0.00    +0.000 A 
ATOM      7  C   UNL     1       4.589   4.377  16.944  0.00  0.00    +0.000 A 
ENDROOT
BRANCH   1   8
ATOM      8  C   UNL     1       2.806   5.903  17.947  0.00  0.00    +0.000 C 
BRANCH   8   9
ATOM      9  N   UNL     1       2.749   6.588  19.233  0.00  0.00    +0.000 N 
ATOM     10  H   UNL     1       3.609   6.499  19.767  0.00  0.00    +0.000 HD
BRANCH   9  14
ATOM     11  C   UNL     1       0.677  10.209  19.751  0.00  0.00    +0.000 A 
ATOM     12  C   UNL     1       1.216   9.910  18.508  0.00  0.00    +0.000 A 
ATOM     13  C   UNL     1       1.903   8.703  18.328  0.00  0.00    +0.000 A 
ATOM     14  C   UNL     1       2.085   7.800  19.383  0.00  0.00    +0.000 A 
ATOM     15  C   UNL     1       1.487   8.109  20.613  0.00  0.00    +0.000 A 
ATOM     16  C   UNL     1       0.798   9.312  20.802  0.00  0.00    +0.000 A 
BRANCH  11  17
ATOM     17  O   UNL     1       0.011  11.376  19.975  0.00  0.00    +0.000 OA
ATOM     18  H   UNL     1       0.515  11.899  20.619  0.00  0.00    +0.000 HD
ENDBRANCH  11  17
ENDBRANCH   9  14
ENDBRANCH   8   9
ENDBRANCH   1   8
BRANCH   7  19
ATOM     19  O   UNL     1       3.584   3.458  16.808  0.00  0.00    +0.000 OA
BRANCH  19  20
ATOM     20  C   UNL     1       3.630   2.332  17.688  0.00  0.00    +0.000 C 
BRANCH  20  21
ATOM     21  C   UNL     1       2.780   2.566  18.911  0.00  0.00    +0.000 A 
ATOM     22  C   UNL     1       1.384   2.689  18.874  0.00  0.00    +0.000 A 
ATOM     23  C   UNL     1       0.656   2.870  20.053  0.00  0.00    +0.000 A 
ATOM     24  C   UNL     1       1.313   2.932  21.283  0.00  0.00    +0.000 A 
ATOM     25  C   UNL     1       2.699   2.815  21.334  0.00  0.00    +0.000 A 
ATOM     26  C   UNL     1       3.416   2.636  20.156  0.00  0.00    +0.000 A 
ATOM     27  F   UNL     1       4.751   2.516  20.222  0.00  0.00    +0.000 F 
ENDBRANCH  20  21
ENDBRANCH  19  20
ENDBRANCH   7  19
TORSDOF 7
ENDMDL
MODEL 2
REMARK VINA RESULT:      -8.3      2.699      5.766
REMARK  Name = 
REMARK  7 active torsions:
REMARK  status: ('A' for Active; 'I' for Inactive)
REMARK    1  A    between atoms: O_1  and  C_2
REMARK    2  A    between atoms: C_5  and  N_6
REMARK    3  A    between atoms: N_6  and  C_7
REMARK    4  A    between atoms: C_7  and  C_8
REMARK    5  A    between atoms: C_14  and  O_15
REMARK    6  A    between atoms: O_15  and  C_16
REMARK    7  A    between atoms: C_16  and  C_17
REMARK                            x       y       z     vdW  Elec       q    Type
REMARK                         _______ _______ _______ _____ _____    ______ ____
ROOT
ATOM      1  C   UNL     1       2.061   7.961  18.486  0.00  0.00    +0.000 A 
ATOM      2  C   UNL     1       1.439   9.191  18.204  0.00  0.00    +0.000 A 
ATOM      3  C   UNL     1       0.856   9.938  19.226  0.00  0.00    +0.000 A 
ATOM      4 CL   UNL     1       0.136  11.459  18.872  0.00  0.00    +0.000 Cl
ATOM      5  C   UNL     1       0.861   9.465  20.535  0.00  0.00    +0.000 A 
ATOM      6  C   UNL     1       1.463   8.240  20.828  0.00  0.00    +0.000 A 
ATOM      7  C   UNL     1       2.085   7.501  19.815  0.00  0.00    +0.000 A 
ENDROOT
BRANCH   1   8
ATOM      8  C   UNL     1       2.740   7.194  17.368  0.00  0.00    +0.000 C 
BRANCH   8   9
ATOM      9  N   UNL     1       4.141   7.577  17.229  0.00  0.00    +0.000 N 
ATOM     10  H   UNL     1       4.341   8.492  17.625  0.00  0.00    +0.000 HD
BRANCH   9  14
ATOM     11  C   UNL     1       7.303   4.826  17.545  0.00  0.00    +0.000 A 
ATOM     12  C   UNL     1       6.023   4.358  17.287  0.00  0.00    +0.000 A 
ATOM     13  C   UNL     1       4.966   5.271  17.176  0.00  0.00    +0.000 A 
ATOM     14  C   UNL     1       5.166   6.646  17.347  0.00  0.00    +0.000 A 
ATOM     15  C   UNL     1       6.479   7.091  17.558  0.00  0.00    +0.000 A 
ATOM     16  C   UNL     1       7.541   6.188  17.670  0.00  0.00    +0.000 A 
BRANCH  11  17
ATOM     17  O   UNL     1       8.359   3.975  17.672  0.00  0.00    +0.000 OA
ATOM     18  H   UNL     1       8.028   3.064  17.616  0.00  0.00    +0.000 HD
ENDBRANCH  11  17
ENDBRANCH   9  14
ENDBRANCH   8   9
ENDBRANCH   1   8
BRANCH   7  19
ATOM     19  O   UNL     1       2.707   6.300  20.028  0.00  0.00    +0.000 OA
BRANCH  19  20
ATOM     20  C   UNL     1       1.856   5.161  20.176  0.00  0.00    +0.000 C 
BRANCH  20  21
ATOM     21  C   UNL     1       2.457   3.947  19.513  0.00  0.00    +0.000 A 
ATOM     22  C   UNL     1       3.462   3.163  20.097  0.00  0.00    +0.000 A 
ATOM     23  C   UNL     1       3.948   2.029  19.440  0.00  0.00    +0.000 A 
ATOM     24  C   UNL     1       3.438   1.665  18.193  0.00  0.00    +0.000 A 
ATOM     25  C   UNL     1       2.442   2.437  17.601  0.00  0.00    +0.000 A 
ATOM     26  C   UNL     1       1.964   3.564  18.261  0.00  0.00    +0.000 A 
ATOM     27  F   UNL     1       0.998   4.293  17.681  0.00  0.00    +0.000 F 
ENDBRANCH  20  21
ENDBRANCH  19  20
ENDBRANCH   7  19
TORSDOF 7
ENDMDL
MODEL 3
REMARK VINA RESULT:      -8.1      0.943      1.650
REMARK  Name = 
REMARK  7 active torsions:
REMARK  status: ('A' for Active; 'I' for Inactive)
REMARK    1  A    between atoms: O_1  and  C_2
REMARK    2  A    between atoms: C_5  and  N_6
REMARK    3  A    between atoms: N_6  and  C_7
REMARK    4  A    between atoms: C_7  and  C_8
REMARK    5  A    between atoms: C_14  and  O_15
REMARK    6  A    between atoms: O_15  and  C_16
REMARK    7  A    between atoms: C_16  and  C_17
REMARK                            x       y       z     vdW  Elec       q    Type
REMARK                         _______ _______ _______ _____ _____    ______ ____
ROOT
ATOM      1  C   UNL     1       4.230   5.788  17.540  0.00  0.00    +0.000 A 
ATOM      2  C   UNL     1       5.239   6.760  17.664  0.00  0.00    +0.000 A 
ATOM      3  C   UNL     1       6.548   6.472  17.280  0.00  0.00    +0.000 A 
ATOM      4 CL   UNL     1       7.762   7.685  17.401  0.00  0.00    +0.000 Cl
ATOM      5  C   UNL     1       6.878   5.212  16.791  0.00  0.00    +0.000 A 
ATOM      6  C   UNL     1       5.889   4.232  16.673  0.00  0.00    +0.000 A 
ATOM      7  C   UNL     1       4.564   4.524  17.020  0.00  0.00    +0.000 A 
ENDROOT
BRANCH   1   8
ATOM      8  C   UNL     1       2.802   6.142  17.908  0.00  0.00    +0.000 C 
BRANCH   8   9
ATOM      9  N   UNL     1       2.714   6.669  19.265  0.00  0.00    +0.000 N 
ATOM     10  H   UNL     1       3.586   6.581  19.781  0.00  0.00    +0.000 HD
BRANCH   9  14
ATOM     11  C   UNL     1       0.514  10.156  20.088  0.00  0.00    +0.000 A 
ATOM     12  C   UNL     1       0.724   9.233  21.102  0.00  0.00    +0.000 A 
ATOM     13  C   UNL     1       1.460   8.072  20.835  0.00  0.00    +0.000 A 
ATOM     14  C   UNL     1       1.968   7.805  19.558  0.00  0.00    +0.000 A 
ATOM     15  C   UNL     1       1.781   8.780  18.567  0.00  0.00    +0.000 A 
ATOM     16  C   UNL     1       1.048   9.943  18.824  0.00  0.00    +0.000 A 
BRANCH  11  17
ATOM     17  O   UNL     1      -0.205  11.293  20.298  0.00  0.00    +0.000 OA
ATOM     18  H   UNL     1       0.201  11.783  21.031  0.00  0.00    +0.000 HD
ENDBRANCH  11  17
ENDBRANCH   9  14
ENDBRANCH   8   9
ENDBRANCH   1   8
BRANCH   7  19
ATOM     19  O   UNL     1       3.540   3.621  16.918  0.00  0.00    +0.000 OA
BRANCH  19  20
ATOM     20  C   UNL     1       3.634   2.458  17.745  0.00  0.00    +0.000 C 
BRANCH  20  21
ATOM     21  C   UNL     1       2.898   2.657  19.045  0.00  0.00    +0.000 A 
ATOM     22  C   UNL     1       3.502   2.533  20.305  0.00  0.00    +0.000 A 
ATOM     23  C   UNL     1       2.766   2.766  21.470  0.00  0.00    +0.000 A 
ATOM     24  C   UNL     1       1.420   3.124  21.392  0.00  0.00    +0.000 A 
ATOM     25  C   UNL     1       0.807   3.246  20.148  0.00  0.00    +0.000 A 
ATOM     26  C   UNL     1       1.546   3.013  18.993  0.00  0.00    +0.000 A 
ATOM     27  F   UNL     1       0.943   3.143  17.802  0.00  0.00    +0.000 F 
ENDBRANCH  20  21
ENDBRANCH  19  20
ENDBRANCH   7  19
TORSDOF 7
ENDMDL
MODEL 4
REMARK VINA RESULT:      -8.1      2.385      5.392
REMARK  Name = 
REMARK  7 active torsions:
REMARK  status: ('A' for Active; 'I' for Inactive)
REMARK    1  A    between atoms: O_1  and  C_2
REMARK    2  A    between atoms: C_5  and  N_6
REMARK    3  A    between atoms: N_6  and  C_7
REMARK    4  A    between atoms: C_7  and  C_8
REMARK    5  A    between atoms: C_14  and  O_15
REMARK    6  A    between atoms: O_15  and  C_16
REMARK    7  A    between atoms: C_16  and  C_17
REMARK                            x       y       z     vdW  Elec       q    Type
REMARK                         _______ _______ _______ _____ _____    ______ ____
ROOT
ATOM      1  C   UNL     1       5.699   4.965  17.734  0.00  0.00    +0.000 A 
ATOM      2  C   UNL     1       6.387   4.513  16.593  0.00  0.00    +0.000 A 
ATOM      3  C   UNL     1       6.197   5.136  15.360  0.00  0.00    +0.000 A 
ATOM      4 CL   UNL     1       7.077   4.597  13.985  0.00  0.00    +0.000 Cl
ATOM      5  C   UNL     1       5.305   6.197  15.238  0.00  0.00    +0.000 A 
ATOM      6  C   UNL     1       4.604   6.649  16.359  0.00  0.00    +0.000 A 
ATOM      7  C   UNL     1       4.818   6.056  17.608  0.00  0.00    +0.000 A 
ENDROOT
BRANCH   1   8
ATOM      8  C   UNL     1       5.966   4.312  19.076  0.00  0.00    +0.000 C 
BRANCH   8   9
ATOM      9  N   UNL     1       5.291   3.024  19.189  0.00  0.00    +0.000 N 
ATOM     10  H   UNL     1       5.786   2.369  19.788  0.00  0.00    +0.000 HD
BRANCH   9  14
ATOM     11  C   UNL     1       1.105   2.710  19.413  0.00  0.00    +0.000 A 
ATOM     12  C   UNL     1       1.742   2.417  18.216  0.00  0.00    +0.000 A 
ATOM     13  C   UNL     1       3.136   2.515  18.137  0.00  0.00    +0.000 A 
ATOM     14  C   UNL     1       3.904   2.931  19.232  0.00  0.00    +0.000 A 
ATOM     15  C   UNL     1       3.235   3.173  20.440  0.00  0.00    +0.000 A 
ATOM     16  C   UNL     1       1.843   3.076  20.530  0.00  0.00    +0.000 A 
BRANCH  11  17
ATOM     17  O   UNL     1      -0.251   2.639  19.533  0.00  0.00    +0.000 OA
ATOM     18  H   UNL     1      -0.552   3.393  20.066  0.00  0.00    +0.000 HD
ENDBRANCH  11  17
ENDBRANCH   9  14
ENDBRANCH   8   9
ENDBRANCH   1   8
BRANCH   7  19
ATOM     19  O   UNL     1       4.180   6.452  18.753  0.00  0.00    +0.000 OA
BRANCH  19  20
ATOM     20  C   UNL     1       2.752   6.379  18.742  0.00  0.00    +0.000 C 
BRANCH  20  21
ATOM     21  C   UNL     1       2.139   7.740  18.957  0.00  0.00    +0.000 A 
ATOM     22  C   UNL     1       2.107   8.739  17.974  0.00  0.00    +0.000 A 
ATOM     23  C   UNL     1       1.489   9.967  18.230  0.00  0.00    +0.000 A 
ATOM     24  C   UNL     1       0.899  10.211  19.471  0.00  0.00    +0.000 A 
ATOM     25  C   UNL     1       0.926   9.229  20.457  0.00  0.00    +0.000 A 
ATOM     26  C   UNL     1       1.543   8.010  20.194  0.00  0.00    +0.000 A 
ATOM     27  F   UNL     1       1.554   7.071  21.151  0.00  0.00    +0.000 F 
ENDBRANCH  20  21
ENDBRANCH  19  20
ENDBRANCH   7  19
TORSDOF 7
ENDMDL
MODEL 5
REMARK VINA RESULT:      -8.1      2.556      5.723
REMARK  Name = 
REMARK  7 active torsions:
REMARK  status: ('A' for Active; 'I' for Inactive)
REMARK    1  A    between atoms: O_1  and  C_2
REMARK    2  A    between atoms: C_5  and  N_6
REMARK    3  A    between atoms: N_6  and  C_7
REMARK    4  A    between atoms: C_7  and  C_8
REMARK    5  A    between atoms: C_14  and  O_15
REMARK    6  A    between atoms: O_15  and  C_16
REMARK    7  A    between atoms: C_16  and  C_17
REMARK                            x       y       z     vdW  Elec       q    Type
REMARK                         _______ _______ _______ _____ _____    ______ ____
ROOT
ATOM      1  C   UNL     1       1.837   8.497  18.879  0.00  0.00    +0.000 A 
ATOM      2  C   UNL     1       1.196   9.747  18.807  0.00  0.00    +0.000 A 
ATOM      3  C   UNL     1       0.578  10.291  19.933  0.00  0.00    +0.000 A 
ATOM      4 CL   UNL     1      -0.165  11.839  19.838  0.00  0.00    +0.000 Cl
ATOM      5  C   UNL     1       0.567   9.592  21.136  0.00  0.00    +0.000 A 
ATOM      6  C   UNL     1       1.188   8.344  21.220  0.00  0.00    +0.000 A 
ATOM      7  C   UNL     1       1.844   7.807  20.106  0.00  0.00    +0.000 A 
ENDROOT
BRANCH   1   8
ATOM      8  C   UNL     1       2.552   7.953  17.659  0.00  0.00    +0.000 C 
BRANCH   8   9
ATOM      9  N   UNL     1       3.944   7.628  17.953  0.00  0.00    +0.000 N 
ATOM     10  H   UNL     1       4.183   7.766  18.932  0.00  0.00    +0.000 HD
BRANCH   9  14
ATOM     11  C   UNL     1       5.961   4.410  16.153  0.00  0.00    +0.000 A 
ATOM     12  C   UNL     1       5.512   5.456  15.359  0.00  0.00    +0.000 A 
ATOM     13  C   UNL     1       4.844   6.533  15.955  0.00  0.00    +0.000 A 
ATOM     14  C   UNL     1       4.591   6.567  17.331  0.00  0.00    +0.000 A 
ATOM     15  C   UNL     1       5.100   5.519  18.112  0.00  0.00    +0.000 A 
ATOM     16  C   UNL     1       5.769   4.439  17.527  0.00  0.00    +0.000 A 
BRANCH  11  17
ATOM     17  O   UNL     1       6.605   3.336  15.616  0.00  0.00    +0.000 OA
ATOM     18  H   UNL     1       7.393   3.653  15.147  0.00  0.00    +0.000 HD
ENDBRANCH  11  17
ENDBRANCH   9  14
ENDBRANCH   8   9
ENDBRANCH   1   8
BRANCH   7  19
ATOM     19  O   UNL     1       2.486   6.598  20.116  0.00  0.00    +0.000 OA
BRANCH  19  20
ATOM     20  C   UNL     1       1.674   5.450  20.374  0.00  0.00    +0.000 C 
BRANCH  20  21
ATOM     21  C   UNL     1       2.026   4.317  19.443  0.00  0.00    +0.000 A 
ATOM     22  C   UNL     1       1.787   4.347  18.061  0.00  0.00    +0.000 A 
ATOM     23  C   UNL     1       2.173   3.275  17.252  0.00  0.00    +0.000 A 
ATOM     24  C   UNL     1       2.798   2.160  17.812  0.00  0.00    +0.000 A 
ATOM     25  C   UNL     1       3.037   2.116  19.182  0.00  0.00    +0.000 A 
ATOM     26  C   UNL     1       2.651   3.187  19.981  0.00  0.00    +0.000 A 
ATOM     27  F   UNL     1       2.896   3.133  21.299  0.00  0.00    +0.000 F 
ENDBRANCH  20  21
ENDBRANCH  19  20
ENDBRANCH   7  19
TORSDOF 7
ENDMDL
MODEL 6
REMARK VINA RESULT:      -8.0      2.622      6.347
REMARK  Name = 
REMARK  7 active torsions:
REMARK  status: ('A' for Active; 'I' for Inactive)
REMARK    1  A    between atoms: O_1  and  C_2
REMARK    2  A    between atoms: C_5  and  N_6
REMARK    3  A    between atoms: N_6  and  C_7
REMARK    4  A    between atoms: C_7  and  C_8
REMARK    5  A    between atoms: C_14  and  O_15
REMARK    6  A    between atoms: O_15  and  C_16
REMARK    7  A    between atoms: C_16  and  C_17
REMARK                            x       y       z     vdW  Elec       q    Type
REMARK                         _______ _______ _______ _____ _____    ______ ____
ROOT
ATOM      1  C   UNL     1       1.837   7.815  19.817  0.00  0.00    +0.000 A 
ATOM      2  C   UNL     1       1.115   8.754  20.576  0.00  0.00    +0.000 A 
ATOM      3  C   UNL     1       0.697   9.955  20.003  0.00  0.00    +0.000 A 
ATOM      4 CL   UNL     1      -0.220  11.073  20.932  0.00  0.00    +0.000 Cl
ATOM      5  C   UNL     1       1.011  10.250  18.680  0.00  0.00    +0.000 A 
ATOM      6  C   UNL     1       1.739   9.333  17.917  0.00  0.00    +0.000 A 
ATOM      7  C   UNL     1       2.129   8.109  18.472  0.00  0.00    +0.000 A 
ENDROOT
BRANCH   1   8
ATOM      8  C   UNL     1       2.229   6.492  20.444  0.00  0.00    +0.000 C 
BRANCH   8   9
ATOM      9  N   UNL     1       1.519   5.376  19.829  0.00  0.00    +0.000 N 
ATOM     10  H   UNL     1       0.766   5.677  19.215  0.00  0.00    +0.000 HD
BRANCH   9  14
ATOM     11  C   UNL     1       3.451   1.869  18.549  0.00  0.00    +0.000 A 
ATOM     12  C   UNL     1       3.592   2.276  19.868  0.00  0.00    +0.000 A 
ATOM     13  C   UNL     1       2.946   3.440  20.301  0.00  0.00    +0.000 A 
ATOM     14  C   UNL     1       2.183   4.223  19.426  0.00  0.00    +0.000 A 
ATOM     15  C   UNL     1       2.021   3.759  18.113  0.00  0.00    +0.000 A 
ATOM     16  C   UNL     1       2.661   2.597  17.671  0.00  0.00    +0.000 A 
BRANCH  11  17
ATOM     17  O   UNL     1       4.070   0.749  18.081  0.00  0.00    +0.000 OA
ATOM     18  H   UNL     1       4.467   0.280  18.832  0.00  0.00    +0.000 HD
ENDBRANCH  11  17
ENDBRANCH   9  14
ENDBRANCH   8   9
ENDBRANCH   1   8
BRANCH   7  19
ATOM     19  O   UNL     1       2.831   7.156  17.784  0.00  0.00    +0.000 OA
BRANCH  19  20
ATOM     20  C   UNL     1       4.155   7.512  17.378  0.00  0.00    +0.000 C 
BRANCH  20  21
ATOM     21  C   UNL     1       4.908   6.307  16.874  0.00  0.00    +0.000 A 
ATOM     22  C   UNL     1       5.177   6.073  15.517  0.00  0.00    +0.000 A 
ATOM     23  C   UNL     1       5.913   4.952  15.123  0.00  0.00    +0.000 A 
ATOM     24  C   UNL     1       6.387   4.051  16.078  0.00  0.00    +0.000 A 
ATOM     25  C   UNL     1       6.124   4.270  17.427  0.00  0.00    +0.000 A 
ATOM     26  C   UNL     1       5.391   5.388  17.811  0.00  0.00    +0.000 A 
ATOM     27  F   UNL     1       5.153   5.589  19.116  0.00  0.00    +0.000 F 
ENDBRANCH  20  21
ENDBRANCH  19  20
ENDBRANCH   7  19
TORSDOF 7
ENDMDL
MODEL 7
REMARK VINA RESULT:      -8.0      2.772      6.293
REMARK  Name = 
REMARK  7 active torsions:
REMARK  status: ('A' for Active; 'I' for Inactive)
REMARK    1  A    between atoms: O_1  and  C_2
REMARK    2  A    between atoms: C_5  and  N_6
REMARK    3  A    between atoms: N_6  and  C_7
REMARK    4  A    between atoms: C_7  and  C_8
REMARK    5  A    between atoms: C_14  and  O_15
REMARK    6  A    between atoms: O_15  and  C_16
REMARK    7  A    between atoms: C_16  and  C_17
REMARK                            x       y       z     vdW  Elec       q    Type
REMARK                         _______ _______ _______ _____ _____    ______ ____
ROOT
ATOM      1  C   UNL     1       2.011   7.374  19.838  0.00  0.00    +0.000 A 
ATOM      2  C   UNL     1       1.226   8.450  20.290  0.00  0.00    +0.000 A 
ATOM      3  C   UNL     1       1.027   9.568  19.482  0.00  0.00    +0.000 A 
ATOM      4 CL   UNL     1       0.031  10.857  20.034  0.00  0.00    +0.000 Cl
ATOM      5  C   UNL     1       1.622   9.644  18.227  0.00  0.00    +0.000 A 
ATOM      6  C   UNL     1       2.415   8.589  17.768  0.00  0.00    +0.000 A 
ATOM      7  C   UNL     1       2.589   7.446  18.557  0.00  0.00    +0.000 A 
ENDROOT
BRANCH   1   8
ATOM      8  C   UNL     1       2.165   6.143  20.710  0.00  0.00    +0.000 C 
BRANCH   8   9
ATOM      9  N   UNL     1       1.415   5.011  20.177  0.00  0.00    +0.000 N 
ATOM     10  H   UNL     1       0.560   5.292  19.703  0.00  0.00    +0.000 HD
BRANCH   9  14
ATOM     11  C   UNL     1       3.439   1.704  18.554  0.00  0.00    +0.000 A 
ATOM     12  C   UNL     1       2.279   2.154  17.941  0.00  0.00    +0.000 A 
ATOM     13  C   UNL     1       1.603   3.258  18.475  0.00  0.00    +0.000 A 
ATOM     14  C   UNL     1       2.055   3.904  19.632  0.00  0.00    +0.000 A 
ATOM     15  C   UNL     1       3.257   3.456  20.199  0.00  0.00    +0.000 A 
ATOM     16  C   UNL     1       3.940   2.354  19.673  0.00  0.00    +0.000 A 
BRANCH  11  17
ATOM     17  O   UNL     1       4.123   0.626  18.077  0.00  0.00    +0.000 OA
ATOM     18  H   UNL     1       3.485  -0.002  17.704  0.00  0.00    +0.000 HD
ENDBRANCH  11  17
ENDBRANCH   9  14
ENDBRANCH   8   9
ENDBRANCH   1   8
BRANCH   7  19
ATOM     19  O   UNL     1       3.339   6.368  18.170  0.00  0.00    +0.000 OA
BRANCH  19  20
ATOM     20  C   UNL     1       4.739   6.597  17.996  0.00  0.00    +0.000 C 
BRANCH  20  21
ATOM     21  C   UNL     1       5.326   5.632  16.997  0.00  0.00    +0.000 A 
ATOM     22  C   UNL     1       4.640   4.512  16.506  0.00  0.00    +0.000 A 
ATOM     23  C   UNL     1       5.232   3.679  15.553  0.00  0.00    +0.000 A 
ATOM     24  C   UNL     1       6.517   3.953  15.081  0.00  0.00    +0.000 A 
ATOM     25  C   UNL     1       7.211   5.059  15.563  0.00  0.00    +0.000 A 
ATOM     26  C   UNL     1       6.614   5.883  16.512  0.00  0.00    +0.000 A 
ATOM     27  F   UNL     1       7.292   6.950  16.960  0.00  0.00    +0.000 F 
ENDBRANCH  20  21
ENDBRANCH  19  20
ENDBRANCH   7  19
TORSDOF 7
ENDMDL
MODEL 8
REMARK VINA RESULT:      -8.0      2.651      6.387
REMARK  Name = 
REMARK  7 active torsions:
REMARK  status: ('A' for Active; 'I' for Inactive)
REMARK    1  A    between atoms: O_1  and  C_2
REMARK    2  A    between atoms: C_5  and  N_6
REMARK    3  A    between atoms: N_6  and  C_7
REMARK    4  A    between atoms: C_7  and  C_8
REMARK    5  A    between atoms: C_14  and  O_15
REMARK    6  A    between atoms: O_15  and  C_16
REMARK    7  A    between atoms: C_16  and  C_17
REMARK                            x       y       z     vdW  Elec       q    Type
REMARK                         _______ _______ _______ _____ _____    ______ ____
ROOT
ATOM      1  C   UNL     1       1.790   7.446  20.100  0.00  0.00    +0.000 A 
ATOM      2  C   UNL     1       1.062   8.424  20.802  0.00  0.00    +0.000 A 
ATOM      3  C   UNL     1       0.786   9.657  20.214  0.00  0.00    +0.000 A 
ATOM      4 CL   UNL     1      -0.142  10.825  21.070  0.00  0.00    +0.000 Cl
ATOM      5  C   UNL     1       1.247   9.946  18.933  0.00  0.00    +0.000 A 
ATOM      6  C   UNL     1       1.983   8.990  18.228  0.00  0.00    +0.000 A 
ATOM      7  C   UNL     1       2.233   7.735  18.795  0.00  0.00    +0.000 A 
ENDROOT
BRANCH   1   8
ATOM      8  C   UNL     1       2.028   6.091  20.737  0.00  0.00    +0.000 C 
BRANCH   8   9
ATOM      9  N   UNL     1       1.369   5.025  19.991  0.00  0.00    +0.000 N 
ATOM     10  H   UNL     1       0.646   5.370  19.364  0.00  0.00    +0.000 HD
BRANCH   9  14
ATOM     11  C   UNL     1       3.576   1.725  18.609  0.00  0.00    +0.000 A 
ATOM     12  C   UNL     1       2.337   1.993  18.047  0.00  0.00    +0.000 A 
ATOM     13  C   UNL     1       1.599   3.094  18.500  0.00  0.00    +0.000 A 
ATOM     14  C   UNL     1       2.071   3.917  19.530  0.00  0.00    +0.000 A 
ATOM     15  C   UNL     1       3.348   3.649  20.043  0.00  0.00    +0.000 A 
ATOM     16  C   UNL     1       4.092   2.552  19.597  0.00  0.00    +0.000 A 
BRANCH  11  17
ATOM     17  O   UNL     1       4.324   0.659  18.209  0.00  0.00    +0.000 OA
ATOM     18  H   UNL     1       5.180   0.986  17.890  0.00  0.00    +0.000 HD
ENDBRANCH  11  17
ENDBRANCH   9  14
ENDBRANCH   8   9
ENDBRANCH   1   8
BRANCH   7  19
ATOM     19  O   UNL     1       2.933   6.744  18.162  0.00  0.00    +0.000 OA
BRANCH  19  20
ATOM     20  C   UNL     1       3.868   7.165  17.165  0.00  0.00    +0.000 C 
BRANCH  20  21
ATOM     21  C   UNL     1       5.110   6.310  17.192  0.00  0.00    +0.000 A 
ATOM     22  C   UNL     1       6.373   6.790  17.568  0.00  0.00    +0.000 A 
ATOM     23  C   UNL     1       7.475   5.932  17.604  0.00  0.00    +0.000 A 
ATOM     24  C   UNL     1       7.331   4.586  17.265  0.00  0.00    +0.000 A 
ATOM     25  C   UNL     1       6.083   4.098  16.886  0.00  0.00    +0.000 A 
ATOM     26  C   UNL     1       4.991   4.958  16.853  0.00  0.00    +0.000 A 
ATOM     27  F   UNL     1       3.794   4.470  16.494  0.00  0.00    +0.000 F 
ENDBRANCH  20  21
ENDBRANCH  19  20
ENDBRANCH   7  19
TORSDOF 7
ENDMDL
MODEL 9
REMARK VINA RESULT:      -8.0      2.555      4.666
REMARK  Name = 
REMARK  7 active torsions:
REMARK  status: ('A' for Active; 'I' for Inactive)
REMARK    1  A    between atoms: O_1  and  C_2
REMARK    2  A    between atoms: C_5  and  N_6
REMARK    3  A    between atoms: N_6  and  C_7
REMARK    4  A    between atoms: C_7  and  C_8
REMARK    5  A    between atoms: C_14  and  O_15
REMARK    6  A    between atoms: O_15  and  C_16
REMARK    7  A    between atoms: C_16  and  C_17
REMARK                            x       y       z     vdW  Elec       q    Type
REMARK                         _______ _______ _______ _____ _____    ______ ____
ROOT
ATOM      1  C   UNL     1       2.812   4.812  19.355  0.00  0.00    +0.000 A 
ATOM      2  C   UNL     1       2.286   4.253  20.534  0.00  0.00    +0.000 A 
ATOM      3  C   UNL     1       1.891   2.916  20.567  0.00  0.00    +0.000 A 
ATOM      4 CL   UNL     1       1.290   2.237  22.027  0.00  0.00    +0.000 Cl
ATOM      5  C   UNL     1       1.990   2.125  19.427  0.00  0.00    +0.000 A 
ATOM      6  C   UNL     1       2.498   2.669  18.245  0.00  0.00    +0.000 A 
ATOM      7  C   UNL     1       2.933   3.999  18.212  0.00  0.00    +0.000 A 
ENDROOT
BRANCH   1   8
ATOM      8  C   UNL     1       3.289   6.251  19.359  0.00  0.00    +0.000 C 
BRANCH   8   9
ATOM      9  N   UNL     1       2.432   7.098  20.181  0.00  0.00    +0.000 N 
ATOM     10  H   UNL     1       2.777   7.206  21.132  0.00  0.00    +0.000 HD
BRANCH   9  14
ATOM     11  C   UNL     1       0.418  10.454  18.648  0.00  0.00    +0.000 A 
ATOM     12  C   UNL     1       1.276   9.745  17.821  0.00  0.00    +0.000 A 
ATOM     13  C   UNL     1       1.946   8.623  18.325  0.00  0.00    +0.000 A 
ATOM     14  C   UNL     1       1.792   8.215  19.656  0.00  0.00    +0.000 A 
ATOM     15  C   UNL     1       0.881   8.924  20.452  0.00  0.00    +0.000 A 
ATOM     16  C   UNL     1       0.207  10.045  19.957  0.00  0.00    +0.000 A 
BRANCH  11  17
ATOM     17  O   UNL     1      -0.246  11.558  18.205  0.00  0.00    +0.000 OA
ATOM     18  H   UNL     1      -1.147  11.297  17.957  0.00  0.00    +0.000 HD
ENDBRANCH  11  17
ENDBRANCH   9  14
ENDBRANCH   8   9
ENDBRANCH   1   8
BRANCH   7  19
ATOM     19  O   UNL     1       3.454   4.598  17.097  0.00  0.00    +0.000 OA
BRANCH  19  20
ATOM     20  C   UNL     1       4.764   4.182  16.706  0.00  0.00    +0.000 C 
BRANCH  20  21
ATOM     21  C   UNL     1       5.817   5.095  17.282  0.00  0.00    +0.000 A 
ATOM     22  C   UNL     1       6.701   4.713  18.302  0.00  0.00    +0.000 A 
ATOM     23  C   UNL     1       7.677   5.600  18.764  0.00  0.00    +0.000 A 
ATOM     24  C   UNL     1       7.780   6.880  18.216  0.00  0.00    +0.000 A 
ATOM     25  C   UNL     1       6.906   7.273  17.206  0.00  0.00    +0.000 A 
ATOM     26  C   UNL     1       5.938   6.384  16.752  0.00  0.00    +0.000 A 
ATOM     27  F   UNL     1       5.108   6.775  15.773  0.00  0.00    +0.000 F 
ENDBRANCH  20  21
ENDBRANCH  19  20
ENDBRANCH   7  19
TORSDOF 7
ENDMDL
