MODEL 1
REMARK VINA RESULT:      -8.9      0.000      0.000
REMARK  Name = 
REMARK  7 active torsions:
REMARK  status: ('A' for Active; 'I' for Inactive)
REMARK    1  A    between atoms: C_1  and  C_2
REMARK    2  A    between atoms: C_2  and  C_3
REMARK    3  A    between atoms: C_3  and  C_4
REMARK    4  A    between atoms: C_4  and  O_6
REMARK    5  A    between atoms: C_11  and  C_12
REMARK    6  A    between atoms: C_15  and  N_16
REMARK    7  A    between atoms: N_19  and  C_20
REMARK                            x       y       z     vdW  Elec       q    Type
REMARK                         _______ _______ _______ _____ _____    ______ ____
ROOT
ATOM      1  C   UNL     1       0.984   8.976  20.241  0.00  0.00    +0.000 A 
ATOM      2  C   UNL     1       0.686  10.323  19.973  0.00  0.00    +0.000 A 
ATOM      3  C   UNL     1      -0.038  11.106  20.876  0.00  0.00    +0.000 A 
ATOM      4  C   UNL     1      -0.518  10.563  22.067  0.00  0.00    +0.000 A 
ATOM      5  C   UNL     1      -0.269   9.217  22.334  0.00  0.00    +0.000 A 
ATOM      6  C   UNL     1       0.466   8.436  21.429  0.00  0.00    +0.000 A 
ENDROOT
BRANCH   1  13
ATOM      7  C   UNL     1       5.683   3.760  16.287  0.00  0.00    +0.000 C 
ATOM      8  C   UNL     1       4.993   4.579  17.392  0.00  0.00    +0.000 C 
ATOM      9  C   UNL     1       3.753   3.803  17.888  0.00  0.00    +0.000 C 
ATOM     10  C   UNL     1       2.975   4.550  18.969  0.00  0.00    +0.000 C 
ATOM     11  C   UNL     1       2.802   6.013  18.659  0.00  0.00    +0.000 A 
ATOM     12  C   UNL     1       1.975   6.788  19.488  0.00  0.00    +0.000 A 
ATOM     13  C   UNL     1       1.835   8.182  19.322  0.00  0.00    +0.000 A 
ATOM     14  C   UNL     1       2.526   8.774  18.252  0.00  0.00    +0.000 A 
ATOM     15  C   UNL     1       3.329   8.016  17.396  0.00  0.00    +0.000 A 
ATOM     16  C   UNL     1       3.488   6.646  17.616  0.00  0.00    +0.000 A 
ATOM     17  C   UNL     1       4.477   5.895  16.801  0.00  0.00    +0.000 C 
ATOM     18  O   UNL     1       4.929   6.392  15.774  0.00  0.00    +0.000 OA
BRANCH   8  19
ATOM     19  C   UNL     1       6.016   4.991  18.479  0.00  0.00    +0.000 C 
BRANCH  19  20
ATOM     20  C   UNL     1       7.425   5.225  17.996  0.00  0.00    +0.000 C 
ATOM     21  O   UNL     1       7.847   6.270  17.538  0.00  0.00    +0.000 OA
BRANCH  20  22
ATOM     22  O   UNL     1       8.186   4.104  18.057  0.00  0.00    +0.000 OA
ATOM     23  H   UNL     1       8.556   3.911  18.939  0.00  0.00    +0.000 HD
ENDBRANCH  20  22
ENDBRANCH  19  20
ENDBRANCH   8  19
ENDBRANCH   1  13
BRANCH   4  24
ATOM     24  N   UNL     1      -1.197  11.328  23.035  0.00  0.00    +0.000 N 
ATOM     25  C   UNL     1      -2.298  12.125  22.787  0.00  0.00    +0.000 C 
ATOM     26  O   UNL     1      -2.953  12.119  21.750  0.00  0.00    +0.000 OA
ATOM     27  N   UNL     1      -2.558  12.973  23.857  0.00  0.00    +0.000 N 
ATOM     28  H   UNL     1      -1.020  11.115  24.006  0.00  0.00    +0.000 HD
ATOM     29  H   UNL     1      -1.721  13.330  24.299  0.00  0.00    +0.000 HD
BRANCH  27  30
ATOM     30  C   UNL     1      -3.679  13.831  23.836  0.00  0.00    +0.000 A 
ATOM     31  C   UNL     1      -3.484  15.197  23.631  0.00  0.00    +0.000 A 
ATOM     32  C   UNL     1      -4.585  16.051  23.539  0.00  0.00    +0.000 A 
ATOM     33  C   UNL     1      -5.877  15.550  23.707  0.00  0.00    +0.000 A 
ATOM     34  C   UNL     1      -6.065  14.192  23.953  0.00  0.00    +0.000 A 
ATOM     35 CL   UNL     1      -7.655  13.578  24.193  0.00  0.00    +0.000 Cl
ATOM     36  C   UNL     1      -4.974  13.328  24.008  0.00  0.00    +0.000 A 
ENDBRANCH  27  30
ENDBRANCH   4  24
TORSDOF 6
ENDMDL
MODEL 2
REMARK VINA RESULT:      -8.8      8.410     11.420
REMARK  Name = 
REMARK  7 active torsions:
REMARK  status: ('A' for Active; 'I' for Inactive)
REMARK    1  A    between atoms: C_1  and  C_2
REMARK    2  A    between atoms: C_2  and  C_3
REMARK    3  A    between atoms: C_3  and  C_4
REMARK    4  A    between atoms: C_4  and  O_6
REMARK    5  A    between atoms: C_11  and  C_12
REMARK    6  A    between atoms: C_15  and  N_16
REMARK    7  A    between atoms: N_19  and  C_20
REMARK                            x       y       z     vdW  Elec       q    Type
REMARK                         _______ _______ _______ _____ _____    ______ ____
ROOT
ATOM      1  C   UNL     1       8.557   8.934  18.417  0.00  0.00    +0.000 A 
ATOM      2  C   UNL     1       7.652   8.748  17.357  0.00  0.00    +0.000 A 
ATOM      3  C   UNL     1       6.985   7.534  17.167  0.00  0.00    +0.000 A 
ATOM      4  C   UNL     1       7.221   6.451  18.013  0.00  0.00    +0.000 A 
ATOM      5  C   UNL     1       8.144   6.600  19.047  0.00  0.00    +0.000 A 
ATOM      6  C   UNL     1       8.806   7.823  19.240  0.00  0.00    +0.000 A 
ENDROOT
BRANCH   1  13
ATOM      7  C   UNL     1      10.971  16.272  20.704  0.00  0.00    +0.000 C 
ATOM      8  C   UNL     1      10.116  15.031  20.394  0.00  0.00    +0.000 C 
ATOM      9  C   UNL     1      10.032  14.154  21.663  0.00  0.00    +0.000 C 
ATOM     10  C   UNL     1       9.228  12.873  21.450  0.00  0.00    +0.000 C 
ATOM     11  C   UNL     1       9.554  12.187  20.150  0.00  0.00    +0.000 A 
ATOM     12  C   UNL     1       9.004  10.920  19.896  0.00  0.00    +0.000 A 
ATOM     13  C   UNL     1       9.185  10.253  18.666  0.00  0.00    +0.000 A 
ATOM     14  C   UNL     1       9.986  10.888  17.702  0.00  0.00    +0.000 A 
ATOM     15  C   UNL     1      10.568  12.135  17.947  0.00  0.00    +0.000 A 
ATOM     16  C   UNL     1      10.330  12.793  19.155  0.00  0.00    +0.000 A 
ATOM     17  C   UNL     1      10.817  14.186  19.325  0.00  0.00    +0.000 C 
ATOM     18  O   UNL     1      11.651  14.643  18.549  0.00  0.00    +0.000 OA
BRANCH   8  19
ATOM     19  C   UNL     1       8.764  15.449  19.766  0.00  0.00    +0.000 C 
BRANCH  19  20
ATOM     20  C   UNL     1       8.853  16.356  18.566  0.00  0.00    +0.000 C 
ATOM     21  O   UNL     1       8.795  17.572  18.597  0.00  0.00    +0.000 OA
BRANCH  20  22
ATOM     22  O   UNL     1       8.933  15.667  17.401  0.00  0.00    +0.000 OA
ATOM     23  H   UNL     1       9.570  14.929  17.408  0.00  0.00    +0.000 HD
ENDBRANCH  20  22
ENDBRANCH  19  20
ENDBRANCH   8  19
ENDBRANCH   1  13
BRANCH   4  24
ATOM     24  N   UNL     1       6.527   5.230  17.900  0.00  0.00    +0.000 N 
ATOM     25  C   UNL     1       5.232   5.012  18.330  0.00  0.00    +0.000 C 
ATOM     26  O   UNL     1       4.447   5.888  18.676  0.00  0.00    +0.000 OA
ATOM     27  N   UNL     1       4.932   3.655  18.355  0.00  0.00    +0.000 N 
ATOM     28  H   UNL     1       6.902   4.537  17.270  0.00  0.00    +0.000 HD
ATOM     29  H   UNL     1       5.706   3.078  18.657  0.00  0.00    +0.000 HD
BRANCH  27  30
ATOM     30  C   UNL     1       3.637   3.213  18.705  0.00  0.00    +0.000 A 
ATOM     31  C   UNL     1       2.727   2.908  17.692  0.00  0.00    +0.000 A 
ATOM     32  C   UNL     1       1.466   2.405  18.018  0.00  0.00    +0.000 A 
ATOM     33  C   UNL     1       1.095   2.258  19.356  0.00  0.00    +0.000 A 
ATOM     34  C   UNL     1       1.991   2.603  20.363  0.00  0.00    +0.000 A 
ATOM     35 CL   UNL     1       1.521   2.454  22.013  0.00  0.00    +0.000 Cl
ATOM     36  C   UNL     1       3.264   3.070  20.046  0.00  0.00    +0.000 A 
ENDBRANCH  27  30
ENDBRANCH   4  24
TORSDOF 6
ENDMDL
MODEL 3
REMARK VINA RESULT:      -8.7      2.128      2.606
REMARK  Name = 
REMARK  7 active torsions:
REMARK  status: ('A' for Active; 'I' for Inactive)
REMARK    1  A    between atoms: C_1  and  C_2
REMARK    2  A    between atoms: C_2  and  C_3
REMARK    3  A    between atoms: C_3  and  C_4
REMARK    4  A    between atoms: C_4  and  O_6
REMARK    5  A    between atoms: C_11  and  C_12
REMARK    6  A    between atoms: C_15  and  N_16
REMARK    7  A    between atoms: N_19  and  C_20
REMARK                            x       y       z     vdW  Elec       q    Type
REMARK                         _______ _______ _______ _____ _____    ______ ____
ROOT
ATOM      1  C   UNL     1       0.732   9.488  20.646  0.00  0.00    +0.000 A 
ATOM      2  C   UNL     1       0.585   9.321  22.034  0.00  0.00    +0.000 A 
ATOM      3  C   UNL     1      -0.232  10.166  22.790  0.00  0.00    +0.000 A 
ATOM      4  C   UNL     1      -0.909  11.228  22.191  0.00  0.00    +0.000 A 
ATOM      5  C   UNL     1      -0.746  11.436  20.822  0.00  0.00    +0.000 A 
ATOM      6  C   UNL     1       0.068  10.581  20.064  0.00  0.00    +0.000 A 
ENDROOT
BRANCH   1  13
ATOM      7  C   UNL     1       5.267   3.641  17.457  0.00  0.00    +0.000 C 
ATOM      8  C   UNL     1       4.654   4.673  18.420  0.00  0.00    +0.000 C 
ATOM      9  C   UNL     1       3.519   3.996  19.220  0.00  0.00    +0.000 C 
ATOM     10  C   UNL     1       2.820   4.949  20.187  0.00  0.00    +0.000 C 
ATOM     11  C   UNL     1       2.534   6.295  19.576  0.00  0.00    +0.000 A 
ATOM     12  C   UNL     1       1.758   7.215  20.298  0.00  0.00    +0.000 A 
ATOM     13  C   UNL     1       1.523   8.528  19.838  0.00  0.00    +0.000 A 
ATOM     14  C   UNL     1       2.062   8.877  18.589  0.00  0.00    +0.000 A 
ATOM     15  C   UNL     1       2.811   7.966  17.839  0.00  0.00    +0.000 A 
ATOM     16  C   UNL     1       3.068   6.690  18.344  0.00  0.00    +0.000 A 
ATOM     17  C   UNL     1       4.005   5.800  17.611  0.00  0.00    +0.000 C 
ATOM     18  O   UNL     1       4.317   6.059  16.452  0.00  0.00    +0.000 OA
BRANCH   8  19
ATOM     19  C   UNL     1       5.762   5.355  19.258  0.00  0.00    +0.000 C 
BRANCH  19  20
ATOM     20  C   UNL     1       7.106   5.482  18.588  0.00  0.00    +0.000 C 
ATOM     21  O   UNL     1       8.066   4.762  18.793  0.00  0.00    +0.000 OA
BRANCH  20  22
ATOM     22  O   UNL     1       7.171   6.553  17.758  0.00  0.00    +0.000 OA
ATOM     23  H   UNL     1       6.692   6.444  16.916  0.00  0.00    +0.000 HD
ENDBRANCH  20  22
ENDBRANCH  19  20
ENDBRANCH   8  19
ENDBRANCH   1  13
BRANCH   4  24
ATOM     24  N   UNL     1      -1.792  12.066  22.901  0.00  0.00    +0.000 N 
ATOM     25  C   UNL     1      -1.518  13.366  23.280  0.00  0.00    +0.000 C 
ATOM     26  O   UNL     1      -0.567  14.031  22.883  0.00  0.00    +0.000 OA
ATOM     27  N   UNL     1      -2.445  13.826  24.208  0.00  0.00    +0.000 N 
ATOM     28  H   UNL     1      -2.762  11.793  22.941  0.00  0.00    +0.000 HD
ATOM     29  H   UNL     1      -2.734  13.119  24.871  0.00  0.00    +0.000 HD
BRANCH  27  30
ATOM     30  C   UNL     1      -2.386  15.154  24.683  0.00  0.00    +0.000 A 
ATOM     31  C   UNL     1      -3.210  16.119  24.102  0.00  0.00    +0.000 A 
ATOM     32  C   UNL     1      -3.215  17.423  24.603  0.00  0.00    +0.000 A 
ATOM     33  C   UNL     1      -2.359  17.775  25.648  0.00  0.00    +0.000 A 
ATOM     34  C   UNL     1      -1.509  16.819  26.197  0.00  0.00    +0.000 A 
ATOM     35 CL   UNL     1      -0.429  17.261  27.463  0.00  0.00    +0.000 Cl
ATOM     36  C   UNL     1      -1.525  15.508  25.727  0.00  0.00    +0.000 A 
ENDBRANCH  27  30
ENDBRANCH   4  24
TORSDOF 6
ENDMDL
MODEL 4
REMARK VINA RESULT:      -8.7      1.167      1.480
REMARK  Name = 
REMARK  7 active torsions:
REMARK  status: ('A' for Active; 'I' for Inactive)
REMARK    1  A    between atoms: C_1  and  C_2
REMARK    2  A    between atoms: C_2  and  C_3
REMARK    3  A    between atoms: C_3  and  C_4
REMARK    4  A    between atoms: C_4  and  O_6
REMARK    5  A    between atoms: C_11  and  C_12
REMARK    6  A    between atoms: C_15  and  N_16
REMARK    7  A    between atoms: N_19  and  C_20
REMARK                            x       y       z     vdW  Elec       q    Type
REMARK                         _______ _______ _______ _____ _____    ______ ____
ROOT
ATOM      1  C   UNL     1       1.021   9.060  20.292  0.00  0.00    +0.000 A 
ATOM      2  C   UNL     1       0.949  10.462  20.235  0.00  0.00    +0.000 A 
ATOM      3  C   UNL     1       0.181  11.194  21.145  0.00  0.00    +0.000 A 
ATOM      4  C   UNL     1      -0.568  10.548  22.128  0.00  0.00    +0.000 A 
ATOM      5  C   UNL     1      -0.544   9.154  22.177  0.00  0.00    +0.000 A 
ATOM      6  C   UNL     1       0.235   8.423  21.267  0.00  0.00    +0.000 A 
ENDROOT
BRANCH   1  13
ATOM      7  C   UNL     1       6.326   4.325  16.503  0.00  0.00    +0.000 C 
ATOM      8  C   UNL     1       5.607   5.186  17.557  0.00  0.00    +0.000 C 
ATOM      9  C   UNL     1       4.698   4.274  18.410  0.00  0.00    +0.000 C 
ATOM     10  C   UNL     1       3.910   5.041  19.469  0.00  0.00    +0.000 C 
ATOM     11  C   UNL     1       3.315   6.321  18.943  0.00  0.00    +0.000 A 
ATOM     12  C   UNL     1       2.438   7.047  19.764  0.00  0.00    +0.000 A 
ATOM     13  C   UNL     1       1.913   8.300  19.383  0.00  0.00    +0.000 A 
ATOM     14  C   UNL     1       2.267   8.785  18.113  0.00  0.00    +0.000 A 
ATOM     15  C   UNL     1       3.113   8.063  17.268  0.00  0.00    +0.000 A 
ATOM     16  C   UNL     1       3.657   6.849  17.693  0.00  0.00    +0.000 A 
ATOM     17  C   UNL     1       4.685   6.185  16.851  0.00  0.00    +0.000 C 
ATOM     18  O   UNL     1       4.841   6.534  15.685  0.00  0.00    +0.000 OA
BRANCH   8  19
ATOM     19  C   UNL     1       6.627   6.050  18.337  0.00  0.00    +0.000 C 
BRANCH  19  20
ATOM     20  C   UNL     1       7.684   5.290  19.097  0.00  0.00    +0.000 C 
ATOM     21  O   UNL     1       8.436   4.460  18.618  0.00  0.00    +0.000 OA
BRANCH  20  22
ATOM     22  O   UNL     1       7.672   5.572  20.423  0.00  0.00    +0.000 OA
ATOM     23  H   UNL     1       8.109   6.410  20.664  0.00  0.00    +0.000 HD
ENDBRANCH  20  22
ENDBRANCH  19  20
ENDBRANCH   8  19
ENDBRANCH   1  13
BRANCH   4  24
ATOM     24  N   UNL     1      -1.306  11.244  23.106  0.00  0.00    +0.000 N 
ATOM     25  C   UNL     1      -2.361  12.096  22.844  0.00  0.00    +0.000 C 
ATOM     26  O   UNL     1      -2.927  12.206  21.763  0.00  0.00    +0.000 OA
ATOM     27  N   UNL     1      -2.687  12.852  23.964  0.00  0.00    +0.000 N 
ATOM     28  H   UNL     1      -1.216  10.938  24.063  0.00  0.00    +0.000 HD
ATOM     29  H   UNL     1      -1.881  13.139  24.504  0.00  0.00    +0.000 HD
BRANCH  27  30
ATOM     30  C   UNL     1      -3.781  13.745  23.934  0.00  0.00    +0.000 A 
ATOM     31  C   UNL     1      -5.075  13.229  23.848  0.00  0.00    +0.000 A 
ATOM     32  C   UNL     1      -6.172  14.093  23.885  0.00  0.00    +0.000 A 
ATOM     33  C   UNL     1      -5.974  15.473  23.953  0.00  0.00    +0.000 A 
ATOM     34  C   UNL     1      -4.681  15.985  23.995  0.00  0.00    +0.000 A 
ATOM     35 CL   UNL     1      -4.436  17.689  24.044  0.00  0.00    +0.000 Cl
ATOM     36  C   UNL     1      -3.582  15.128  23.997  0.00  0.00    +0.000 A 
ENDBRANCH  27  30
ENDBRANCH   4  24
TORSDOF 6
ENDMDL
MODEL 5
REMARK VINA RESULT:      -8.6      1.238      1.763
REMARK  Name = 
REMARK  7 active torsions:
REMARK  status: ('A' for Active; 'I' for Inactive)
REMARK    1  A    between atoms: C_1  and  C_2
REMARK    2  A    between atoms: C_2  and  C_3
REMARK    3  A    between atoms: C_3  and  C_4
REMARK    4  A    between atoms: C_4  and  O_6
REMARK    5  A    between atoms: C_11  and  C_12
REMARK    6  A    between atoms: C_15  and  N_16
REMARK    7  A    between atoms: N_19  and  C_20
REMARK                            x       y       z     vdW  Elec       q    Type
REMARK                         _______ _______ _______ _____ _____    ______ ____
ROOT
ATOM      1  C   UNL     1       0.671   9.406  20.986  0.00  0.00    +0.000 A 
ATOM      2  C   UNL     1       0.160   8.920  22.202  0.00  0.00    +0.000 A 
ATOM      3  C   UNL     1      -0.664   9.701  23.016  0.00  0.00    +0.000 A 
ATOM      4  C   UNL     1      -0.985  11.010  22.659  0.00  0.00    +0.000 A 
ATOM      5  C   UNL     1      -0.457  11.528  21.477  0.00  0.00    +0.000 A 
ATOM      6  C   UNL     1       0.364  10.737  20.657  0.00  0.00    +0.000 A 
ENDROOT
BRANCH   1  13
ATOM      7  C   UNL     1       5.250   3.950  17.222  0.00  0.00    +0.000 C 
ATOM      8  C   UNL     1       4.636   4.881  18.282  0.00  0.00    +0.000 C 
ATOM      9  C   UNL     1       3.528   4.115  19.038  0.00  0.00    +0.000 C 
ATOM     10  C   UNL     1       2.830   4.966  20.096  0.00  0.00    +0.000 C 
ATOM     11  C   UNL     1       2.509   6.355  19.610  0.00  0.00    +0.000 A 
ATOM     12  C   UNL     1       1.730   7.194  20.424  0.00  0.00    +0.000 A 
ATOM     13  C   UNL     1       1.464   8.537  20.085  0.00  0.00    +0.000 A 
ATOM     14  C   UNL     1       1.974   9.004  18.862  0.00  0.00    +0.000 A 
ATOM     15  C   UNL     1       2.725   8.177  18.023  0.00  0.00    +0.000 A 
ATOM     16  C   UNL     1       3.014   6.866  18.410  0.00  0.00    +0.000 A 
ATOM     17  C   UNL     1       3.954   6.063  17.586  0.00  0.00    +0.000 C 
ATOM     18  O   UNL     1       4.240   6.428  16.449  0.00  0.00    +0.000 OA
BRANCH   8  19
ATOM     19  C   UNL     1       5.748   5.509  19.159  0.00  0.00    +0.000 C 
BRANCH  19  20
ATOM     20  C   UNL     1       7.080   5.708  18.484  0.00  0.00    +0.000 C 
ATOM     21  O   UNL     1       7.342   6.595  17.692  0.00  0.00    +0.000 OA
BRANCH  20  22
ATOM     22  O   UNL     1       7.970   4.734  18.796  0.00  0.00    +0.000 OA
ATOM     23  H   UNL     1       8.594   4.508  18.081  0.00  0.00    +0.000 HD
ENDBRANCH  20  22
ENDBRANCH  19  20
ENDBRANCH   8  19
ENDBRANCH   1  13
BRANCH   4  24
ATOM     24  N   UNL     1      -1.862  11.814  23.414  0.00  0.00    +0.000 N 
ATOM     25  C   UNL     1      -2.970  12.467  22.911  0.00  0.00    +0.000 C 
ATOM     26  O   UNL     1      -3.457  12.278  21.802  0.00  0.00    +0.000 OA
ATOM     27  N   UNL     1      -3.456  13.404  23.816  0.00  0.00    +0.000 N 
ATOM     28  H   UNL     1      -1.820  11.732  24.419  0.00  0.00    +0.000 HD
ATOM     29  H   UNL     1      -2.727  13.888  24.322  0.00  0.00    +0.000 HD
BRANCH  27  30
ATOM     30  C   UNL     1      -4.625  14.142  23.526  0.00  0.00    +0.000 A 
ATOM     31  C   UNL     1      -5.868  13.601  23.858  0.00  0.00    +0.000 A 
ATOM     32  C   UNL     1      -7.030  14.345  23.641  0.00  0.00    +0.000 A 
ATOM     33  C   UNL     1      -6.955  15.604  23.044  0.00  0.00    +0.000 A 
ATOM     34  C   UNL     1      -5.716  16.122  22.676  0.00  0.00    +0.000 A 
ATOM     35 CL   UNL     1      -5.626  17.660  21.908  0.00  0.00    +0.000 Cl
ATOM     36  C   UNL     1      -4.549  15.402  22.923  0.00  0.00    +0.000 A 
ENDBRANCH  27  30
ENDBRANCH   4  24
TORSDOF 6
ENDMDL
MODEL 6
REMARK VINA RESULT:      -8.6      1.728      2.169
REMARK  Name = 
REMARK  7 active torsions:
REMARK  status: ('A' for Active; 'I' for Inactive)
REMARK    1  A    between atoms: C_1  and  C_2
REMARK    2  A    between atoms: C_2  and  C_3
REMARK    3  A    between atoms: C_3  and  C_4
REMARK    4  A    between atoms: C_4  and  O_6
REMARK    5  A    between atoms: C_11  and  C_12
REMARK    6  A    between atoms: C_15  and  N_16
REMARK    7  A    between atoms: N_19  and  C_20
REMARK                            x       y       z     vdW  Elec       q    Type
REMARK                         _______ _______ _______ _____ _____    ______ ____
ROOT
ATOM      1  C   UNL     1       0.687   9.466  20.689  0.00  0.00    +0.000 A 
ATOM      2  C   UNL     1       0.575   9.290  22.079  0.00  0.00    +0.000 A 
ATOM      3  C   UNL     1      -0.260  10.098  22.855  0.00  0.00    +0.000 A 
ATOM      4  C   UNL     1      -0.993  11.133  22.274  0.00  0.00    +0.000 A 
ATOM      5  C   UNL     1      -0.866  11.351  20.903  0.00  0.00    +0.000 A 
ATOM      6  C   UNL     1      -0.033  10.533  20.125  0.00  0.00    +0.000 A 
ENDROOT
BRANCH   1  13
ATOM      7  C   UNL     1       5.362   3.799  17.381  0.00  0.00    +0.000 C 
ATOM      8  C   UNL     1       4.725   4.796  18.366  0.00  0.00    +0.000 C 
ATOM      9  C   UNL     1       3.609   4.075  19.154  0.00  0.00    +0.000 C 
ATOM     10  C   UNL     1       2.889   4.992  20.140  0.00  0.00    +0.000 C 
ATOM     11  C   UNL     1       2.567   6.342  19.555  0.00  0.00    +0.000 A 
ATOM     12  C   UNL     1       1.769   7.228  20.296  0.00  0.00    +0.000 A 
ATOM     13  C   UNL     1       1.500   8.543  19.862  0.00  0.00    +0.000 A 
ATOM     14  C   UNL     1       2.027   8.929  18.619  0.00  0.00    +0.000 A 
ATOM     15  C   UNL     1       2.798   8.051  17.850  0.00  0.00    +0.000 A 
ATOM     16  C   UNL     1       3.088   6.773  18.330  0.00  0.00    +0.000 A 
ATOM     17  C   UNL     1       4.046   5.922  17.579  0.00  0.00    +0.000 C 
ATOM     18  O   UNL     1       4.349   6.210  16.425  0.00  0.00    +0.000 OA
BRANCH   8  19
ATOM     19  C   UNL     1       5.818   5.490  19.215  0.00  0.00    +0.000 C 
BRANCH  19  20
ATOM     20  C   UNL     1       7.144   5.702  18.530  0.00  0.00    +0.000 C 
ATOM     21  O   UNL     1       7.382   6.571  17.711  0.00  0.00    +0.000 OA
BRANCH  20  22
ATOM     22  O   UNL     1       8.057   4.759  18.868  0.00  0.00    +0.000 OA
ATOM     23  H   UNL     1       8.740   4.593  18.191  0.00  0.00    +0.000 HD
ENDBRANCH  20  22
ENDBRANCH  19  20
ENDBRANCH   8  19
ENDBRANCH   1  13
BRANCH   4  24
ATOM     24  N   UNL     1      -1.895  11.932  23.004  0.00  0.00    +0.000 N 
ATOM     25  C   UNL     1      -1.682  13.250  23.353  0.00  0.00    +0.000 C 
ATOM     26  O   UNL     1      -0.786  13.962  22.910  0.00  0.00    +0.000 OA
ATOM     27  N   UNL     1      -2.598  13.673  24.309  0.00  0.00    +0.000 N 
ATOM     28  H   UNL     1      -2.846  11.605  23.086  0.00  0.00    +0.000 HD
ATOM     29  H   UNL     1      -2.822  12.962  24.993  0.00  0.00    +0.000 HD
BRANCH  27  30
ATOM     30  C   UNL     1      -2.597  15.011  24.762  0.00  0.00    +0.000 A 
ATOM     31  C   UNL     1      -1.610  15.422  25.659  0.00  0.00    +0.000 A 
ATOM     32  C   UNL     1      -1.552  16.757  26.064  0.00  0.00    +0.000 A 
ATOM     33  C   UNL     1      -2.511  17.668  25.618  0.00  0.00    +0.000 A 
ATOM     34  C   UNL     1      -3.519  17.243  24.757  0.00  0.00    +0.000 A 
ATOM     35 CL   UNL     1      -4.723  18.357  24.234  0.00  0.00    +0.000 Cl
ATOM     36  C   UNL     1      -3.562  15.922  24.318  0.00  0.00    +0.000 A 
ENDBRANCH  27  30
ENDBRANCH   4  24
TORSDOF 6
ENDMDL
MODEL 7
REMARK VINA RESULT:      -8.5      1.026      1.622
REMARK  Name = 
REMARK  7 active torsions:
REMARK  status: ('A' for Active; 'I' for Inactive)
REMARK    1  A    between atoms: C_1  and  C_2
REMARK    2  A    between atoms: C_2  and  C_3
REMARK    3  A    between atoms: C_3  and  C_4
REMARK    4  A    between atoms: C_4  and  O_6
REMARK    5  A    between atoms: C_11  and  C_12
REMARK    6  A    between atoms: C_15  and  N_16
REMARK    7  A    between atoms: N_19  and  C_20
REMARK                            x       y       z     vdW  Elec       q    Type
REMARK                         _______ _______ _______ _____ _____    ______ ____
ROOT
ATOM      1  C   UNL     1       0.984   9.033  20.584  0.00  0.00    +0.000 A 
ATOM      2  C   UNL     1       1.035   8.779  21.965  0.00  0.00    +0.000 A 
ATOM      3  C   UNL     1       0.206   9.454  22.865  0.00  0.00    +0.000 A 
ATOM      4  C   UNL     1      -0.685  10.430  22.420  0.00  0.00    +0.000 A 
ATOM      5  C   UNL     1      -0.723  10.727  21.059  0.00  0.00    +0.000 A 
ATOM      6  C   UNL     1       0.105  10.042  20.156  0.00  0.00    +0.000 A 
ENDROOT
BRANCH   1  13
ATOM      7  C   UNL     1       5.577   3.869  16.441  0.00  0.00    +0.000 C 
ATOM      8  C   UNL     1       4.934   4.692  17.572  0.00  0.00    +0.000 C 
ATOM      9  C   UNL     1       3.753   3.892  18.162  0.00  0.00    +0.000 C 
ATOM     10  C   UNL     1       3.023   4.640  19.276  0.00  0.00    +0.000 C 
ATOM     11  C   UNL     1       2.786   6.090  18.948  0.00  0.00    +0.000 A 
ATOM     12  C   UNL     1       1.991   6.859  19.813  0.00  0.00    +0.000 A 
ATOM     13  C   UNL     1       1.798   8.244  19.628  0.00  0.00    +0.000 A 
ATOM     14  C   UNL     1       2.401   8.832  18.504  0.00  0.00    +0.000 A 
ATOM     15  C   UNL     1       3.171   8.079  17.614  0.00  0.00    +0.000 A 
ATOM     16  C   UNL     1       3.385   6.720  17.851  0.00  0.00    +0.000 A 
ATOM     17  C   UNL     1       4.342   5.979  16.989  0.00  0.00    +0.000 C 
ATOM     18  O   UNL     1       4.713   6.466  15.925  0.00  0.00    +0.000 OA
BRANCH   8  19
ATOM     19  C   UNL     1       6.012   5.157  18.582  0.00  0.00    +0.000 C 
BRANCH  19  20
ATOM     20  C   UNL     1       7.424   5.204  18.057  0.00  0.00    +0.000 C 
ATOM     21  O   UNL     1       8.295   4.391  18.306  0.00  0.00    +0.000 OA
BRANCH  20  22
ATOM     22  O   UNL     1       7.664   6.313  17.315  0.00  0.00    +0.000 OA
ATOM     23  H   UNL     1       8.592   6.425  17.038  0.00  0.00    +0.000 HD
ENDBRANCH  20  22
ENDBRANCH  19  20
ENDBRANCH   8  19
ENDBRANCH   1  13
BRANCH   4  24
ATOM     24  N   UNL     1      -1.584  11.091  23.281  0.00  0.00    +0.000 N 
ATOM     25  C   UNL     1      -2.478  12.069  22.892  0.00  0.00    +0.000 C 
ATOM     26  O   UNL     1      -2.756  12.351  21.732  0.00  0.00    +0.000 OA
ATOM     27  N   UNL     1      -3.010  12.731  23.993  0.00  0.00    +0.000 N 
ATOM     28  H   UNL     1      -1.752  10.677  24.186  0.00  0.00    +0.000 HD
ATOM     29  H   UNL     1      -2.339  12.876  24.736  0.00  0.00    +0.000 HD
BRANCH  27  30
ATOM     30  C   UNL     1      -3.994  13.730  23.823  0.00  0.00    +0.000 A 
ATOM     31  C   UNL     1      -5.338  13.356  23.777  0.00  0.00    +0.000 A 
ATOM     32  C   UNL     1      -6.329  14.335  23.679  0.00  0.00    +0.000 A 
ATOM     33  C   UNL     1      -5.976  15.681  23.571  0.00  0.00    +0.000 A 
ATOM     34  C   UNL     1      -4.632  16.046  23.575  0.00  0.00    +0.000 A 
ATOM     35 CL   UNL     1      -4.195  17.703  23.408  0.00  0.00    +0.000 Cl
ATOM     36  C   UNL     1      -3.639  15.079  23.711  0.00  0.00    +0.000 A 
ENDBRANCH  27  30
ENDBRANCH   4  24
TORSDOF 6
ENDMDL
MODEL 8
REMARK VINA RESULT:      -8.4      1.380      1.838
REMARK  Name = 
REMARK  7 active torsions:
REMARK  status: ('A' for Active; 'I' for Inactive)
REMARK    1  A    between atoms: C_1  and  C_2
REMARK    2  A    between atoms: C_2  and  C_3
REMARK    3  A    between atoms: C_3  and  C_4
REMARK    4  A    between atoms: C_4  and  O_6
REMARK    5  A    between atoms: C_11  and  C_12
REMARK    6  A    between atoms: C_15  and  N_16
REMARK    7  A    between atoms: N_19  and  C_20
REMARK                            x       y       z     vdW  Elec       q    Type
REMARK                         _______ _______ _______ _____ _____    ______ ____
ROOT
ATOM      1  C   UNL     1       0.805   8.900  21.017  0.00  0.00    +0.000 A 
ATOM      2  C   UNL     1       0.096   8.681  22.211  0.00  0.00    +0.000 A 
ATOM      3  C   UNL     1      -0.506   9.732  22.908  0.00  0.00    +0.000 A 
ATOM      4  C   UNL     1      -0.398  11.045  22.453  0.00  0.00    +0.000 A 
ATOM      5  C   UNL     1       0.335  11.291  21.293  0.00  0.00    +0.000 A 
ATOM      6  C   UNL     1       0.932  10.232  20.590  0.00  0.00    +0.000 A 
ENDROOT
BRANCH   1  13
ATOM      7  C   UNL     1       3.787   2.067  17.962  0.00  0.00    +0.000 C 
ATOM      8  C   UNL     1       3.415   3.219  18.912  0.00  0.00    +0.000 C 
ATOM      9  C   UNL     1       2.091   2.869  19.626  0.00  0.00    +0.000 C 
ATOM     10  C   UNL     1       1.615   3.969  20.573  0.00  0.00    +0.000 C 
ATOM     11  C   UNL     1       1.742   5.347  19.979  0.00  0.00    +0.000 A 
ATOM     12  C   UNL     1       1.199   6.438  20.676  0.00  0.00    +0.000 A 
ATOM     13  C   UNL     1       1.358   7.768  20.235  0.00  0.00    +0.000 A 
ATOM     14  C   UNL     1       2.049   7.967  19.029  0.00  0.00    +0.000 A 
ATOM     15  C   UNL     1       2.570   6.892  18.303  0.00  0.00    +0.000 A 
ATOM     16  C   UNL     1       2.441   5.591  18.791  0.00  0.00    +0.000 A 
ATOM     17  C   UNL     1       3.148   4.486  18.094  0.00  0.00    +0.000 C 
ATOM     18  O   UNL     1       3.591   4.659  16.962  0.00  0.00    +0.000 OA
BRANCH   8  19
ATOM     19  C   UNL     1       4.611   3.569  19.831  0.00  0.00    +0.000 C 
BRANCH  19  20
ATOM     20  C   UNL     1       5.640   4.499  19.241  0.00  0.00    +0.000 C 
ATOM     21  O   UNL     1       5.819   5.655  19.578  0.00  0.00    +0.000 OA
BRANCH  20  22
ATOM     22  O   UNL     1       6.323   3.933  18.216  0.00  0.00    +0.000 OA
ATOM     23  H   UNL     1       5.954   4.116  17.332  0.00  0.00    +0.000 HD
ENDBRANCH  20  22
ENDBRANCH  19  20
ENDBRANCH   8  19
ENDBRANCH   1  13
BRANCH   4  24
ATOM     24  N   UNL     1      -1.040  12.127  23.087  0.00  0.00    +0.000 N 
ATOM     25  C   UNL     1      -2.280  12.627  22.738  0.00  0.00    +0.000 C 
ATOM     26  O   UNL     1      -3.072  12.081  21.978  0.00  0.00    +0.000 OA
ATOM     27  N   UNL     1      -2.511  13.861  23.336  0.00  0.00    +0.000 N 
ATOM     28  H   UNL     1      -0.689  12.415  23.988  0.00  0.00    +0.000 HD
ATOM     29  H   UNL     1      -1.687  14.445  23.383  0.00  0.00    +0.000 HD
BRANCH  27  30
ATOM     30  C   UNL     1      -3.747  14.521  23.161  0.00  0.00    +0.000 A 
ATOM     31  C   UNL     1      -3.798  15.666  22.364  0.00  0.00    +0.000 A 
ATOM     32  C   UNL     1      -5.022  16.293  22.124  0.00  0.00    +0.000 A 
ATOM     33  C   UNL     1      -6.186  15.810  22.724  0.00  0.00    +0.000 A 
ATOM     34  C   UNL     1      -6.124  14.693  23.553  0.00  0.00    +0.000 A 
ATOM     35 CL   UNL     1      -7.554  14.117  24.320  0.00  0.00    +0.000 Cl
ATOM     36  C   UNL     1      -4.913  14.039  23.766  0.00  0.00    +0.000 A 
ENDBRANCH  27  30
ENDBRANCH   4  24
TORSDOF 6
ENDMDL
MODEL 9
REMARK VINA RESULT:      -8.3      1.245      1.558
REMARK  Name = 
REMARK  7 active torsions:
REMARK  status: ('A' for Active; 'I' for Inactive)
REMARK    1  A    between atoms: C_1  and  C_2
REMARK    2  A    between atoms: C_2  and  C_3
REMARK    3  A    between atoms: C_3  and  C_4
REMARK    4  A    between atoms: C_4  and  O_6
REMARK    5  A    between atoms: C_11  and  C_12
REMARK    6  A    between atoms: C_15  and  N_16
REMARK    7  A    between atoms: N_19  and  C_20
REMARK                            x       y       z     vdW  Elec       q    Type
REMARK                         _______ _______ _______ _____ _____    ______ ____
ROOT
ATOM      1  C   UNL     1       1.025   8.979  20.261  0.00  0.00    +0.000 A 
ATOM      2  C   UNL     1       0.486  10.219  19.879  0.00  0.00    +0.000 A 
ATOM      3  C   UNL     1      -0.288  10.983  20.756  0.00  0.00    +0.000 A 
ATOM      4  C   UNL     1      -0.577  10.522  22.040  0.00  0.00    +0.000 A 
ATOM      5  C   UNL     1      -0.086   9.275  22.427  0.00  0.00    +0.000 A 
ATOM      6  C   UNL     1       0.698   8.514  21.546  0.00  0.00    +0.000 A 
ENDROOT
BRANCH   1  13
ATOM      7  C   UNL     1       6.376   4.274  16.500  0.00  0.00    +0.000 C 
ATOM      8  C   UNL     1       5.649   5.136  17.548  0.00  0.00    +0.000 C 
ATOM      9  C   UNL     1       4.755   4.221  18.413  0.00  0.00    +0.000 C 
ATOM     10  C   UNL     1       3.961   4.989  19.468  0.00  0.00    +0.000 C 
ATOM     11  C   UNL     1       3.349   6.256  18.931  0.00  0.00    +0.000 A 
ATOM     12  C   UNL     1       2.465   6.979  19.748  0.00  0.00    +0.000 A 
ATOM     13  C   UNL     1       1.924   8.222  19.357  0.00  0.00    +0.000 A 
ATOM     14  C   UNL     1       2.267   8.699  18.081  0.00  0.00    +0.000 A 
ATOM     15  C   UNL     1       3.119   7.979  17.240  0.00  0.00    +0.000 A 
ATOM     16  C   UNL     1       3.679   6.776  17.675  0.00  0.00    +0.000 A 
ATOM     17  C   UNL     1       4.712   6.117  16.836  0.00  0.00    +0.000 C 
ATOM     18  O   UNL     1       4.860   6.456  15.665  0.00  0.00    +0.000 OA
BRANCH   8  19
ATOM     19  C   UNL     1       6.662   6.020  18.316  0.00  0.00    +0.000 C 
BRANCH  19  20
ATOM     20  C   UNL     1       7.337   7.097  17.507  0.00  0.00    +0.000 C 
ATOM     21  O   UNL     1       7.398   8.274  17.813  0.00  0.00    +0.000 OA
BRANCH  20  22
ATOM     22  O   UNL     1       7.827   6.631  16.331  0.00  0.00    +0.000 OA
ATOM     23  H   UNL     1       7.788   5.662  16.231  0.00  0.00    +0.000 HD
ENDBRANCH  20  22
ENDBRANCH  19  20
ENDBRANCH   8  19
ENDBRANCH   1  13
BRANCH   4  24
ATOM     24  N   UNL     1      -1.298  11.284  22.980  0.00  0.00    +0.000 N 
ATOM     25  C   UNL     1      -2.313  12.169  22.672  0.00  0.00    +0.000 C 
ATOM     26  O   UNL     1      -2.860  12.262  21.578  0.00  0.00    +0.000 OA
ATOM     27  N   UNL     1      -2.623  12.978  23.758  0.00  0.00    +0.000 N 
ATOM     28  H   UNL     1      -1.235  11.010  23.949  0.00  0.00    +0.000 HD
ATOM     29  H   UNL     1      -1.814  13.251  24.299  0.00  0.00    +0.000 HD
BRANCH  27  30
ATOM     30  C   UNL     1      -3.678  13.913  23.678  0.00  0.00    +0.000 A 
ATOM     31  C   UNL     1      -4.992  13.469  23.830  0.00  0.00    +0.000 A 
ATOM     32  C   UNL     1      -6.043  14.388  23.822  0.00  0.00    +0.000 A 
ATOM     33  C   UNL     1      -5.787  15.744  23.608  0.00  0.00    +0.000 A 
ATOM     34  C   UNL     1      -4.478  16.177  23.415  0.00  0.00    +0.000 A 
ATOM     35 CL   UNL     1      -4.164  17.844  23.118  0.00  0.00    +0.000 Cl
ATOM     36  C   UNL     1      -3.421  15.271  23.460  0.00  0.00    +0.000 A 
ENDBRANCH  27  30
ENDBRANCH   4  24
TORSDOF 6
ENDMDL
