MODEL 1
REMARK VINA RESULT:      -7.8      0.000      0.000
REMARK  Name = 
REMARK  6 active torsions:
REMARK  status: ('A' for Active; 'I' for Inactive)
REMARK    1  A    between atoms: C_1  and  O_2
REMARK    2  A    between atoms: O_2  and  C_3
REMARK    3  A    between atoms: C_3  and  C_4
REMARK    4  A    between atoms: C_6  and  C_7
REMARK    5  A    between atoms: N_9  and  C_10
REMARK    6  A    between atoms: N_14  and  C_15
REMARK                            x       y       z     vdW  Elec       q    Type
REMARK                         _______ _______ _______ _____ _____    ______ ____
ROOT
ATOM      1  C   UNL     1       2.278   6.263  20.298  0.00  0.00    +0.000 C 
ATOM      2  C   UNL     1       1.364   5.023  20.385  0.00  0.00    +0.000 C 
ATOM      3  C   UNL     1       1.950   3.788  19.715  0.00  0.00    +0.000 C 
ATOM      4  C   UNL     1       2.317   4.106  18.275  0.00  0.00    +0.000 C 
ATOM      5  N   UNL     1       3.286   5.202  18.278  0.00  0.00    +0.000 N 
ATOM      6  C   UNL     1       2.789   6.484  18.839  0.00  0.00    +0.000 C 
ENDROOT
BRANCH   5   7
ATOM      7  C   UNL     1       4.569   5.009  17.794  0.00  0.00    +0.000 A 
ATOM      8  C   UNL     1       4.813   4.476  16.517  0.00  0.00    +0.000 A 
ATOM      9  C   UNL     1       6.115   4.240  16.045  0.00  0.00    +0.000 A 
ATOM     10  C   UNL     1       7.216   4.542  16.839  0.00  0.00    +0.000 A 
ATOM     11  C   UNL     1       6.998   5.078  18.097  0.00  0.00    +0.000 A 
ATOM     12  F   UNL     1       8.046   5.380  18.876  0.00  0.00    +0.000 F 
ATOM     13  C   UNL     1       5.704   5.308  18.567  0.00  0.00    +0.000 A 
ENDBRANCH   5   7
BRANCH   1  16
ATOM     14  C   UNL     1       1.222   8.600  20.470  0.00  0.00    +0.000 C 
ATOM     15  O   UNL     1       1.419   8.978  19.322  0.00  0.00    +0.000 OA
ATOM     16  N   UNL     1       1.529   7.352  20.946  0.00  0.00    +0.000 N 
ATOM     17  H   UNL     1       1.399   7.273  21.951  0.00  0.00    +0.000 HD
BRANCH  14  20
ATOM     18  C   UNL     1      -0.523  11.008  22.433  0.00  0.00    +0.000 A 
ATOM     19  N   UNL     1      -0.163  10.567  21.238  0.00  0.00    +0.000 NA
ATOM     20  C   UNL     1       0.606   9.435  21.507  0.00  0.00    +0.000 A 
ATOM     21  C   UNL     1       0.660   9.249  22.869  0.00  0.00    +0.000 A 
ATOM     22  O   UNL     1      -0.066  10.235  23.471  0.00  0.00    +0.000 OA
BRANCH  18  23
ATOM     23  C   UNL     1      -1.425  12.148  22.786  0.00  0.00    +0.000 C 
BRANCH  23  25
ATOM     24  C   UNL     1      -3.467  12.695  23.832  0.00  0.00    +0.000 C 
ATOM     25  O   UNL     1      -2.624  11.640  23.383  0.00  0.00    +0.000 OA
ENDBRANCH  23  25
ENDBRANCH  18  23
ENDBRANCH  14  20
ENDBRANCH   1  16
TORSDOF 5
ENDMDL
MODEL 2
REMARK VINA RESULT:      -7.7      4.163      8.859
REMARK  Name = 
REMARK  6 active torsions:
REMARK  status: ('A' for Active; 'I' for Inactive)
REMARK    1  A    between atoms: C_1  and  O_2
REMARK    2  A    between atoms: O_2  and  C_3
REMARK    3  A    between atoms: C_3  and  C_4
REMARK    4  A    between atoms: C_6  and  C_7
REMARK    5  A    between atoms: N_9  and  C_10
REMARK    6  A    between atoms: N_14  and  C_15
REMARK                            x       y       z     vdW  Elec       q    Type
REMARK                         _______ _______ _______ _____ _____    ______ ____
ROOT
ATOM      1  C   UNL     1       1.534   7.769  19.733  0.00  0.00    +0.000 C 
ATOM      2  C   UNL     1       1.665   8.074  21.240  0.00  0.00    +0.000 C 
ATOM      3  C   UNL     1       0.626   9.061  21.752  0.00  0.00    +0.000 C 
ATOM      4  C   UNL     1       0.669  10.334  20.924  0.00  0.00    +0.000 C 
ATOM      5  N   UNL     1       0.406   9.984  19.528  0.00  0.00    +0.000 N 
ATOM      6  C   UNL     1       1.407   9.085  18.902  0.00  0.00    +0.000 C 
ENDROOT
BRANCH   5   7
ATOM      7  C   UNL     1      -0.718  10.469  18.881  0.00  0.00    +0.000 A 
ATOM      8  C   UNL     1      -1.544  11.452  19.453  0.00  0.00    +0.000 A 
ATOM      9  C   UNL     1      -2.707  11.912  18.814  0.00  0.00    +0.000 A 
ATOM     10  C   UNL     1      -3.074  11.404  17.572  0.00  0.00    +0.000 A 
ATOM     11  C   UNL     1      -2.268  10.443  16.985  0.00  0.00    +0.000 A 
ATOM     12  F   UNL     1      -2.602   9.945  15.787  0.00  0.00    +0.000 F 
ATOM     13  C   UNL     1      -1.115   9.983  17.623  0.00  0.00    +0.000 A 
ENDBRANCH   5   7
BRANCH   1  16
ATOM     14  C   UNL     1       2.772   5.516  19.704  0.00  0.00    +0.000 C 
ATOM     15  O   UNL     1       1.887   4.813  20.175  0.00  0.00    +0.000 OA
ATOM     16  N   UNL     1       2.640   6.851  19.418  0.00  0.00    +0.000 N 
ATOM     17  H   UNL     1       3.520   7.282  19.147  0.00  0.00    +0.000 HD
BRANCH  14  20
ATOM     18  C   UNL     1       6.151   4.997  18.700  0.00  0.00    +0.000 A 
ATOM     19  N   UNL     1       5.133   5.827  18.863  0.00  0.00    +0.000 NA
ATOM     20  C   UNL     1       4.109   5.021  19.361  0.00  0.00    +0.000 A 
ATOM     21  C   UNL     1       4.577   3.732  19.479  0.00  0.00    +0.000 A 
ATOM     22  O   UNL     1       5.881   3.705  19.076  0.00  0.00    +0.000 OA
BRANCH  18  23
ATOM     23  C   UNL     1       7.552   5.296  18.270  0.00  0.00    +0.000 C 
BRANCH  23  25
ATOM     24  C   UNL     1       7.103   4.629  16.053  0.00  0.00    +0.000 C 
ATOM     25  O   UNL     1       7.920   4.419  17.199  0.00  0.00    +0.000 OA
ENDBRANCH  23  25
ENDBRANCH  18  23
ENDBRANCH  14  20
ENDBRANCH   1  16
TORSDOF 5
ENDMDL
MODEL 3
REMARK VINA RESULT:      -7.7      1.165      1.432
REMARK  Name = 
REMARK  6 active torsions:
REMARK  status: ('A' for Active; 'I' for Inactive)
REMARK    1  A    between atoms: C_1  and  O_2
REMARK    2  A    between atoms: O_2  and  C_3
REMARK    3  A    between atoms: C_3  and  C_4
REMARK    4  A    between atoms: C_6  and  C_7
REMARK    5  A    between atoms: N_9  and  C_10
REMARK    6  A    between atoms: N_14  and  C_15
REMARK                            x       y       z     vdW  Elec       q    Type
REMARK                         _______ _______ _______ _____ _____    ______ ____
ROOT
ATOM      1  C   UNL     1       2.264   6.587  20.178  0.00  0.00    +0.000 C 
ATOM      2  C   UNL     1       1.511   5.266  20.440  0.00  0.00    +0.000 C 
ATOM      3  C   UNL     1       2.136   4.062  19.751  0.00  0.00    +0.000 C 
ATOM      4  C   UNL     1       2.276   4.333  18.262  0.00  0.00    +0.000 C 
ATOM      5  N   UNL     1       3.111   5.521  18.087  0.00  0.00    +0.000 N 
ATOM      6  C   UNL     1       2.554   6.775  18.654  0.00  0.00    +0.000 C 
ENDROOT
BRANCH   5   7
ATOM      7  C   UNL     1       4.334   5.434  17.443  0.00  0.00    +0.000 A 
ATOM      8  C   UNL     1       5.301   6.449  17.534  0.00  0.00    +0.000 A 
ATOM      9  C   UNL     1       6.523   6.379  16.845  0.00  0.00    +0.000 A 
ATOM     10  C   UNL     1       6.818   5.276  16.050  0.00  0.00    +0.000 A 
ATOM     11  C   UNL     1       5.884   4.259  15.955  0.00  0.00    +0.000 A 
ATOM     12  F   UNL     1       6.151   3.187  15.196  0.00  0.00    +0.000 F 
ATOM     13  C   UNL     1       4.668   4.332  16.636  0.00  0.00    +0.000 A 
ENDBRANCH   5   7
BRANCH   1  16
ATOM     14  C   UNL     1       1.077   8.853  20.420  0.00  0.00    +0.000 C 
ATOM     15  O   UNL     1       1.179   9.241  19.263  0.00  0.00    +0.000 OA
ATOM     16  N   UNL     1       1.491   7.627  20.873  0.00  0.00    +0.000 N 
ATOM     17  H   UNL     1       1.429   7.542  21.884  0.00  0.00    +0.000 HD
BRANCH  14  20
ATOM     18  C   UNL     1      -0.574  11.230  22.500  0.00  0.00    +0.000 A 
ATOM     19  N   UNL     1      -0.191  10.857  21.288  0.00  0.00    +0.000 NA
ATOM     20  C   UNL     1       0.476   9.651  21.495  0.00  0.00    +0.000 A 
ATOM     21  C   UNL     1       0.451   9.354  22.839  0.00  0.00    +0.000 A 
ATOM     22  O   UNL     1      -0.228  10.343  23.489  0.00  0.00    +0.000 OA
BRANCH  18  23
ATOM     23  C   UNL     1      -1.405  12.406  22.907  0.00  0.00    +0.000 C 
BRANCH  23  25
ATOM     24  C   UNL     1      -3.747  12.611  22.729  0.00  0.00    +0.000 C 
ATOM     25  O   UNL     1      -2.673  11.949  23.389  0.00  0.00    +0.000 OA
ENDBRANCH  23  25
ENDBRANCH  18  23
ENDBRANCH  14  20
ENDBRANCH   1  16
TORSDOF 5
ENDMDL
MODEL 4
REMARK VINA RESULT:      -7.6      4.163      9.068
REMARK  Name = 
REMARK  6 active torsions:
REMARK  status: ('A' for Active; 'I' for Inactive)
REMARK    1  A    between atoms: C_1  and  O_2
REMARK    2  A    between atoms: O_2  and  C_3
REMARK    3  A    between atoms: C_3  and  C_4
REMARK    4  A    between atoms: C_6  and  C_7
REMARK    5  A    between atoms: N_9  and  C_10
REMARK    6  A    between atoms: N_14  and  C_15
REMARK                            x       y       z     vdW  Elec       q    Type
REMARK                         _______ _______ _______ _____ _____    ______ ____
ROOT
ATOM      1  C   UNL     1       1.648   7.837  19.289  0.00  0.00    +0.000 C 
ATOM      2  C   UNL     1       1.726   7.929  20.828  0.00  0.00    +0.000 C 
ATOM      3  C   UNL     1       0.602   8.748  21.446  0.00  0.00    +0.000 C 
ATOM      4  C   UNL     1       0.557  10.127  20.811  0.00  0.00    +0.000 C 
ATOM      5  N   UNL     1       0.349   9.965  19.372  0.00  0.00    +0.000 N 
ATOM      6  C   UNL     1       1.431   9.247  18.653  0.00  0.00    +0.000 C 
ENDROOT
BRANCH   5   7
ATOM      7  C   UNL     1      -0.798  10.451  18.768  0.00  0.00    +0.000 A 
ATOM      8  C   UNL     1      -1.616  11.414  19.384  0.00  0.00    +0.000 A 
ATOM      9  C   UNL     1      -2.803  11.875  18.789  0.00  0.00    +0.000 A 
ATOM     10  C   UNL     1      -3.201  11.388  17.548  0.00  0.00    +0.000 A 
ATOM     11  C   UNL     1      -2.405  10.446  16.919  0.00  0.00    +0.000 A 
ATOM     12  F   UNL     1      -2.769   9.968  15.721  0.00  0.00    +0.000 F 
ATOM     13  C   UNL     1      -1.229   9.986  17.513  0.00  0.00    +0.000 A 
ENDBRANCH   5   7
BRANCH   1  16
ATOM     14  C   UNL     1       2.900   5.807  18.333  0.00  0.00    +0.000 C 
ATOM     15  O   UNL     1       1.936   5.152  17.960  0.00  0.00    +0.000 OA
ATOM     16  N   UNL     1       2.829   7.062  18.879  0.00  0.00    +0.000 N 
ATOM     17  H   UNL     1       3.725   7.386  19.233  0.00  0.00    +0.000 HD
BRANCH  14  20
ATOM     18  C   UNL     1       6.174   4.767  17.383  0.00  0.00    +0.000 A 
ATOM     19  N   UNL     1       4.973   5.195  17.026  0.00  0.00    +0.000 NA
ATOM     20  C   UNL     1       4.288   5.341  18.232  0.00  0.00    +0.000 A 
ATOM     21  C   UNL     1       5.129   4.995  19.265  0.00  0.00    +0.000 A 
ATOM     22  O   UNL     1       6.338   4.642  18.740  0.00  0.00    +0.000 OA
BRANCH  18  23
ATOM     23  C   UNL     1       7.376   4.510  16.531  0.00  0.00    +0.000 C 
BRANCH  23  25
ATOM     24  C   UNL     1       7.009   4.829  14.223  0.00  0.00    +0.000 C 
ATOM     25  O   UNL     1       7.400   5.445  15.446  0.00  0.00    +0.000 OA
ENDBRANCH  23  25
ENDBRANCH  18  23
ENDBRANCH  14  20
ENDBRANCH   1  16
TORSDOF 5
ENDMDL
MODEL 5
REMARK VINA RESULT:      -7.6      4.366      8.949
REMARK  Name = 
REMARK  6 active torsions:
REMARK  status: ('A' for Active; 'I' for Inactive)
REMARK    1  A    between atoms: C_1  and  O_2
REMARK    2  A    between atoms: O_2  and  C_3
REMARK    3  A    between atoms: C_3  and  C_4
REMARK    4  A    between atoms: C_6  and  C_7
REMARK    5  A    between atoms: N_9  and  C_10
REMARK    6  A    between atoms: N_14  and  C_15
REMARK                            x       y       z     vdW  Elec       q    Type
REMARK                         _______ _______ _______ _____ _____    ______ ____
ROOT
ATOM      1  C   UNL     1       1.554   7.779  19.758  0.00  0.00    +0.000 C 
ATOM      2  C   UNL     1       1.725   8.093  21.259  0.00  0.00    +0.000 C 
ATOM      3  C   UNL     1       0.687   9.067  21.798  0.00  0.00    +0.000 C 
ATOM      4  C   UNL     1       0.686  10.336  20.963  0.00  0.00    +0.000 C 
ATOM      5  N   UNL     1       0.388   9.976  19.577  0.00  0.00    +0.000 N 
ATOM      6  C   UNL     1       1.384   9.089  18.925  0.00  0.00    +0.000 C 
ENDROOT
BRANCH   5   7
ATOM      7  C   UNL     1      -0.761  10.442  18.961  0.00  0.00    +0.000 A 
ATOM      8  C   UNL     1      -1.124  10.049  17.661  0.00  0.00    +0.000 A 
ATOM      9  C   UNL     1      -2.268  10.555  17.021  0.00  0.00    +0.000 A 
ATOM     10  C   UNL     1      -3.091  11.468  17.673  0.00  0.00    +0.000 A 
ATOM     11  C   UNL     1      -2.758  11.861  18.958  0.00  0.00    +0.000 A 
ATOM     12  F   UNL     1      -3.540  12.736  19.604  0.00  0.00    +0.000 F 
ATOM     13  C   UNL     1      -1.619  11.360  19.591  0.00  0.00    +0.000 A 
ENDBRANCH   5   7
BRANCH   1  16
ATOM     14  C   UNL     1       2.742   5.511  19.526  0.00  0.00    +0.000 C 
ATOM     15  O   UNL     1       1.805   4.780  19.820  0.00  0.00    +0.000 OA
ATOM     16  N   UNL     1       2.664   6.875  19.415  0.00  0.00    +0.000 N 
ATOM     17  H   UNL     1       3.573   7.310  19.280  0.00  0.00    +0.000 HD
BRANCH  14  20
ATOM     18  C   UNL     1       6.139   4.994  18.581  0.00  0.00    +0.000 A 
ATOM     19  N   UNL     1       5.098   5.808  18.667  0.00  0.00    +0.000 NA
ATOM     20  C   UNL     1       4.094   5.023  19.232  0.00  0.00    +0.000 A 
ATOM     21  C   UNL     1       4.595   3.763  19.466  0.00  0.00    +0.000 A 
ATOM     22  O   UNL     1       5.901   3.734  19.070  0.00  0.00    +0.000 OA
BRANCH  18  23
ATOM     23  C   UNL     1       7.534   5.291  18.130  0.00  0.00    +0.000 C 
BRANCH  23  25
ATOM     24  C   UNL     1       7.091   4.622  15.912  0.00  0.00    +0.000 C 
ATOM     25  O   UNL     1       7.891   4.399  17.068  0.00  0.00    +0.000 OA
ENDBRANCH  23  25
ENDBRANCH  18  23
ENDBRANCH  14  20
ENDBRANCH   1  16
TORSDOF 5
ENDMDL
MODEL 6
REMARK VINA RESULT:      -7.5      2.502      3.052
REMARK  Name = 
REMARK  6 active torsions:
REMARK  status: ('A' for Active; 'I' for Inactive)
REMARK    1  A    between atoms: C_1  and  O_2
REMARK    2  A    between atoms: O_2  and  C_3
REMARK    3  A    between atoms: C_3  and  C_4
REMARK    4  A    between atoms: C_6  and  C_7
REMARK    5  A    between atoms: N_9  and  C_10
REMARK    6  A    between atoms: N_14  and  C_15
REMARK                            x       y       z     vdW  Elec       q    Type
REMARK                         _______ _______ _______ _____ _____    ______ ____
ROOT
ATOM      1  C   UNL     1       2.362   7.197  19.679  0.00  0.00    +0.000 C 
ATOM      2  C   UNL     1       1.670   6.112  20.530  0.00  0.00    +0.000 C 
ATOM      3  C   UNL     1       2.431   4.794  20.572  0.00  0.00    +0.000 C 
ATOM      4  C   UNL     1       2.697   4.304  19.159  0.00  0.00    +0.000 C 
ATOM      5  N   UNL     1       3.470   5.327  18.455  0.00  0.00    +0.000 N 
ATOM      6  C   UNL     1       2.786   6.633  18.285  0.00  0.00    +0.000 C 
ENDROOT
BRANCH   5   7
ATOM      7  C   UNL     1       4.752   5.056  18.008  0.00  0.00    +0.000 A 
ATOM      8  C   UNL     1       5.890   5.348  18.778  0.00  0.00    +0.000 A 
ATOM      9  C   UNL     1       7.192   5.112  18.305  0.00  0.00    +0.000 A 
ATOM     10  C   UNL     1       7.391   4.563  17.043  0.00  0.00    +0.000 A 
ATOM     11  C   UNL     1       6.283   4.257  16.271  0.00  0.00    +0.000 A 
ATOM     12  F   UNL     1       6.455   3.724  15.053  0.00  0.00    +0.000 F 
ATOM     13  C   UNL     1       4.991   4.496  16.740  0.00  0.00    +0.000 A 
ENDBRANCH   5   7
BRANCH   1  16
ATOM     14  C   UNL     1       1.035   9.097  20.790  0.00  0.00    +0.000 C 
ATOM     15  O   UNL     1       1.459   8.976  21.932  0.00  0.00    +0.000 OA
ATOM     16  N   UNL     1       1.464   8.361  19.716  0.00  0.00    +0.000 N 
ATOM     17  H   UNL     1       0.907   8.527  18.881  0.00  0.00    +0.000 HD
BRANCH  14  20
ATOM     18  C   UNL     1      -1.457  11.105  19.225  0.00  0.00    +0.000 A 
ATOM     19  N   UNL     1      -0.605  10.095  19.150  0.00  0.00    +0.000 NA
ATOM     20  C   UNL     1       0.008  10.070  20.402  0.00  0.00    +0.000 A 
ATOM     21  C   UNL     1      -0.522  11.076  21.177  0.00  0.00    +0.000 A 
ATOM     22  O   UNL     1      -1.468  11.734  20.445  0.00  0.00    +0.000 OA
BRANCH  18  23
ATOM     23  C   UNL     1      -2.459  11.572  18.217  0.00  0.00    +0.000 C 
BRANCH  23  25
ATOM     24  C   UNL     1      -2.719  10.902  15.970  0.00  0.00    +0.000 C 
ATOM     25  O   UNL     1      -2.783  10.493  17.332  0.00  0.00    +0.000 OA
ENDBRANCH  23  25
ENDBRANCH  18  23
ENDBRANCH  14  20
ENDBRANCH   1  16
TORSDOF 5
ENDMDL
MODEL 7
REMARK VINA RESULT:      -7.4      4.367      9.258
REMARK  Name = 
REMARK  6 active torsions:
REMARK  status: ('A' for Active; 'I' for Inactive)
REMARK    1  A    between atoms: C_1  and  O_2
REMARK    2  A    between atoms: O_2  and  C_3
REMARK    3  A    between atoms: C_3  and  C_4
REMARK    4  A    between atoms: C_6  and  C_7
REMARK    5  A    between atoms: N_9  and  C_10
REMARK    6  A    between atoms: N_14  and  C_15
REMARK                            x       y       z     vdW  Elec       q    Type
REMARK                         _______ _______ _______ _____ _____    ______ ____
ROOT
ATOM      1  C   UNL     1       2.866   5.619  18.008  0.00  0.00    +0.000 C 
ATOM      2  C   UNL     1       2.360   4.301  18.632  0.00  0.00    +0.000 C 
ATOM      3  C   UNL     1       1.306   4.504  19.711  0.00  0.00    +0.000 C 
ATOM      4  C   UNL     1       1.830   5.454  20.774  0.00  0.00    +0.000 C 
ATOM      5  N   UNL     1       2.165   6.725  20.132  0.00  0.00    +0.000 N 
ATOM      6  C   UNL     1       3.244   6.655  19.115  0.00  0.00    +0.000 C 
ENDROOT
BRANCH   5   7
ATOM      7  C   UNL     1       1.488   7.884  20.470  0.00  0.00    +0.000 A 
ATOM      8  C   UNL     1       1.323   8.945  19.564  0.00  0.00    +0.000 A 
ATOM      9  C   UNL     1       0.673  10.138  19.922  0.00  0.00    +0.000 A 
ATOM     10  C   UNL     1       0.157  10.299  21.204  0.00  0.00    +0.000 A 
ATOM     11  C   UNL     1       0.299   9.261  22.110  0.00  0.00    +0.000 A 
ATOM     12  F   UNL     1      -0.194   9.396  23.349  0.00  0.00    +0.000 F 
ATOM     13  C   UNL     1       0.949   8.079  21.754  0.00  0.00    +0.000 A 
ENDBRANCH   5   7
BRANCH   1  16
ATOM     14  C   UNL     1       5.152   4.713  17.262  0.00  0.00    +0.000 C 
ATOM     15  O   UNL     1       5.578   4.361  18.355  0.00  0.00    +0.000 OA
ATOM     16  N   UNL     1       3.901   5.226  17.039  0.00  0.00    +0.000 N 
ATOM     17  H   UNL     1       3.781   5.569  16.089  0.00  0.00    +0.000 HD
BRANCH  14  20
ATOM     18  C   UNL     1       6.457   4.137  13.997  0.00  0.00    +0.000 A 
ATOM     19  N   UNL     1       5.470   3.984  14.865  0.00  0.00    +0.000 NA
ATOM     20  C   UNL     1       5.926   4.620  16.019  0.00  0.00    +0.000 A 
ATOM     21  C   UNL     1       7.179   5.136  15.776  0.00  0.00    +0.000 A 
ATOM     22  O   UNL     1       7.524   4.849  14.487  0.00  0.00    +0.000 OA
BRANCH  18  23
ATOM     23  C   UNL     1       6.517   3.738  12.556  0.00  0.00    +0.000 C 
BRANCH  23  25
ATOM     24  C   UNL     1       4.492   3.275  11.442  0.00  0.00    +0.000 C 
ATOM     25  O   UNL     1       5.509   2.756  12.292  0.00  0.00    +0.000 OA
ENDBRANCH  23  25
ENDBRANCH  18  23
ENDBRANCH  14  20
ENDBRANCH   1  16
TORSDOF 5
ENDMDL
MODEL 8
REMARK VINA RESULT:      -7.4      2.180      2.611
REMARK  Name = 
REMARK  6 active torsions:
REMARK  status: ('A' for Active; 'I' for Inactive)
REMARK    1  A    between atoms: C_1  and  O_2
REMARK    2  A    between atoms: O_2  and  C_3
REMARK    3  A    between atoms: C_3  and  C_4
REMARK    4  A    between atoms: C_6  and  C_7
REMARK    5  A    between atoms: N_9  and  C_10
REMARK    6  A    between atoms: N_14  and  C_15
REMARK                            x       y       z     vdW  Elec       q    Type
REMARK                         _______ _______ _______ _____ _____    ______ ____
ROOT
ATOM      1  C   UNL     1       2.342   7.219  19.743  0.00  0.00    +0.000 C 
ATOM      2  C   UNL     1       1.626   6.085  20.506  0.00  0.00    +0.000 C 
ATOM      3  C   UNL     1       2.374   4.760  20.469  0.00  0.00    +0.000 C 
ATOM      4  C   UNL     1       2.657   4.366  19.029  0.00  0.00    +0.000 C 
ATOM      5  N   UNL     1       3.451   5.426  18.409  0.00  0.00    +0.000 N 
ATOM      6  C   UNL     1       2.781   6.748  18.320  0.00  0.00    +0.000 C 
ENDROOT
BRANCH   5   7
ATOM      7  C   UNL     1       4.737   5.173  17.963  0.00  0.00    +0.000 A 
ATOM      8  C   UNL     1       4.992   4.592  16.709  0.00  0.00    +0.000 A 
ATOM      9  C   UNL     1       6.295   4.296  16.276  0.00  0.00    +0.000 A 
ATOM     10  C   UNL     1       7.387   4.585  17.087  0.00  0.00    +0.000 A 
ATOM     11  C   UNL     1       7.160   5.167  18.323  0.00  0.00    +0.000 A 
ATOM     12  F   UNL     1       8.199   5.456  19.117  0.00  0.00    +0.000 F 
ATOM     13  C   UNL     1       5.864   5.456  18.754  0.00  0.00    +0.000 A 
ENDBRANCH   5   7
BRANCH   1  16
ATOM     14  C   UNL     1       1.081   9.101  20.955  0.00  0.00    +0.000 C 
ATOM     15  O   UNL     1       1.555   8.952  22.074  0.00  0.00    +0.000 OA
ATOM     16  N   UNL     1       1.454   8.387  19.846  0.00  0.00    +0.000 N 
ATOM     17  H   UNL     1       0.861   8.574  19.042  0.00  0.00    +0.000 HD
BRANCH  14  20
ATOM     18  C   UNL     1      -1.402  11.219  19.523  0.00  0.00    +0.000 A 
ATOM     19  N   UNL     1      -0.519  10.244  19.370  0.00  0.00    +0.000 NA
ATOM     20  C   UNL     1       0.043  10.088  20.637  0.00  0.00    +0.000 A 
ATOM     21  C   UNL     1      -0.547  10.986  21.497  0.00  0.00    +0.000 A 
ATOM     22  O   UNL     1      -1.479  11.702  20.805  0.00  0.00    +0.000 OA
BRANCH  18  23
ATOM     23  C   UNL     1      -2.374  11.775  18.532  0.00  0.00    +0.000 C 
BRANCH  23  25
ATOM     24  C   UNL     1      -2.917  10.562  16.583  0.00  0.00    +0.000 C 
ATOM     25  O   UNL     1      -1.964  11.416  17.208  0.00  0.00    +0.000 OA
ENDBRANCH  23  25
ENDBRANCH  18  23
ENDBRANCH  14  20
ENDBRANCH   1  16
TORSDOF 5
ENDMDL
MODEL 9
REMARK VINA RESULT:      -7.3      1.656      2.030
REMARK  Name = 
REMARK  6 active torsions:
REMARK  status: ('A' for Active; 'I' for Inactive)
REMARK    1  A    between atoms: C_1  and  O_2
REMARK    2  A    between atoms: O_2  and  C_3
REMARK    3  A    between atoms: C_3  and  C_4
REMARK    4  A    between atoms: C_6  and  C_7
REMARK    5  A    between atoms: N_9  and  C_10
REMARK    6  A    between atoms: N_14  and  C_15
REMARK                            x       y       z     vdW  Elec       q    Type
REMARK                         _______ _______ _______ _____ _____    ______ ____
ROOT
ATOM      1  C   UNL     1       2.458   6.921  19.713  0.00  0.00    +0.000 C 
ATOM      2  C   UNL     1       1.828   5.789  20.552  0.00  0.00    +0.000 C 
ATOM      3  C   UNL     1       2.581   4.470  20.455  0.00  0.00    +0.000 C 
ATOM      4  C   UNL     1       2.729   4.064  18.999  0.00  0.00    +0.000 C 
ATOM      5  N   UNL     1       3.451   5.125  18.296  0.00  0.00    +0.000 N 
ATOM      6  C   UNL     1       2.764   6.440  18.259  0.00  0.00    +0.000 C 
ENDROOT
BRANCH   5   7
ATOM      7  C   UNL     1       4.690   4.877  17.731  0.00  0.00    +0.000 A 
ATOM      8  C   UNL     1       5.888   5.237  18.372  0.00  0.00    +0.000 A 
ATOM      9  C   UNL     1       7.144   5.024  17.778  0.00  0.00    +0.000 A 
ATOM     10  C   UNL     1       7.236   4.433  16.523  0.00  0.00    +0.000 A 
ATOM     11  C   UNL     1       6.068   4.061  15.878  0.00  0.00    +0.000 A 
ATOM     12  F   UNL     1       6.136   3.486  14.669  0.00  0.00    +0.000 F 
ATOM     13  C   UNL     1       4.821   4.277  16.466  0.00  0.00    +0.000 A 
ENDBRANCH   5   7
BRANCH   1  16
ATOM     14  C   UNL     1       1.448   9.208  19.118  0.00  0.00    +0.000 C 
ATOM     15  O   UNL     1       1.986   9.371  18.030  0.00  0.00    +0.000 OA
ATOM     16  N   UNL     1       1.574   8.083  19.891  0.00  0.00    +0.000 N 
ATOM     17  H   UNL     1       1.149   8.190  20.809  0.00  0.00    +0.000 HD
BRANCH  14  20
ATOM     18  C   UNL     1      -0.391  11.385  21.257  0.00  0.00    +0.000 A 
ATOM     19  N   UNL     1       0.505  10.419  21.123  0.00  0.00    +0.000 NA
ATOM     20  C   UNL     1       0.569  10.200  19.747  0.00  0.00    +0.000 A 
ATOM     21  C   UNL     1      -0.298  11.064  19.119  0.00  0.00    +0.000 A 
ATOM     22  O   UNL     1      -0.905  11.835  20.067  0.00  0.00    +0.000 OA
BRANCH  18  23
ATOM     23  C   UNL     1      -0.826  12.103  22.496  0.00  0.00    +0.000 C 
BRANCH  23  25
ATOM     24  C   UNL     1      -2.972  12.129  23.472  0.00  0.00    +0.000 C 
ATOM     25  O   UNL     1      -1.832  11.334  23.164  0.00  0.00    +0.000 OA
ENDBRANCH  23  25
ENDBRANCH  18  23
ENDBRANCH  14  20
ENDBRANCH   1  16
TORSDOF 5
ENDMDL
