MODEL 1
REMARK VINA RESULT:      -7.7      0.000      0.000
REMARK  Name = 
REMARK  10 active torsions:
REMARK  status: ('A' for Active; 'I' for Inactive)
REMARK    1  A    between atoms: C_1  and  O_2
REMARK    2  A    between atoms: O_2  and  C_3
REMARK    3  A    between atoms: C_8  and  N_9
REMARK    4  A    between atoms: C_10  and  C_12
REMARK    5  A    between atoms: C_12  and  S_13
REMARK    6  A    between atoms: S_13  and  C_14
REMARK    7  A    between atoms: C_17  and  C_18
REMARK    8  A    between atoms: C_18  and  N_19
REMARK    9  A    between atoms: C_20  and  C_22
REMARK   10  A    between atoms: N_27  and  C_28
REMARK                            x       y       z     vdW  Elec       q    Type
REMARK                         _______ _______ _______ _____ _____    ______ ____
ROOT
ATOM      1  C   UNL     1       4.240   3.342  19.181  0.00  0.00    +0.000 A 
ATOM      2  N   UNL     1       5.403   3.545  19.748  0.00  0.00    +0.000 NA
ATOM      3  N   UNL     1       6.217   4.149  18.814  0.00  0.00    +0.000 NA
ATOM      4  C   UNL     1       5.527   4.313  17.705  0.00  0.00    +0.000 A 
ATOM      5  N   UNL     1       4.273   3.766  17.876  0.00  0.00    +0.000 N 
ATOM      6  C   UNL     1       3.182   3.679  16.940  0.00  0.00    +0.000 C 
ENDROOT
BRANCH   1   7
ATOM      7  S   UNL     1       2.844   2.662  19.943  0.00  0.00    +0.000 S 
BRANCH   7   8
ATOM      8  C   UNL     1       2.317   4.065  20.975  0.00  0.00    +0.000 C 
BRANCH   8  10
ATOM      9  N   UNL     1       2.358   6.462  20.400  0.00  0.00    +0.000 N 
ATOM     10  C   UNL     1       1.852   5.201  20.079  0.00  0.00    +0.000 C 
ATOM     11  O   UNL     1       1.083   4.951  19.139  0.00  0.00    +0.000 OA
ATOM     12  H   UNL     1       3.108   6.531  21.082  0.00  0.00    +0.000 HD
BRANCH   9  18
ATOM     13  C   UNL     1       1.239   8.680  20.483  0.00  0.00    +0.000 A 
ATOM     14  C   UNL     1       0.863   9.864  19.816  0.00  0.00    +0.000 A 
ATOM     15  C   UNL     1       1.257  10.112  18.509  0.00  0.00    +0.000 A 
ATOM     16  C   UNL     1       1.994   9.160  17.827  0.00  0.00    +0.000 A 
ATOM     17  C   UNL     1       2.333   7.958  18.451  0.00  0.00    +0.000 A 
ATOM     18  C   UNL     1       1.981   7.694  19.784  0.00  0.00    +0.000 A 
BRANCH  13  20
ATOM     19  C   UNL     1      -0.462   8.725  22.127  0.00  0.00    +0.000 C 
ATOM     20  O   UNL     1       0.919   8.471  21.809  0.00  0.00    +0.000 OA
ENDBRANCH  13  20
ENDBRANCH   9  18
ENDBRANCH   8  10
ENDBRANCH   7   8
ENDBRANCH   1   7
BRANCH   4  21
ATOM     21  C   UNL     1       6.024   5.052  16.505  0.00  0.00    +0.000 C 
BRANCH  21  22
ATOM     22  N   UNL     1       5.654   4.362  15.294  0.00  0.00    +0.000 N 
ATOM     23  C   UNL     1       6.343   4.507  14.113  0.00  0.00    +0.000 C 
ATOM     24  O   UNL     1       7.280   5.290  13.995  0.00  0.00    +0.000 OA
ATOM     25  H   UNL     1       4.852   3.740  15.303  0.00  0.00    +0.000 HD
BRANCH  23  26
ATOM     26  C   UNL     1       5.870   3.672  13.029  0.00  0.00    +0.000 A 
ATOM     27  C   UNL     1       6.477   2.623  12.365  0.00  0.00    +0.000 A 
ATOM     28  C   UNL     1       5.564   2.182  11.378  0.00  0.00    +0.000 A 
ATOM     29  C   UNL     1       4.444   2.969  11.517  0.00  0.00    +0.000 A 
ATOM     30  O   UNL     1       4.615   3.874  12.515  0.00  0.00    +0.000 OA
ENDBRANCH  23  26
ENDBRANCH  21  22
ENDBRANCH   4  21
TORSDOF 8
ENDMDL
MODEL 2
REMARK VINA RESULT:      -7.7      2.383      7.407
REMARK  Name = 
REMARK  10 active torsions:
REMARK  status: ('A' for Active; 'I' for Inactive)
REMARK    1  A    between atoms: C_1  and  O_2
REMARK    2  A    between atoms: O_2  and  C_3
REMARK    3  A    between atoms: C_8  and  N_9
REMARK    4  A    between atoms: C_10  and  C_12
REMARK    5  A    between atoms: C_12  and  S_13
REMARK    6  A    between atoms: S_13  and  C_14
REMARK    7  A    between atoms: C_17  and  C_18
REMARK    8  A    between atoms: C_18  and  N_19
REMARK    9  A    between atoms: C_20  and  C_22
REMARK   10  A    between atoms: N_27  and  C_28
REMARK                            x       y       z     vdW  Elec       q    Type
REMARK                         _______ _______ _______ _____ _____    ______ ____
ROOT
ATOM      1  C   UNL     1       1.653   3.813  18.818  0.00  0.00    +0.000 A 
ATOM      2  N   UNL     1       1.571   4.307  17.607  0.00  0.00    +0.000 NA
ATOM      3  N   UNL     1       1.894   5.645  17.687  0.00  0.00    +0.000 NA
ATOM      4  C   UNL     1       2.180   5.932  18.939  0.00  0.00    +0.000 A 
ATOM      5  N   UNL     1       1.990   4.802  19.708  0.00  0.00    +0.000 N 
ATOM      6  C   UNL     1       2.148   4.632  21.129  0.00  0.00    +0.000 C 
ENDROOT
BRANCH   1   7
ATOM      7  S   UNL     1       1.401   2.159  19.258  0.00  0.00    +0.000 S 
BRANCH   7   8
ATOM      8  C   UNL     1       2.940   1.415  18.633  0.00  0.00    +0.000 C 
BRANCH   8  10
ATOM      9  N   UNL     1       4.396   3.292  17.970  0.00  0.00    +0.000 N 
ATOM     10  C   UNL     1       4.108   2.337  18.946  0.00  0.00    +0.000 C 
ATOM     11  O   UNL     1       4.711   2.200  20.021  0.00  0.00    +0.000 OA
ATOM     12  H   UNL     1       3.739   3.427  17.206  0.00  0.00    +0.000 HD
BRANCH   9  18
ATOM     13  C   UNL     1       6.356   4.335  16.854  0.00  0.00    +0.000 A 
ATOM     14  C   UNL     1       7.462   5.207  16.930  0.00  0.00    +0.000 A 
ATOM     15  C   UNL     1       7.702   5.970  18.064  0.00  0.00    +0.000 A 
ATOM     16  C   UNL     1       6.869   5.840  19.161  0.00  0.00    +0.000 A 
ATOM     17  C   UNL     1       5.799   4.944  19.126  0.00  0.00    +0.000 A 
ATOM     18  C   UNL     1       5.509   4.187  17.980  0.00  0.00    +0.000 A 
BRANCH  13  20
ATOM     19  C   UNL     1       5.583   4.465  14.621  0.00  0.00    +0.000 C 
ATOM     20  O   UNL     1       6.070   3.640  15.696  0.00  0.00    +0.000 OA
ENDBRANCH  13  20
ENDBRANCH   9  18
ENDBRANCH   8  10
ENDBRANCH   7   8
ENDBRANCH   1   7
BRANCH   4  21
ATOM     21  C   UNL     1       2.703   7.251  19.404  0.00  0.00    +0.000 C 
BRANCH  21  22
ATOM     22  N   UNL     1       1.641   8.224  19.471  0.00  0.00    +0.000 N 
ATOM     23  C   UNL     1       1.400   9.136  18.470  0.00  0.00    +0.000 C 
ATOM     24  O   UNL     1       2.120   9.226  17.481  0.00  0.00    +0.000 OA
ATOM     25  H   UNL     1       1.040   8.246  20.288  0.00  0.00    +0.000 HD
BRANCH  23  26
ATOM     26  C   UNL     1       0.241   9.977  18.683  0.00  0.00    +0.000 A 
ATOM     27  C   UNL     1      -0.107  10.781  19.752  0.00  0.00    +0.000 A 
ATOM     28  C   UNL     1      -1.356  11.364  19.435  0.00  0.00    +0.000 A 
ATOM     29  C   UNL     1      -1.684  10.902  18.181  0.00  0.00    +0.000 A 
ATOM     30  O   UNL     1      -0.724  10.063  17.713  0.00  0.00    +0.000 OA
ENDBRANCH  23  26
ENDBRANCH  21  22
ENDBRANCH   4  21
TORSDOF 8
ENDMDL
MODEL 3
REMARK VINA RESULT:      -7.6      0.980      1.765
REMARK  Name = 
REMARK  10 active torsions:
REMARK  status: ('A' for Active; 'I' for Inactive)
REMARK    1  A    between atoms: C_1  and  O_2
REMARK    2  A    between atoms: O_2  and  C_3
REMARK    3  A    between atoms: C_8  and  N_9
REMARK    4  A    between atoms: C_10  and  C_12
REMARK    5  A    between atoms: C_12  and  S_13
REMARK    6  A    between atoms: S_13  and  C_14
REMARK    7  A    between atoms: C_17  and  C_18
REMARK    8  A    between atoms: C_18  and  N_19
REMARK    9  A    between atoms: C_20  and  C_22
REMARK   10  A    between atoms: N_27  and  C_28
REMARK                            x       y       z     vdW  Elec       q    Type
REMARK                         _______ _______ _______ _____ _____    ______ ____
ROOT
ATOM      1  C   UNL     1       4.167   3.329  19.268  0.00  0.00    +0.000 A 
ATOM      2  N   UNL     1       5.365   3.523  19.762  0.00  0.00    +0.000 NA
ATOM      3  N   UNL     1       6.075   4.263  18.841  0.00  0.00    +0.000 NA
ATOM      4  C   UNL     1       5.290   4.516  17.815  0.00  0.00    +0.000 A 
ATOM      5  N   UNL     1       4.076   3.895  18.021  0.00  0.00    +0.000 N 
ATOM      6  C   UNL     1       2.915   3.860  17.169  0.00  0.00    +0.000 C 
ENDROOT
BRANCH   1   7
ATOM      7  S   UNL     1       2.866   2.505  20.056  0.00  0.00    +0.000 S 
BRANCH   7   8
ATOM      8  C   UNL     1       2.414   3.735  21.318  0.00  0.00    +0.000 C 
BRANCH   8  10
ATOM      9  N   UNL     1       2.097   6.170  21.092  0.00  0.00    +0.000 N 
ATOM     10  C   UNL     1       1.708   4.904  20.652  0.00  0.00    +0.000 C 
ATOM     11  O   UNL     1       0.861   4.675  19.775  0.00  0.00    +0.000 OA
ATOM     12  H   UNL     1       2.914   6.251  21.691  0.00  0.00    +0.000 HD
BRANCH   9  18
ATOM     13  C   UNL     1       1.904   8.094  19.532  0.00  0.00    +0.000 A 
ATOM     14  C   UNL     1       1.307   9.332  19.214  0.00  0.00    +0.000 A 
ATOM     15  C   UNL     1       0.288   9.862  19.993  0.00  0.00    +0.000 A 
ATOM     16  C   UNL     1      -0.120   9.189  21.131  0.00  0.00    +0.000 A 
ATOM     17  C   UNL     1       0.494   7.988  21.492  0.00  0.00    +0.000 A 
ATOM     18  C   UNL     1       1.501   7.409  20.705  0.00  0.00    +0.000 A 
BRANCH  13  20
ATOM     19  C   UNL     1       2.712   7.865  17.319  0.00  0.00    +0.000 C 
ATOM     20  O   UNL     1       2.859   7.528  18.711  0.00  0.00    +0.000 OA
ENDBRANCH  13  20
ENDBRANCH   9  18
ENDBRANCH   8  10
ENDBRANCH   7   8
ENDBRANCH   1   7
BRANCH   4  21
ATOM     21  C   UNL     1       5.657   5.403  16.671  0.00  0.00    +0.000 C 
BRANCH  21  22
ATOM     22  N   UNL     1       5.454   4.725  15.415  0.00  0.00    +0.000 N 
ATOM     23  C   UNL     1       6.397   4.709  14.415  0.00  0.00    +0.000 C 
ATOM     24  O   UNL     1       7.450   5.333  14.499  0.00  0.00    +0.000 OA
ATOM     25  H   UNL     1       4.580   4.235  15.253  0.00  0.00    +0.000 HD
BRANCH  23  26
ATOM     26  C   UNL     1       6.043   3.910  13.261  0.00  0.00    +0.000 A 
ATOM     27  C   UNL     1       6.803   3.053  12.488  0.00  0.00    +0.000 A 
ATOM     28  C   UNL     1       5.951   2.552  11.476  0.00  0.00    +0.000 A 
ATOM     29  C   UNL     1       4.715   3.111  11.707  0.00  0.00    +0.000 A 
ATOM     30  O   UNL     1       4.757   3.934  12.787  0.00  0.00    +0.000 OA
ENDBRANCH  23  26
ENDBRANCH  21  22
ENDBRANCH   4  21
TORSDOF 8
ENDMDL
MODEL 4
REMARK VINA RESULT:      -7.5      2.169      7.979
REMARK  Name = 
REMARK  10 active torsions:
REMARK  status: ('A' for Active; 'I' for Inactive)
REMARK    1  A    between atoms: C_1  and  O_2
REMARK    2  A    between atoms: O_2  and  C_3
REMARK    3  A    between atoms: C_8  and  N_9
REMARK    4  A    between atoms: C_10  and  C_12
REMARK    5  A    between atoms: C_12  and  S_13
REMARK    6  A    between atoms: S_13  and  C_14
REMARK    7  A    between atoms: C_17  and  C_18
REMARK    8  A    between atoms: C_18  and  N_19
REMARK    9  A    between atoms: C_20  and  C_22
REMARK   10  A    between atoms: N_27  and  C_28
REMARK                            x       y       z     vdW  Elec       q    Type
REMARK                         _______ _______ _______ _____ _____    ______ ____
ROOT
ATOM      1  C   UNL     1       1.601   3.792  18.909  0.00  0.00    +0.000 A 
ATOM      2  N   UNL     1       1.386   4.167  17.673  0.00  0.00    +0.000 NA
ATOM      3  N   UNL     1       1.677   5.512  17.594  0.00  0.00    +0.000 NA
ATOM      4  C   UNL     1       2.077   5.922  18.779  0.00  0.00    +0.000 A 
ATOM      5  N   UNL     1       1.996   4.868  19.665  0.00  0.00    +0.000 N 
ATOM      6  C   UNL     1       2.298   4.836  21.072  0.00  0.00    +0.000 C 
ENDROOT
BRANCH   1   7
ATOM      7  S   UNL     1       1.440   2.183  19.524  0.00  0.00    +0.000 S 
BRANCH   7   8
ATOM      8  C   UNL     1       2.948   1.421  18.848  0.00  0.00    +0.000 C 
BRANCH   8  10
ATOM      9  N   UNL     1       4.359   3.279  18.048  0.00  0.00    +0.000 N 
ATOM     10  C   UNL     1       4.127   2.356  19.069  0.00  0.00    +0.000 C 
ATOM     11  O   UNL     1       4.786   2.257  20.115  0.00  0.00    +0.000 OA
ATOM     12  H   UNL     1       3.662   3.387  17.316  0.00  0.00    +0.000 HD
BRANCH   9  18
ATOM     13  C   UNL     1       6.250   4.294  16.795  0.00  0.00    +0.000 A 
ATOM     14  C   UNL     1       7.355   5.171  16.784  0.00  0.00    +0.000 A 
ATOM     15  C   UNL     1       7.652   5.969  17.880  0.00  0.00    +0.000 A 
ATOM     16  C   UNL     1       6.881   5.869  19.024  0.00  0.00    +0.000 A 
ATOM     17  C   UNL     1       5.815   4.970  19.075  0.00  0.00    +0.000 A 
ATOM     18  C   UNL     1       5.467   4.177  17.971  0.00  0.00    +0.000 A 
BRANCH  13  20
ATOM     19  C   UNL     1       6.332   4.152  14.434  0.00  0.00    +0.000 C 
ATOM     20  O   UNL     1       5.904   3.563  15.676  0.00  0.00    +0.000 OA
ENDBRANCH  13  20
ENDBRANCH   9  18
ENDBRANCH   8  10
ENDBRANCH   7   8
ENDBRANCH   1   7
BRANCH   4  21
ATOM     21  C   UNL     1       2.606   7.289  19.064  0.00  0.00    +0.000 C 
BRANCH  21  22
ATOM     22  N   UNL     1       1.858   7.913  20.128  0.00  0.00    +0.000 N 
ATOM     23  C   UNL     1       1.248   9.138  19.992  0.00  0.00    +0.000 C 
ATOM     24  O   UNL     1       1.359   9.814  18.975  0.00  0.00    +0.000 OA
ATOM     25  H   UNL     1       1.773   7.435  21.019  0.00  0.00    +0.000 HD
BRANCH  23  26
ATOM     26  C   UNL     1       0.478   9.561  21.142  0.00  0.00    +0.000 A 
ATOM     27  C   UNL     1       0.369   9.015  22.407  0.00  0.00    +0.000 A 
ATOM     28  C   UNL     1      -0.538   9.829  23.126  0.00  0.00    +0.000 A 
ATOM     29  C   UNL     1      -0.908  10.838  22.267  0.00  0.00    +0.000 A 
ATOM     30  O   UNL     1      -0.298  10.688  21.063  0.00  0.00    +0.000 OA
ENDBRANCH  23  26
ENDBRANCH  21  22
ENDBRANCH   4  21
TORSDOF 8
ENDMDL
MODEL 5
REMARK VINA RESULT:      -7.4      3.449      8.761
REMARK  Name = 
REMARK  10 active torsions:
REMARK  status: ('A' for Active; 'I' for Inactive)
REMARK    1  A    between atoms: C_1  and  O_2
REMARK    2  A    between atoms: O_2  and  C_3
REMARK    3  A    between atoms: C_8  and  N_9
REMARK    4  A    between atoms: C_10  and  C_12
REMARK    5  A    between atoms: C_12  and  S_13
REMARK    6  A    between atoms: S_13  and  C_14
REMARK    7  A    between atoms: C_17  and  C_18
REMARK    8  A    between atoms: C_18  and  N_19
REMARK    9  A    between atoms: C_20  and  C_22
REMARK   10  A    between atoms: N_27  and  C_28
REMARK                            x       y       z     vdW  Elec       q    Type
REMARK                         _______ _______ _______ _____ _____    ______ ____
ROOT
ATOM      1  C   UNL     1       2.075   7.789  19.205  0.00  0.00    +0.000 A 
ATOM      2  N   UNL     1       2.495   8.015  17.985  0.00  0.00    +0.000 NA
ATOM      3  N   UNL     1       2.030   9.259  17.614  0.00  0.00    +0.000 NA
ATOM      4  C   UNL     1       1.352   9.768  18.621  0.00  0.00    +0.000 A 
ATOM      5  N   UNL     1       1.311   8.842  19.642  0.00  0.00    +0.000 N 
ATOM      6  C   UNL     1       0.665   8.931  20.926  0.00  0.00    +0.000 C 
ENDROOT
BRANCH   1   7
ATOM      7  S   UNL     1       2.432   6.390  20.157  0.00  0.00    +0.000 S 
BRANCH   7   8
ATOM      8  C   UNL     1       2.090   5.073  18.948  0.00  0.00    +0.000 C 
BRANCH   8  10
ATOM      9  N   UNL     1       3.868   5.436  17.279  0.00  0.00    +0.000 N 
ATOM     10  C   UNL     1       3.395   4.624  18.311  0.00  0.00    +0.000 C 
ATOM     11  O   UNL     1       3.953   3.602  18.737  0.00  0.00    +0.000 OA
ATOM     12  H   UNL     1       3.425   6.337  17.121  0.00  0.00    +0.000 HD
BRANCH   9  18
ATOM     13  C   UNL     1       6.302   5.604  16.806  0.00  0.00    +0.000 A 
ATOM     14  C   UNL     1       7.382   5.336  15.938  0.00  0.00    +0.000 A 
ATOM     15  C   UNL     1       7.207   4.595  14.778  0.00  0.00    +0.000 A 
ATOM     16  C   UNL     1       5.942   4.149  14.438  0.00  0.00    +0.000 A 
ATOM     17  C   UNL     1       4.851   4.448  15.256  0.00  0.00    +0.000 A 
ATOM     18  C   UNL     1       5.002   5.162  16.454  0.00  0.00    +0.000 A 
BRANCH  13  20
ATOM     19  C   UNL     1       7.626   5.807  18.757  0.00  0.00    +0.000 C 
ATOM     20  O   UNL     1       6.491   6.268  18.001  0.00  0.00    +0.000 OA
ENDBRANCH  13  20
ENDBRANCH   9  18
ENDBRANCH   8  10
ENDBRANCH   7   8
ENDBRANCH   1   7
BRANCH   4  21
ATOM     21  C   UNL     1       0.803  11.157  18.651  0.00  0.00    +0.000 C 
BRANCH  21  22
ATOM     22  N   UNL     1      -0.543  11.183  18.136  0.00  0.00    +0.000 N 
ATOM     23  C   UNL     1      -1.639  11.446  18.924  0.00  0.00    +0.000 C 
ATOM     24  O   UNL     1      -1.547  11.607  20.137  0.00  0.00    +0.000 OA
ATOM     25  H   UNL     1      -0.699  11.001  17.150  0.00  0.00    +0.000 HD
BRANCH  23  26
ATOM     26  C   UNL     1      -2.897  11.507  18.211  0.00  0.00    +0.000 A 
ATOM     27  C   UNL     1      -3.202  11.230  16.892  0.00  0.00    +0.000 A 
ATOM     28  C   UNL     1      -4.586  11.477  16.733  0.00  0.00    +0.000 A 
ATOM     29  C   UNL     1      -5.048  11.864  17.970  0.00  0.00    +0.000 A 
ATOM     30  O   UNL     1      -4.036  11.885  18.874  0.00  0.00    +0.000 OA
ENDBRANCH  23  26
ENDBRANCH  21  22
ENDBRANCH   4  21
TORSDOF 8
ENDMDL
MODEL 6
REMARK VINA RESULT:      -7.4      5.156      7.688
REMARK  Name = 
REMARK  10 active torsions:
REMARK  status: ('A' for Active; 'I' for Inactive)
REMARK    1  A    between atoms: C_1  and  O_2
REMARK    2  A    between atoms: O_2  and  C_3
REMARK    3  A    between atoms: C_8  and  N_9
REMARK    4  A    between atoms: C_10  and  C_12
REMARK    5  A    between atoms: C_12  and  S_13
REMARK    6  A    between atoms: S_13  and  C_14
REMARK    7  A    between atoms: C_17  and  C_18
REMARK    8  A    between atoms: C_18  and  N_19
REMARK    9  A    between atoms: C_20  and  C_22
REMARK   10  A    between atoms: N_27  and  C_28
REMARK                            x       y       z     vdW  Elec       q    Type
REMARK                         _______ _______ _______ _____ _____    ______ ____
ROOT
ATOM      1  C   UNL     1       7.040   5.995  16.922  0.00  0.00    +0.000 A 
ATOM      2  N   UNL     1       6.831   7.109  16.265  0.00  0.00    +0.000 NA
ATOM      3  N   UNL     1       7.372   8.134  17.012  0.00  0.00    +0.000 NA
ATOM      4  C   UNL     1       7.910   7.620  18.097  0.00  0.00    +0.000 A 
ATOM      5  N   UNL     1       7.678   6.261  18.108  0.00  0.00    +0.000 N 
ATOM      6  C   UNL     1       8.048   5.282  19.096  0.00  0.00    +0.000 C 
ENDROOT
BRANCH   1   7
ATOM      7  S   UNL     1       6.607   4.407  16.389  0.00  0.00    +0.000 S 
BRANCH   7   8
ATOM      8  C   UNL     1       4.845   4.658  16.008  0.00  0.00    +0.000 C 
BRANCH   8  10
ATOM      9  N   UNL     1       3.823   3.499  17.929  0.00  0.00    +0.000 N 
ATOM     10  C   UNL     1       4.054   4.726  17.304  0.00  0.00    +0.000 C 
ATOM     11  O   UNL     1       3.681   5.831  17.725  0.00  0.00    +0.000 OA
ATOM     12  H   UNL     1       4.312   2.676  17.591  0.00  0.00    +0.000 HD
BRANCH   9  18
ATOM     13  C   UNL     1       3.528   2.686  20.259  0.00  0.00    +0.000 A 
ATOM     14  C   UNL     1       2.674   2.474  21.362  0.00  0.00    +0.000 A 
ATOM     15  C   UNL     1       1.355   2.903  21.345  0.00  0.00    +0.000 A 
ATOM     16  C   UNL     1       0.850   3.509  20.208  0.00  0.00    +0.000 A 
ATOM     17  C   UNL     1       1.663   3.682  19.086  0.00  0.00    +0.000 A 
ATOM     18  C   UNL     1       3.011   3.292  19.086  0.00  0.00    +0.000 A 
BRANCH  13  20
ATOM     19  C   UNL     1       5.141   1.201  21.149  0.00  0.00    +0.000 C 
ATOM     20  O   UNL     1       4.862   2.335  20.307  0.00  0.00    +0.000 OA
ENDBRANCH  13  20
ENDBRANCH   9  18
ENDBRANCH   8  10
ENDBRANCH   7   8
ENDBRANCH   1   7
BRANCH   4  21
ATOM     21  C   UNL     1       8.709   8.398  19.091  0.00  0.00    +0.000 C 
BRANCH  21  22
ATOM     22  N   UNL     1       8.942   9.740  18.618  0.00  0.00    +0.000 N 
ATOM     23  C   UNL     1       9.316  10.770  19.449  0.00  0.00    +0.000 C 
ATOM     24  O   UNL     1       9.409  10.628  20.664  0.00  0.00    +0.000 OA
ATOM     25  H   UNL     1       8.827   9.944  17.630  0.00  0.00    +0.000 HD
BRANCH  23  26
ATOM     26  C   UNL     1       9.581  12.024  18.777  0.00  0.00    +0.000 A 
ATOM     27  C   UNL     1       8.935  12.636  17.719  0.00  0.00    +0.000 A 
ATOM     28  C   UNL     1       9.629  13.841  17.459  0.00  0.00    +0.000 A 
ATOM     29  C   UNL     1      10.640  13.906  18.390  0.00  0.00    +0.000 A 
ATOM     30  O   UNL     1      10.621  12.813  19.195  0.00  0.00    +0.000 OA
ENDBRANCH  23  26
ENDBRANCH  21  22
ENDBRANCH   4  21
TORSDOF 8
ENDMDL
MODEL 7
REMARK VINA RESULT:      -7.3      6.167      8.061
REMARK  Name = 
REMARK  10 active torsions:
REMARK  status: ('A' for Active; 'I' for Inactive)
REMARK    1  A    between atoms: C_1  and  O_2
REMARK    2  A    between atoms: O_2  and  C_3
REMARK    3  A    between atoms: C_8  and  N_9
REMARK    4  A    between atoms: C_10  and  C_12
REMARK    5  A    between atoms: C_12  and  S_13
REMARK    6  A    between atoms: S_13  and  C_14
REMARK    7  A    between atoms: C_17  and  C_18
REMARK    8  A    between atoms: C_18  and  N_19
REMARK    9  A    between atoms: C_20  and  C_22
REMARK   10  A    between atoms: N_27  and  C_28
REMARK                            x       y       z     vdW  Elec       q    Type
REMARK                         _______ _______ _______ _____ _____    ______ ____
ROOT
ATOM      1  C   UNL     1       6.945   6.887  17.472  0.00  0.00    +0.000 A 
ATOM      2  N   UNL     1       5.990   7.454  16.778  0.00  0.00    +0.000 NA
ATOM      3  N   UNL     1       5.168   6.450  16.312  0.00  0.00    +0.000 NA
ATOM      4  C   UNL     1       5.633   5.297  16.745  0.00  0.00    +0.000 A 
ATOM      5  N   UNL     1       6.797   5.522  17.449  0.00  0.00    +0.000 N 
ATOM      6  C   UNL     1       7.674   4.574  18.085  0.00  0.00    +0.000 C 
ENDROOT
BRANCH   1   7
ATOM      7  S   UNL     1       8.208   7.709  18.321  0.00  0.00    +0.000 S 
BRANCH   7   8
ATOM      8  C   UNL     1       7.964   9.406  17.710  0.00  0.00    +0.000 C 
BRANCH   8  10
ATOM      9  N   UNL     1       9.129  11.577  17.799  0.00  0.00    +0.000 N 
ATOM     10  C   UNL     1       8.935  10.339  18.414  0.00  0.00    +0.000 C 
ATOM     11  O   UNL     1       9.475   9.964  19.465  0.00  0.00    +0.000 OA
ATOM     12  H   UNL     1       8.514  11.848  17.036  0.00  0.00    +0.000 HD
BRANCH   9  18
ATOM     13  C   UNL     1       9.748  13.558  19.166  0.00  0.00    +0.000 A 
ATOM     14  C   UNL     1      10.706  14.537  19.502  0.00  0.00    +0.000 A 
ATOM     15  C   UNL     1      11.981  14.517  18.954  0.00  0.00    +0.000 A 
ATOM     16  C   UNL     1      12.307  13.546  18.023  0.00  0.00    +0.000 A 
ATOM     17  C   UNL     1      11.357  12.599  17.638  0.00  0.00    +0.000 A 
ATOM     18  C   UNL     1      10.072  12.571  18.202  0.00  0.00    +0.000 A 
BRANCH  13  20
ATOM     19  C   UNL     1       8.314  14.559  20.761  0.00  0.00    +0.000 C 
ATOM     20  O   UNL     1       8.509  13.529  19.774  0.00  0.00    +0.000 OA
ENDBRANCH  13  20
ENDBRANCH   9  18
ENDBRANCH   8  10
ENDBRANCH   7   8
ENDBRANCH   1   7
BRANCH   4  21
ATOM     21  C   UNL     1       4.941   3.986  16.559  0.00  0.00    +0.000 C 
BRANCH  21  22
ATOM     22  N   UNL     1       3.866   3.838  17.509  0.00  0.00    +0.000 N 
ATOM     23  C   UNL     1       4.046   3.297  18.760  0.00  0.00    +0.000 C 
ATOM     24  O   UNL     1       5.124   2.838  19.125  0.00  0.00    +0.000 OA
ATOM     25  H   UNL     1       2.933   4.144  17.253  0.00  0.00    +0.000 HD
BRANCH  23  26
ATOM     26  C   UNL     1       2.866   3.305  19.599  0.00  0.00    +0.000 A 
ATOM     27  C   UNL     1       2.633   2.735  20.836  0.00  0.00    +0.000 A 
ATOM     28  C   UNL     1       1.297   3.044  21.183  0.00  0.00    +0.000 A 
ATOM     29  C   UNL     1       0.802   3.806  20.150  0.00  0.00    +0.000 A 
ATOM     30  O   UNL     1       1.743   3.974  19.185  0.00  0.00    +0.000 OA
ENDBRANCH  23  26
ENDBRANCH  21  22
ENDBRANCH   4  21
TORSDOF 8
ENDMDL
MODEL 8
REMARK VINA RESULT:      -7.3      5.947      7.940
REMARK  Name = 
REMARK  10 active torsions:
REMARK  status: ('A' for Active; 'I' for Inactive)
REMARK    1  A    between atoms: C_1  and  O_2
REMARK    2  A    between atoms: O_2  and  C_3
REMARK    3  A    between atoms: C_8  and  N_9
REMARK    4  A    between atoms: C_10  and  C_12
REMARK    5  A    between atoms: C_12  and  S_13
REMARK    6  A    between atoms: S_13  and  C_14
REMARK    7  A    between atoms: C_17  and  C_18
REMARK    8  A    between atoms: C_18  and  N_19
REMARK    9  A    between atoms: C_20  and  C_22
REMARK   10  A    between atoms: N_27  and  C_28
REMARK                            x       y       z     vdW  Elec       q    Type
REMARK                         _______ _______ _______ _____ _____    ______ ____
ROOT
ATOM      1  C   UNL     1       7.371   6.322  17.396  0.00  0.00    +0.000 A 
ATOM      2  N   UNL     1       7.507   6.378  16.094  0.00  0.00    +0.000 NA
ATOM      3  N   UNL     1       6.639   5.456  15.550  0.00  0.00    +0.000 NA
ATOM      4  C   UNL     1       5.983   4.872  16.530  0.00  0.00    +0.000 A 
ATOM      5  N   UNL     1       6.454   5.357  17.732  0.00  0.00    +0.000 N 
ATOM      6  C   UNL     1       6.067   5.000  19.071  0.00  0.00    +0.000 C 
ENDROOT
BRANCH   1   7
ATOM      7  S   UNL     1       8.193   7.318  18.546  0.00  0.00    +0.000 S 
BRANCH   7   8
ATOM      8  C   UNL     1       7.899   8.963  17.826  0.00  0.00    +0.000 C 
BRANCH   8  10
ATOM      9  N   UNL     1       9.174  11.073  17.771  0.00  0.00    +0.000 N 
ATOM     10  C   UNL     1       8.760   9.988  18.546  0.00  0.00    +0.000 C 
ATOM     11  O   UNL     1       9.029   9.815  19.745  0.00  0.00    +0.000 OA
ATOM     12  H   UNL     1       8.763  11.204  16.851  0.00  0.00    +0.000 HD
BRANCH   9  18
ATOM     13  C   UNL     1       9.652  13.438  18.367  0.00  0.00    +0.000 A 
ATOM     14  C   UNL     1      10.593  14.419  18.744  0.00  0.00    +0.000 A 
ATOM     15  C   UNL     1      11.916  14.086  19.001  0.00  0.00    +0.000 A 
ATOM     16  C   UNL     1      12.333  12.777  18.840  0.00  0.00    +0.000 A 
ATOM     17  C   UNL     1      11.430  11.801  18.418  0.00  0.00    +0.000 A 
ATOM     18  C   UNL     1      10.078  12.098  18.186  0.00  0.00    +0.000 A 
BRANCH  13  20
ATOM     19  C   UNL     1       7.805  14.686  19.161  0.00  0.00    +0.000 C 
ATOM     20  O   UNL     1       8.319  13.754  18.193  0.00  0.00    +0.000 OA
ENDBRANCH  13  20
ENDBRANCH   9  18
ENDBRANCH   8  10
ENDBRANCH   7   8
ENDBRANCH   1   7
BRANCH   4  21
ATOM     21  C   UNL     1       4.860   3.907  16.334  0.00  0.00    +0.000 C 
BRANCH  21  22
ATOM     22  N   UNL     1       3.878   4.050  17.381  0.00  0.00    +0.000 N 
ATOM     23  C   UNL     1       3.372   2.979  18.079  0.00  0.00    +0.000 C 
ATOM     24  O   UNL     1       3.672   1.821  17.808  0.00  0.00    +0.000 OA
ATOM     25  H   UNL     1       3.541   4.976  17.620  0.00  0.00    +0.000 HD
BRANCH  23  26
ATOM     26  C   UNL     1       2.457   3.329  19.145  0.00  0.00    +0.000 A 
ATOM     27  C   UNL     1       1.298   2.714  19.580  0.00  0.00    +0.000 A 
ATOM     28  C   UNL     1       0.796   3.496  20.646  0.00  0.00    +0.000 A 
ATOM     29  C   UNL     1       1.691   4.527  20.816  0.00  0.00    +0.000 A 
ATOM     30  O   UNL     1       2.703   4.437  19.915  0.00  0.00    +0.000 OA
ENDBRANCH  23  26
ENDBRANCH  21  22
ENDBRANCH   4  21
TORSDOF 8
ENDMDL
MODEL 9
REMARK VINA RESULT:      -7.3      3.447      8.555
REMARK  Name = 
REMARK  10 active torsions:
REMARK  status: ('A' for Active; 'I' for Inactive)
REMARK    1  A    between atoms: C_1  and  O_2
REMARK    2  A    between atoms: O_2  and  C_3
REMARK    3  A    between atoms: C_8  and  N_9
REMARK    4  A    between atoms: C_10  and  C_12
REMARK    5  A    between atoms: C_12  and  S_13
REMARK    6  A    between atoms: S_13  and  C_14
REMARK    7  A    between atoms: C_17  and  C_18
REMARK    8  A    between atoms: C_18  and  N_19
REMARK    9  A    between atoms: C_20  and  C_22
REMARK   10  A    between atoms: N_27  and  C_28
REMARK                            x       y       z     vdW  Elec       q    Type
REMARK                         _______ _______ _______ _____ _____    ______ ____
ROOT
ATOM      1  C   UNL     1       2.417   7.401  19.019  0.00  0.00    +0.000 A 
ATOM      2  N   UNL     1       2.664   7.771  17.787  0.00  0.00    +0.000 NA
ATOM      3  N   UNL     1       2.054   8.993  17.594  0.00  0.00    +0.000 NA
ATOM      4  C   UNL     1       1.464   9.345  18.717  0.00  0.00    +0.000 A 
ATOM      5  N   UNL     1       1.626   8.334  19.641  0.00  0.00    +0.000 N 
ATOM      6  C   UNL     1       1.138   8.250  20.992  0.00  0.00    +0.000 C 
ENDROOT
BRANCH   1   7
ATOM      7  S   UNL     1       3.005   5.965  19.783  0.00  0.00    +0.000 S 
BRANCH   7   8
ATOM      8  C   UNL     1       2.254   4.695  18.718  0.00  0.00    +0.000 C 
BRANCH   8  10
ATOM      9  N   UNL     1       4.202   5.135  17.271  0.00  0.00    +0.000 N 
ATOM     10  C   UNL     1       3.296   4.181  17.737  0.00  0.00    +0.000 C 
ATOM     11  O   UNL     1       3.289   2.981  17.425  0.00  0.00    +0.000 OA
ATOM     12  H   UNL     1       4.224   6.049  17.716  0.00  0.00    +0.000 HD
BRANCH   9  18
ATOM     13  C   UNL     1       6.554   5.250  16.478  0.00  0.00    +0.000 A 
ATOM     14  C   UNL     1       7.485   5.054  15.436  0.00  0.00    +0.000 A 
ATOM     15  C   UNL     1       7.104   4.490  14.227  0.00  0.00    +0.000 A 
ATOM     16  C   UNL     1       5.778   4.156  14.018  0.00  0.00    +0.000 A 
ATOM     17  C   UNL     1       4.831   4.390  15.016  0.00  0.00    +0.000 A 
ATOM     18  C   UNL     1       5.192   4.924  16.263  0.00  0.00    +0.000 A 
BRANCH  13  20
ATOM     19  C   UNL     1       7.495   7.064  17.672  0.00  0.00    +0.000 C 
ATOM     20  O   UNL     1       6.949   5.733  17.709  0.00  0.00    +0.000 OA
ENDBRANCH  13  20
ENDBRANCH   9  18
ENDBRANCH   8  10
ENDBRANCH   7   8
ENDBRANCH   1   7
BRANCH   4  21
ATOM     21  C   UNL     1       0.808  10.667  18.945  0.00  0.00    +0.000 C 
BRANCH  21  22
ATOM     22  N   UNL     1      -0.564  10.638  18.502  0.00  0.00    +0.000 N 
ATOM     23  C   UNL     1      -1.254  11.769  18.135  0.00  0.00    +0.000 C 
ATOM     24  O   UNL     1      -0.767  12.891  18.228  0.00  0.00    +0.000 OA
ATOM     25  H   UNL     1      -1.050   9.748  18.455  0.00  0.00    +0.000 HD
BRANCH  23  26
ATOM     26  C   UNL     1      -2.594  11.528  17.643  0.00  0.00    +0.000 A 
ATOM     27  C   UNL     1      -3.818  11.604  18.282  0.00  0.00    +0.000 A 
ATOM     28  C   UNL     1      -4.798  11.246  17.327  0.00  0.00    +0.000 A 
ATOM     29  C   UNL     1      -4.118  10.999  16.157  0.00  0.00    +0.000 A 
ATOM     30  O   UNL     1      -2.783  11.168  16.334  0.00  0.00    +0.000 OA
ENDBRANCH  23  26
ENDBRANCH  21  22
ENDBRANCH   4  21
TORSDOF 8
ENDMDL
