MODEL 1
REMARK VINA RESULT:      -7.0      0.000      0.000
REMARK  Name = 
REMARK  7 active torsions:
REMARK  status: ('A' for Active; 'I' for Inactive)
REMARK    1  A    between atoms: C_1  and  O_2
REMARK    2  A    between atoms: O_2  and  C_3
REMARK    3  A    between atoms: C_6  and  C_7
REMARK    4  A    between atoms: C_7  and  C_8
REMARK    5  A    between atoms: C_7  and  N_9
REMARK    6  A    between atoms: C_12  and  C_13
REMARK    7  A    between atoms: C_13  and  O_14
REMARK                            x       y       z     vdW  Elec       q    Type
REMARK                         _______ _______ _______ _____ _____    ______ ____
ROOT
ATOM      1  C   UNL     1       3.059   6.683  19.058  0.00  0.00    +0.000 C 
ATOM      2  C   UNL     1       2.364   7.961  18.542  0.00  0.00    +0.000 C 
ENDROOT
BRANCH   1   6
ATOM      3  C   UNL     1       6.306   5.841  16.263  0.00  0.00    +0.000 A 
ATOM      4  C   UNL     1       5.168   6.532  15.835  0.00  0.00    +0.000 A 
ATOM      5  C   UNL     1       4.117   6.798  16.722  0.00  0.00    +0.000 A 
ATOM      6  C   UNL     1       4.159   6.349  18.049  0.00  0.00    +0.000 A 
ATOM      7  C   UNL     1       5.301   5.646  18.473  0.00  0.00    +0.000 A 
ATOM      8  C   UNL     1       6.359   5.392  17.593  0.00  0.00    +0.000 A 
ATOM      9 CL   UNL     1       7.744   4.556  18.205  0.00  0.00    +0.000 Cl
BRANCH   3  11
ATOM     10  C   UNL     1       7.077   4.810  14.266  0.00  0.00    +0.000 C 
ATOM     11  O   UNL     1       7.370   5.540  15.452  0.00  0.00    +0.000 OA
ENDBRANCH   3  11
ENDBRANCH   1   6
BRANCH   1  12
ATOM     12  N   UNL     1       2.119   5.549  19.341  0.00  0.00    +0.000 NA
ATOM     13  C   UNL     1       2.027   4.655  18.164  0.00  0.00    +0.000 C 
ATOM     14  C   UNL     1       1.224   3.372  18.413  0.00  0.00    +0.000 C 
ATOM     15  C   UNL     1       1.728   2.591  19.630  0.00  0.00    +0.000 C 
ATOM     16  C   UNL     1       1.733   3.536  20.828  0.00  0.00    +0.000 C 
ATOM     17  C   UNL     1       2.519   4.819  20.558  0.00  0.00    +0.000 C 
BRANCH  15  18
ATOM     18  C   UNL     1       3.103   1.950  19.402  0.00  0.00    +0.000 C 
BRANCH  18  19
ATOM     19  O   UNL     1       3.150   1.313  18.132  0.00  0.00    +0.000 OA
ATOM     20  H   UNL     1       2.931   1.983  17.461  0.00  0.00    +0.000 HD
ENDBRANCH  18  19
ENDBRANCH  15  18
ENDBRANCH   1  12
TORSDOF 5
ENDMDL
MODEL 2
REMARK VINA RESULT:      -6.8      3.570      5.142
REMARK  Name = 
REMARK  7 active torsions:
REMARK  status: ('A' for Active; 'I' for Inactive)
REMARK    1  A    between atoms: C_1  and  O_2
REMARK    2  A    between atoms: O_2  and  C_3
REMARK    3  A    between atoms: C_6  and  C_7
REMARK    4  A    between atoms: C_7  and  C_8
REMARK    5  A    between atoms: C_7  and  N_9
REMARK    6  A    between atoms: C_12  and  C_13
REMARK    7  A    between atoms: C_13  and  O_14
REMARK                            x       y       z     vdW  Elec       q    Type
REMARK                         _______ _______ _______ _____ _____    ______ ____
ROOT
ATOM      1  C   UNL     1       2.716   6.382  18.040  0.00  0.00    +0.000 C 
ATOM      2  C   UNL     1       4.242   6.563  17.902  0.00  0.00    +0.000 C 
ENDROOT
BRANCH   1   6
ATOM      3  C   UNL     1       1.006  10.051  19.679  0.00  0.00    +0.000 A 
ATOM      4  C   UNL     1       1.352   9.976  18.326  0.00  0.00    +0.000 A 
ATOM      5  C   UNL     1       1.910   8.807  17.794  0.00  0.00    +0.000 A 
ATOM      6  C   UNL     1       2.171   7.696  18.606  0.00  0.00    +0.000 A 
ATOM      7  C   UNL     1       1.831   7.777  19.968  0.00  0.00    +0.000 A 
ATOM      8  C   UNL     1       1.259   8.939  20.500  0.00  0.00    +0.000 A 
ATOM      9 CL   UNL     1       0.833   8.944  22.176  0.00  0.00    +0.000 Cl
BRANCH   3  11
ATOM     10  C   UNL     1       1.303  12.305  20.368  0.00  0.00    +0.000 C 
ATOM     11  O   UNL     1       0.462  11.162  20.270  0.00  0.00    +0.000 OA
ENDBRANCH   3  11
ENDBRANCH   1   6
BRANCH   1  12
ATOM     12  N   UNL     1       2.313   5.164  18.817  0.00  0.00    +0.000 NA
ATOM     13  C   UNL     1       1.557   4.232  17.949  0.00  0.00    +0.000 C 
ATOM     14  C   UNL     1       1.248   2.879  18.604  0.00  0.00    +0.000 C 
ATOM     15  C   UNL     1       2.502   2.191  19.150  0.00  0.00    +0.000 C 
ATOM     16  C   UNL     1       3.202   3.165  20.092  0.00  0.00    +0.000 C 
ATOM     17  C   UNL     1       3.485   4.516  19.434  0.00  0.00    +0.000 C 
BRANCH  15  18
ATOM     18  C   UNL     1       3.441   1.692  18.043  0.00  0.00    +0.000 C 
BRANCH  18  19
ATOM     19  O   UNL     1       4.141   0.530  18.471  0.00  0.00    +0.000 OA
ATOM     20  H   UNL     1       3.945   0.403  19.417  0.00  0.00    +0.000 HD
ENDBRANCH  18  19
ENDBRANCH  15  18
ENDBRANCH   1  12
TORSDOF 5
ENDMDL
MODEL 3
REMARK VINA RESULT:      -6.8      3.715      5.358
REMARK  Name = 
REMARK  7 active torsions:
REMARK  status: ('A' for Active; 'I' for Inactive)
REMARK    1  A    between atoms: C_1  and  O_2
REMARK    2  A    between atoms: O_2  and  C_3
REMARK    3  A    between atoms: C_6  and  C_7
REMARK    4  A    between atoms: C_7  and  C_8
REMARK    5  A    between atoms: C_7  and  N_9
REMARK    6  A    between atoms: C_12  and  C_13
REMARK    7  A    between atoms: C_13  and  O_14
REMARK                            x       y       z     vdW  Elec       q    Type
REMARK                         _______ _______ _______ _____ _____    ______ ____
ROOT
ATOM      1  C   UNL     1       2.715   6.204  19.792  0.00  0.00    +0.000 C 
ATOM      2  C   UNL     1       1.715   5.541  20.763  0.00  0.00    +0.000 C 
ENDROOT
BRANCH   1   6
ATOM      3  C   UNL     1       0.950  10.090  18.870  0.00  0.00    +0.000 A 
ATOM      4  C   UNL     1       1.694   9.406  17.904  0.00  0.00    +0.000 A 
ATOM      5  C   UNL     1       2.272   8.164  18.194  0.00  0.00    +0.000 A 
ATOM      6  C   UNL     1       2.153   7.590  19.467  0.00  0.00    +0.000 A 
ATOM      7  C   UNL     1       1.412   8.284  20.439  0.00  0.00    +0.000 A 
ATOM      8  C   UNL     1       0.820   9.519  20.147  0.00  0.00    +0.000 A 
ATOM      9 CL   UNL     1      -0.109  10.290  21.386  0.00  0.00    +0.000 Cl
BRANCH   3  11
ATOM     10  C   UNL     1       1.210  12.448  18.743  0.00  0.00    +0.000 C 
ATOM     11  O   UNL     1       0.360  11.310  18.661  0.00  0.00    +0.000 OA
ENDBRANCH   3  11
ENDBRANCH   1   6
BRANCH   1  12
ATOM     12  N   UNL     1       3.036   5.372  18.585  0.00  0.00    +0.000 NA
ATOM     13  C   UNL     1       4.336   4.685  18.770  0.00  0.00    +0.000 C 
ATOM     14  C   UNL     1       4.672   3.676  17.665  0.00  0.00    +0.000 C 
ATOM     15  C   UNL     1       3.559   2.648  17.448  0.00  0.00    +0.000 C 
ATOM     16  C   UNL     1       2.261   3.406  17.190  0.00  0.00    +0.000 C 
ATOM     17  C   UNL     1       1.948   4.423  18.289  0.00  0.00    +0.000 C 
BRANCH  15  18
ATOM     18  C   UNL     1       3.421   1.660  18.615  0.00  0.00    +0.000 C 
BRANCH  18  19
ATOM     19  O   UNL     1       4.391   0.626  18.507  0.00  0.00    +0.000 OA
ATOM     20  H   UNL     1       5.259   1.051  18.391  0.00  0.00    +0.000 HD
ENDBRANCH  18  19
ENDBRANCH  15  18
ENDBRANCH   1  12
TORSDOF 5
ENDMDL
MODEL 4
REMARK VINA RESULT:      -6.7      1.219      1.261
REMARK  Name = 
REMARK  7 active torsions:
REMARK  status: ('A' for Active; 'I' for Inactive)
REMARK    1  A    between atoms: C_1  and  O_2
REMARK    2  A    between atoms: O_2  and  C_3
REMARK    3  A    between atoms: C_6  and  C_7
REMARK    4  A    between atoms: C_7  and  C_8
REMARK    5  A    between atoms: C_7  and  N_9
REMARK    6  A    between atoms: C_12  and  C_13
REMARK    7  A    between atoms: C_13  and  O_14
REMARK                            x       y       z     vdW  Elec       q    Type
REMARK                         _______ _______ _______ _____ _____    ______ ____
ROOT
ATOM      1  C   UNL     1       3.119   6.221  18.896  0.00  0.00    +0.000 C 
ATOM      2  C   UNL     1       2.162   7.196  18.177  0.00  0.00    +0.000 C 
ENDROOT
BRANCH   1   6
ATOM      3  C   UNL     1       6.434   5.693  16.104  0.00  0.00    +0.000 A 
ATOM      4  C   UNL     1       5.285   4.904  15.992  0.00  0.00    +0.000 A 
ATOM      5  C   UNL     1       4.221   5.059  16.889  0.00  0.00    +0.000 A 
ATOM      6  C   UNL     1       4.292   5.981  17.943  0.00  0.00    +0.000 A 
ATOM      7  C   UNL     1       5.452   6.766  18.058  0.00  0.00    +0.000 A 
ATOM      8  C   UNL     1       6.511   6.623  17.153  0.00  0.00    +0.000 A 
ATOM      9 CL   UNL     1       7.886   7.656  17.340  0.00  0.00    +0.000 Cl
BRANCH   3  11
ATOM     10  C   UNL     1       7.298   4.936  14.025  0.00  0.00    +0.000 C 
ATOM     11  O   UNL     1       7.516   5.593  15.267  0.00  0.00    +0.000 OA
ENDBRANCH   3  11
ENDBRANCH   1   6
BRANCH   1  12
ATOM     12  N   UNL     1       2.458   4.966  19.386  0.00  0.00    +0.000 NA
ATOM     13  C   UNL     1       1.688   4.333  18.291  0.00  0.00    +0.000 C 
ATOM     14  C   UNL     1       1.116   2.955  18.645  0.00  0.00    +0.000 C 
ATOM     15  C   UNL     1       2.186   1.990  19.163  0.00  0.00    +0.000 C 
ATOM     16  C   UNL     1       2.897   2.660  20.334  0.00  0.00    +0.000 C 
ATOM     17  C   UNL     1       3.444   4.042  19.973  0.00  0.00    +0.000 C 
BRANCH  15  18
ATOM     18  C   UNL     1       3.171   1.547  18.073  0.00  0.00    +0.000 C 
BRANCH  18  19
ATOM     19  O   UNL     1       4.208   0.750  18.634  0.00  0.00    +0.000 OA
ATOM     20  H   UNL     1       4.946   0.744  18.000  0.00  0.00    +0.000 HD
ENDBRANCH  18  19
ENDBRANCH  15  18
ENDBRANCH   1  12
TORSDOF 5
ENDMDL
MODEL 5
REMARK VINA RESULT:      -6.7      3.089      5.913
REMARK  Name = 
REMARK  7 active torsions:
REMARK  status: ('A' for Active; 'I' for Inactive)
REMARK    1  A    between atoms: C_1  and  O_2
REMARK    2  A    between atoms: O_2  and  C_3
REMARK    3  A    between atoms: C_6  and  C_7
REMARK    4  A    between atoms: C_7  and  C_8
REMARK    5  A    between atoms: C_7  and  N_9
REMARK    6  A    between atoms: C_12  and  C_13
REMARK    7  A    between atoms: C_13  and  O_14
REMARK                            x       y       z     vdW  Elec       q    Type
REMARK                         _______ _______ _______ _____ _____    ______ ____
ROOT
ATOM      1  C   UNL     1       3.730   3.926  18.526  0.00  0.00    +0.000 C 
ATOM      2  C   UNL     1       3.059   3.524  17.195  0.00  0.00    +0.000 C 
ENDROOT
BRANCH   1   6
ATOM      3  C   UNL     1       1.746   7.528  19.994  0.00  0.00    +0.000 A 
ATOM      4  C   UNL     1       1.798   6.378  20.787  0.00  0.00    +0.000 A 
ATOM      5  C   UNL     1       2.423   5.215  20.320  0.00  0.00    +0.000 A 
ATOM      6  C   UNL     1       2.981   5.159  19.036  0.00  0.00    +0.000 A 
ATOM      7  C   UNL     1       2.919   6.314  18.237  0.00  0.00    +0.000 A 
ATOM      8  C   UNL     1       2.308   7.483  18.707  0.00  0.00    +0.000 A 
ATOM      9 CL   UNL     1       2.310   8.873  17.677  0.00  0.00    +0.000 Cl
BRANCH   3  11
ATOM     10  C   UNL     1       1.110   8.961  21.778  0.00  0.00    +0.000 C 
ATOM     11  O   UNL     1       1.148   8.700  20.381  0.00  0.00    +0.000 OA
ENDBRANCH   3  11
ENDBRANCH   1   6
BRANCH   1  12
ATOM     12  N   UNL     1       5.216   4.105  18.431  0.00  0.00    +0.000 NA
ATOM     13  C   UNL     1       5.616   4.312  17.020  0.00  0.00    +0.000 C 
ATOM     14  C   UNL     1       7.095   4.676  16.836  0.00  0.00    +0.000 C 
ATOM     15  C   UNL     1       7.514   5.879  17.684  0.00  0.00    +0.000 C 
ATOM     16  C   UNL     1       7.147   5.584  19.135  0.00  0.00    +0.000 C 
ATOM     17  C   UNL     1       5.676   5.203  19.301  0.00  0.00    +0.000 C 
BRANCH  15  18
ATOM     18  C   UNL     1       6.900   7.198  17.197  0.00  0.00    +0.000 C 
BRANCH  18  19
ATOM     19  O   UNL     1       7.877   8.232  17.198  0.00  0.00    +0.000 OA
ATOM     20  H   UNL     1       7.544   8.948  17.766  0.00  0.00    +0.000 HD
ENDBRANCH  18  19
ENDBRANCH  15  18
ENDBRANCH   1  12
TORSDOF 5
ENDMDL
MODEL 6
REMARK VINA RESULT:      -6.5      2.437      3.156
REMARK  Name = 
REMARK  7 active torsions:
REMARK  status: ('A' for Active; 'I' for Inactive)
REMARK    1  A    between atoms: C_1  and  O_2
REMARK    2  A    between atoms: O_2  and  C_3
REMARK    3  A    between atoms: C_6  and  C_7
REMARK    4  A    between atoms: C_7  and  C_8
REMARK    5  A    between atoms: C_7  and  N_9
REMARK    6  A    between atoms: C_12  and  C_13
REMARK    7  A    between atoms: C_13  and  O_14
REMARK                            x       y       z     vdW  Elec       q    Type
REMARK                         _______ _______ _______ _____ _____    ______ ____
ROOT
ATOM      1  C   UNL     1       5.210   3.973  18.222  0.00  0.00    +0.000 C 
ATOM      2  C   UNL     1       5.444   5.166  19.173  0.00  0.00    +0.000 C 
ENDROOT
BRANCH   1   6
ATOM      3  C   UNL     1       6.930   4.952  14.329  0.00  0.00    +0.000 A 
ATOM      4  C   UNL     1       7.538   5.406  15.504  0.00  0.00    +0.000 A 
ATOM      5  C   UNL     1       6.987   5.106  16.756  0.00  0.00    +0.000 A 
ATOM      6  C   UNL     1       5.797   4.375  16.867  0.00  0.00    +0.000 A 
ATOM      7  C   UNL     1       5.183   3.927  15.684  0.00  0.00    +0.000 A 
ATOM      8  C   UNL     1       5.739   4.213  14.431  0.00  0.00    +0.000 A 
ATOM      9 CL   UNL     1       4.945   3.592  13.026  0.00  0.00    +0.000 Cl
BRANCH   3  11
ATOM     10  C   UNL     1       8.689   5.822  12.992  0.00  0.00    +0.000 C 
ATOM     11  O   UNL     1       7.408   5.210  13.070  0.00  0.00    +0.000 OA
ENDBRANCH   3  11
ENDBRANCH   1   6
BRANCH   1  12
ATOM     12  N   UNL     1       3.783   3.511  18.161  0.00  0.00    +0.000 NA
ATOM     13  C   UNL     1       3.571   2.387  19.102  0.00  0.00    +0.000 C 
ATOM     14  C   UNL     1       2.106   1.956  19.240  0.00  0.00    +0.000 C 
ATOM     15  C   UNL     1       1.181   3.122  19.597  0.00  0.00    +0.000 C 
ATOM     16  C   UNL     1       1.386   4.220  18.558  0.00  0.00    +0.000 C 
ATOM     17  C   UNL     1       2.853   4.626  18.416  0.00  0.00    +0.000 C 
BRANCH  15  18
ATOM     18  C   UNL     1       1.395   3.640  21.025  0.00  0.00    +0.000 C 
BRANCH  18  19
ATOM     19  O   UNL     1       1.427   2.557  21.947  0.00  0.00    +0.000 OA
ATOM     20  H   UNL     1       2.090   2.772  22.627  0.00  0.00    +0.000 HD
ENDBRANCH  18  19
ENDBRANCH  15  18
ENDBRANCH   1  12
TORSDOF 5
ENDMDL
MODEL 7
REMARK VINA RESULT:      -6.5      3.829      6.086
REMARK  Name = 
REMARK  7 active torsions:
REMARK  status: ('A' for Active; 'I' for Inactive)
REMARK    1  A    between atoms: C_1  and  O_2
REMARK    2  A    between atoms: O_2  and  C_3
REMARK    3  A    between atoms: C_6  and  C_7
REMARK    4  A    between atoms: C_7  and  C_8
REMARK    5  A    between atoms: C_7  and  N_9
REMARK    6  A    between atoms: C_12  and  C_13
REMARK    7  A    between atoms: C_13  and  O_14
REMARK                            x       y       z     vdW  Elec       q    Type
REMARK                         _______ _______ _______ _____ _____    ______ ____
ROOT
ATOM      1  C   UNL     1       2.995   6.299  19.370  0.00  0.00    +0.000 C 
ATOM      2  C   UNL     1       2.197   5.218  20.129  0.00  0.00    +0.000 C 
ENDROOT
BRANCH   1   6
ATOM      3  C   UNL     1       0.502   9.875  19.630  0.00  0.00    +0.000 A 
ATOM      4  C   UNL     1       1.130   9.539  18.427  0.00  0.00    +0.000 A 
ATOM      5  C   UNL     1       1.940   8.399  18.337  0.00  0.00    +0.000 A 
ATOM      6  C   UNL     1       2.172   7.587  19.455  0.00  0.00    +0.000 A 
ATOM      7  C   UNL     1       1.546   7.933  20.665  0.00  0.00    +0.000 A 
ATOM      8  C   UNL     1       0.724   9.063  20.754  0.00  0.00    +0.000 A 
ATOM      9 CL   UNL     1      -0.041   9.396  22.269  0.00  0.00    +0.000 Cl
BRANCH   3  11
ATOM     10  C   UNL     1      -0.619  11.709  18.618  0.00  0.00    +0.000 C 
ATOM     11  O   UNL     1      -0.299  10.976  19.794  0.00  0.00    +0.000 OA
ENDBRANCH   3  11
ENDBRANCH   1   6
BRANCH   1  12
ATOM     12  N   UNL     1       3.381   5.907  17.974  0.00  0.00    +0.000 NA
ATOM     13  C   UNL     1       4.512   6.740  17.504  0.00  0.00    +0.000 C 
ATOM     14  C   UNL     1       5.093   6.301  16.154  0.00  0.00    +0.000 C 
ATOM     15  C   UNL     1       5.484   4.821  16.135  0.00  0.00    +0.000 C 
ATOM     16  C   UNL     1       4.265   4.006  16.555  0.00  0.00    +0.000 C 
ATOM     17  C   UNL     1       3.685   4.467  17.892  0.00  0.00    +0.000 C 
BRANCH  15  18
ATOM     18  C   UNL     1       6.706   4.514  17.011  0.00  0.00    +0.000 C 
BRANCH  18  19
ATOM     19  O   UNL     1       7.895   4.529  16.229  0.00  0.00    +0.000 OA
ATOM     20  H   UNL     1       8.639   4.697  16.834  0.00  0.00    +0.000 HD
ENDBRANCH  18  19
ENDBRANCH  15  18
ENDBRANCH   1  12
TORSDOF 5
ENDMDL
MODEL 8
REMARK VINA RESULT:      -6.5      3.408      5.204
REMARK  Name = 
REMARK  7 active torsions:
REMARK  status: ('A' for Active; 'I' for Inactive)
REMARK    1  A    between atoms: C_1  and  O_2
REMARK    2  A    between atoms: O_2  and  C_3
REMARK    3  A    between atoms: C_6  and  C_7
REMARK    4  A    between atoms: C_7  and  C_8
REMARK    5  A    between atoms: C_7  and  N_9
REMARK    6  A    between atoms: C_12  and  C_13
REMARK    7  A    between atoms: C_13  and  O_14
REMARK                            x       y       z     vdW  Elec       q    Type
REMARK                         _______ _______ _______ _____ _____    ______ ____
ROOT
ATOM      1  C   UNL     1       3.395   5.695  17.720  0.00  0.00    +0.000 C 
ATOM      2  C   UNL     1       4.898   5.958  17.955  0.00  0.00    +0.000 C 
ENDROOT
BRANCH   1   6
ATOM      3  C   UNL     1       1.371   8.634  20.236  0.00  0.00    +0.000 A 
ATOM      4  C   UNL     1       1.738   7.390  20.759  0.00  0.00    +0.000 A 
ATOM      5  C   UNL     1       2.379   6.438  19.957  0.00  0.00    +0.000 A 
ATOM      6  C   UNL     1       2.636   6.688  18.602  0.00  0.00    +0.000 A 
ATOM      7  C   UNL     1       2.258   7.936  18.077  0.00  0.00    +0.000 A 
ATOM      8  C   UNL     1       1.631   8.896  18.881  0.00  0.00    +0.000 A 
ATOM      9 CL   UNL     1       1.234  10.421  18.168  0.00  0.00    +0.000 Cl
BRANCH   3  11
ATOM     10  C   UNL     1       0.515   9.339  22.337  0.00  0.00    +0.000 C 
ATOM     11  O   UNL     1       0.737   9.612  20.959  0.00  0.00    +0.000 OA
ENDBRANCH   3  11
ENDBRANCH   1   6
BRANCH   1  12
ATOM     12  N   UNL     1       2.988   4.264  17.913  0.00  0.00    +0.000 NA
ATOM     13  C   UNL     1       3.812   3.638  18.973  0.00  0.00    +0.000 C 
ATOM     14  C   UNL     1       3.358   2.226  19.365  0.00  0.00    +0.000 C 
ATOM     15  C   UNL     1       1.876   2.170  19.747  0.00  0.00    +0.000 C 
ATOM     16  C   UNL     1       1.070   2.758  18.594  0.00  0.00    +0.000 C 
ATOM     17  C   UNL     1       1.546   4.157  18.200  0.00  0.00    +0.000 C 
BRANCH  15  18
ATOM     18  C   UNL     1       1.573   2.876  21.075  0.00  0.00    +0.000 C 
BRANCH  18  19
ATOM     19  O   UNL     1       2.576   2.575  22.038  0.00  0.00    +0.000 OA
ATOM     20  H   UNL     1       2.128   2.422  22.888  0.00  0.00    +0.000 HD
ENDBRANCH  18  19
ENDBRANCH  15  18
ENDBRANCH   1  12
TORSDOF 5
ENDMDL
MODEL 9
REMARK VINA RESULT:      -6.4      3.398      4.761
REMARK  Name = 
REMARK  7 active torsions:
REMARK  status: ('A' for Active; 'I' for Inactive)
REMARK    1  A    between atoms: C_1  and  O_2
REMARK    2  A    between atoms: O_2  and  C_3
REMARK    3  A    between atoms: C_6  and  C_7
REMARK    4  A    between atoms: C_7  and  C_8
REMARK    5  A    between atoms: C_7  and  N_9
REMARK    6  A    between atoms: C_12  and  C_13
REMARK    7  A    between atoms: C_13  and  O_14
REMARK                            x       y       z     vdW  Elec       q    Type
REMARK                         _______ _______ _______ _____ _____    ______ ____
ROOT
ATOM      1  C   UNL     1       4.041   5.551  17.900  0.00  0.00    +0.000 C 
ATOM      2  C   UNL     1       5.358   5.632  18.701  0.00  0.00    +0.000 C 
ENDROOT
BRANCH   1   6
ATOM      3  C   UNL     1       1.537   8.944  19.031  0.00  0.00    +0.000 A 
ATOM      4  C   UNL     1       2.122   8.891  17.762  0.00  0.00    +0.000 A 
ATOM      5  C   UNL     1       2.935   7.811  17.394  0.00  0.00    +0.000 A 
ATOM      6  C   UNL     1       3.214   6.775  18.296  0.00  0.00    +0.000 A 
ATOM      7  C   UNL     1       2.631   6.836  19.574  0.00  0.00    +0.000 A 
ATOM      8  C   UNL     1       1.806   7.907  19.939  0.00  0.00    +0.000 A 
ATOM      9 CL   UNL     1       1.096   7.887  21.516  0.00  0.00    +0.000 Cl
BRANCH   3  11
ATOM     10  C   UNL     1      -0.422  10.241  18.682  0.00  0.00    +0.000 C 
ATOM     11  O   UNL     1       0.736   9.970  19.462  0.00  0.00    +0.000 OA
ENDBRANCH   3  11
ENDBRANCH   1   6
BRANCH   1  12
ATOM     12  N   UNL     1       3.317   4.245  18.047  0.00  0.00    +0.000 NA
ATOM     13  C   UNL     1       3.838   3.501  19.218  0.00  0.00    +0.000 C 
ATOM     14  C   UNL     1       3.045   2.232  19.554  0.00  0.00    +0.000 C 
ATOM     15  C   UNL     1       1.548   2.502  19.726  0.00  0.00    +0.000 C 
ATOM     16  C   UNL     1       1.048   3.202  18.466  0.00  0.00    +0.000 C 
ATOM     17  C   UNL     1       1.860   4.453  18.130  0.00  0.00    +0.000 C 
BRANCH  15  18
ATOM     18  C   UNL     1       1.225   3.306  20.992  0.00  0.00    +0.000 C 
BRANCH  18  19
ATOM     19  O   UNL     1       1.879   2.739  22.121  0.00  0.00    +0.000 OA
ATOM     20  H   UNL     1       1.191   2.367  22.700  0.00  0.00    +0.000 HD
ENDBRANCH  18  19
ENDBRANCH  15  18
ENDBRANCH   1  12
TORSDOF 5
ENDMDL
