MODEL 1
REMARK VINA RESULT:      -8.0      0.000      0.000
REMARK  Name = 
REMARK  11 active torsions:
REMARK  status: ('A' for Active; 'I' for Inactive)
REMARK    1  A    between atoms: C_1  and  C_2
REMARK    2  A    between atoms: C_2  and  N_3
REMARK    3  A    between atoms: C_2  and  C_9
REMARK    4  A    between atoms: N_6  and  C_7
REMARK    5  A    between atoms: N_6  and  C_8
REMARK    6  A    between atoms: C_12  and  O_13
REMARK    7  A    between atoms: O_13  and  C_14
REMARK    8  A    between atoms: N_17  and  C_18
REMARK    9  A    between atoms: C_22  and  O_23
REMARK   10  A    between atoms: O_23  and  C_24
REMARK   11  A    between atoms: C_24  and  C_25
REMARK                            x       y       z     vdW  Elec       q    Type
REMARK                         _______ _______ _______ _____ _____    ______ ____
ROOT
ATOM      1  C   UNL     1       2.309   6.560  19.347  0.00  0.00    +0.000 C 
ATOM      2  C   UNL     1       2.333   5.093  19.790  0.00  0.00    +0.000 C 
ATOM      3  C   UNL     1       3.797   4.650  19.730  0.00  0.00    +0.000 C 
ATOM      4  N   UNL     1       4.379   5.505  18.715  0.00  0.00    +0.000 N 
ATOM      5  C   UNL     1       3.593   6.715  18.505  0.00  0.00    +0.000 C 
ENDROOT
BRANCH   4   6
ATOM      6  C   UNL     1       5.562   5.227  18.069  0.00  0.00    +0.000 A 
ATOM      7  N   UNL     1       6.644   4.937  18.828  0.00  0.00    +0.000 NA
ATOM      8  C   UNL     1       7.786   4.610  18.196  0.00  0.00    +0.000 A 
ATOM      9  N   UNL     1       7.967   4.528  16.871  0.00  0.00    +0.000 NA
ATOM     10  C   UNL     1       6.881   4.826  16.136  0.00  0.00    +0.000 A 
ATOM     11  C   UNL     1       5.670   5.199  16.680  0.00  0.00    +0.000 A 
ATOM     12  F   UNL     1       4.632   5.484  15.873  0.00  0.00    +0.000 F 
BRANCH  10  13
ATOM     13  O   UNL     1       6.971   4.789  14.753  0.00  0.00    +0.000 OA
BRANCH  13  14
ATOM     14  C   UNL     1       6.314   3.648  14.198  0.00  0.00    +0.000 C 
BRANCH  14  15
ATOM     15  C   UNL     1       6.062   3.889  12.737  0.00  0.00    +0.000 C 
ATOM     16  C   UNL     1       6.741   2.993  11.731  0.00  0.00    +0.000 C 
ATOM     17  C   UNL     1       5.249   2.932  11.903  0.00  0.00    +0.000 C 
ENDBRANCH  14  15
ENDBRANCH  13  14
ENDBRANCH  10  13
ENDBRANCH   4   6
BRANCH   1  18
ATOM     18  O   UNL     1       2.253   7.410  20.506  0.00  0.00    +0.000 OA
BRANCH  18  22
ATOM     19  C   UNL     1      -0.068  10.920  20.497  0.00  0.00    +0.000 A 
ATOM     20  C   UNL     1       0.156  10.181  21.667  0.00  0.00    +0.000 A 
ATOM     21  C   UNL     1       0.901   8.988  21.630  0.00  0.00    +0.000 A 
ATOM     22  C   UNL     1       1.419   8.500  20.426  0.00  0.00    +0.000 A 
ATOM     23  C   UNL     1       1.130   9.190  19.253  0.00  0.00    +0.000 A 
ATOM     24  C   UNL     1       0.403  10.383  19.288  0.00  0.00    +0.000 A 
BRANCH  19  26
ATOM     25  C   UNL     1       0.414  13.398  20.842  0.00  0.00    +0.000 C 
ATOM     26  C   UNL     1      -0.651  12.330  20.550  0.00  0.00    +0.000 C 
BRANCH  26  27
ATOM     27  N   UNL     1      -1.670  12.337  21.593  0.00  0.00    +0.000 N 
ATOM     28  C   UNL     1      -2.935  12.840  21.425  0.00  0.00    +0.000 C 
ATOM     29  O   UNL     1      -3.301  13.308  20.353  0.00  0.00    +0.000 OA
ATOM     30  N   UNL     1      -3.755  12.768  22.545  0.00  0.00    +0.000 N 
ATOM     31  C   UNL     1      -3.407  12.210  23.849  0.00  0.00    +0.000 C 
ATOM     32  C   UNL     1      -5.079  13.371  22.479  0.00  0.00    +0.000 C 
ATOM     33  H   UNL     1      -1.316  12.300  22.530  0.00  0.00    +0.000 HD
ENDBRANCH  26  27
ENDBRANCH  19  26
ENDBRANCH  18  22
ENDBRANCH   1  18
TORSDOF 8
ENDMDL
MODEL 2
REMARK VINA RESULT:      -8.0      1.702      1.917
REMARK  Name = 
REMARK  11 active torsions:
REMARK  status: ('A' for Active; 'I' for Inactive)
REMARK    1  A    between atoms: C_1  and  C_2
REMARK    2  A    between atoms: C_2  and  N_3
REMARK    3  A    between atoms: C_2  and  C_9
REMARK    4  A    between atoms: N_6  and  C_7
REMARK    5  A    between atoms: N_6  and  C_8
REMARK    6  A    between atoms: C_12  and  O_13
REMARK    7  A    between atoms: O_13  and  C_14
REMARK    8  A    between atoms: N_17  and  C_18
REMARK    9  A    between atoms: C_22  and  O_23
REMARK   10  A    between atoms: O_23  and  C_24
REMARK   11  A    between atoms: C_24  and  C_25
REMARK                            x       y       z     vdW  Elec       q    Type
REMARK                         _______ _______ _______ _____ _____    ______ ____
ROOT
ATOM      1  C   UNL     1       2.153   6.419  19.428  0.00  0.00    +0.000 C 
ATOM      2  C   UNL     1       2.310   5.055  20.109  0.00  0.00    +0.000 C 
ATOM      3  C   UNL     1       3.796   4.701  20.024  0.00  0.00    +0.000 C 
ATOM      4  N   UNL     1       4.254   5.402  18.841  0.00  0.00    +0.000 N 
ATOM      5  C   UNL     1       3.371   6.506  18.485  0.00  0.00    +0.000 C 
ENDROOT
BRANCH   4   6
ATOM      6  C   UNL     1       5.416   5.092  18.171  0.00  0.00    +0.000 A 
ATOM      7  N   UNL     1       6.586   5.226  18.837  0.00  0.00    +0.000 NA
ATOM      8  C   UNL     1       7.717   4.869  18.201  0.00  0.00    +0.000 A 
ATOM      9  N   UNL     1       7.809   4.373  16.959  0.00  0.00    +0.000 NA
ATOM     10  C   UNL     1       6.636   4.253  16.314  0.00  0.00    +0.000 A 
ATOM     11  C   UNL     1       5.422   4.615  16.862  0.00  0.00    +0.000 A 
ATOM     12  F   UNL     1       4.293   4.465  16.146  0.00  0.00    +0.000 F 
BRANCH  10  13
ATOM     13  O   UNL     1       6.627   3.768  15.016  0.00  0.00    +0.000 OA
BRANCH  13  14
ATOM     14  C   UNL     1       7.011   4.761  14.063  0.00  0.00    +0.000 C 
BRANCH  14  15
ATOM     15  C   UNL     1       6.278   4.518  12.776  0.00  0.00    +0.000 C 
ATOM     16  C   UNL     1       6.985   3.770  11.673  0.00  0.00    +0.000 C 
ATOM     17  C   UNL     1       5.814   3.141  12.374  0.00  0.00    +0.000 C 
ENDBRANCH  14  15
ENDBRANCH  13  14
ENDBRANCH  10  13
ENDBRANCH   4   6
BRANCH   1  18
ATOM     18  O   UNL     1       2.100   7.451  20.427  0.00  0.00    +0.000 OA
BRANCH  18  22
ATOM     19  C   UNL     1      -0.310  10.865  19.939  0.00  0.00    +0.000 A 
ATOM     20  C   UNL     1      -0.416  10.037  21.065  0.00  0.00    +0.000 A 
ATOM     21  C   UNL     1       0.374   8.878  21.180  0.00  0.00    +0.000 A 
ATOM     22  C   UNL     1       1.268   8.514  20.168  0.00  0.00    +0.000 A 
ATOM     23  C   UNL     1       1.316   9.292  19.016  0.00  0.00    +0.000 A 
ATOM     24  C   UNL     1       0.544  10.451  18.905  0.00  0.00    +0.000 A 
BRANCH  19  26
ATOM     25  C   UNL     1      -0.817  12.999  21.237  0.00  0.00    +0.000 C 
ATOM     26  C   UNL     1      -0.964  12.245  19.907  0.00  0.00    +0.000 C 
BRANCH  26  27
ATOM     27  N   UNL     1      -2.375  12.046  19.595  0.00  0.00    +0.000 N 
ATOM     28  C   UNL     1      -2.857  11.840  18.327  0.00  0.00    +0.000 C 
ATOM     29  O   UNL     1      -2.110  11.790  17.358  0.00  0.00    +0.000 OA
ATOM     30  N   UNL     1      -4.236  11.687  18.236  0.00  0.00    +0.000 N 
ATOM     31  C   UNL     1      -5.194  11.713  19.339  0.00  0.00    +0.000 C 
ATOM     32  C   UNL     1      -4.838  11.565  16.915  0.00  0.00    +0.000 C 
ATOM     33  H   UNL     1      -3.013  12.421  20.270  0.00  0.00    +0.000 HD
ENDBRANCH  26  27
ENDBRANCH  19  26
ENDBRANCH  18  22
ENDBRANCH   1  18
TORSDOF 8
ENDMDL
MODEL 3
REMARK VINA RESULT:      -8.0      1.627      2.750
REMARK  Name = 
REMARK  11 active torsions:
REMARK  status: ('A' for Active; 'I' for Inactive)
REMARK    1  A    between atoms: C_1  and  C_2
REMARK    2  A    between atoms: C_2  and  N_3
REMARK    3  A    between atoms: C_2  and  C_9
REMARK    4  A    between atoms: N_6  and  C_7
REMARK    5  A    between atoms: N_6  and  C_8
REMARK    6  A    between atoms: C_12  and  O_13
REMARK    7  A    between atoms: O_13  and  C_14
REMARK    8  A    between atoms: N_17  and  C_18
REMARK    9  A    between atoms: C_22  and  O_23
REMARK   10  A    between atoms: O_23  and  C_24
REMARK   11  A    between atoms: C_24  and  C_25
REMARK                            x       y       z     vdW  Elec       q    Type
REMARK                         _______ _______ _______ _____ _____    ______ ____
ROOT
ATOM      1  C   UNL     1       2.128   6.522  19.526  0.00  0.00    +0.000 C 
ATOM      2  C   UNL     1       2.071   5.011  19.778  0.00  0.00    +0.000 C 
ATOM      3  C   UNL     1       3.517   4.513  19.728  0.00  0.00    +0.000 C 
ATOM      4  N   UNL     1       4.183   5.462  18.858  0.00  0.00    +0.000 N 
ATOM      5  C   UNL     1       3.458   6.724  18.770  0.00  0.00    +0.000 C 
ENDROOT
BRANCH   4   6
ATOM      6  C   UNL     1       5.386   5.215  18.236  0.00  0.00    +0.000 A 
ATOM      7  N   UNL     1       6.456   4.933  19.016  0.00  0.00    +0.000 NA
ATOM      8  C   UNL     1       7.618   4.636  18.407  0.00  0.00    +0.000 A 
ATOM      9  N   UNL     1       7.831   4.575  17.085  0.00  0.00    +0.000 NA
ATOM     10  C   UNL     1       6.757   4.864  16.329  0.00  0.00    +0.000 A 
ATOM     11  C   UNL     1       5.527   5.208  16.850  0.00  0.00    +0.000 A 
ATOM     12  F   UNL     1       4.503   5.486  16.023  0.00  0.00    +0.000 F 
BRANCH  10  13
ATOM     13  O   UNL     1       6.879   4.848  14.948  0.00  0.00    +0.000 OA
BRANCH  13  14
ATOM     14  C   UNL     1       6.295   3.681  14.366  0.00  0.00    +0.000 C 
BRANCH  14  15
ATOM     15  C   UNL     1       5.922   3.977  12.942  0.00  0.00    +0.000 C 
ATOM     16  C   UNL     1       6.883   3.582  11.848  0.00  0.00    +0.000 C 
ATOM     17  C   UNL     1       5.559   2.881  11.972  0.00  0.00    +0.000 C 
ENDBRANCH  14  15
ENDBRANCH  13  14
ENDBRANCH  10  13
ENDBRANCH   4   6
BRANCH   1  18
ATOM     18  O   UNL     1       2.046   7.220  20.780  0.00  0.00    +0.000 OA
BRANCH  18  22
ATOM     19  C   UNL     1      -0.009  10.880  21.078  0.00  0.00    +0.000 A 
ATOM     20  C   UNL     1       0.102  10.001  22.164  0.00  0.00    +0.000 A 
ATOM     21  C   UNL     1       0.759   8.765  22.022  0.00  0.00    +0.000 A 
ATOM     22  C   UNL     1       1.299   8.374  20.792  0.00  0.00    +0.000 A 
ATOM     23  C   UNL     1       1.118   9.210  19.695  0.00  0.00    +0.000 A 
ATOM     24  C   UNL     1       0.480  10.444  19.836  0.00  0.00    +0.000 A 
BRANCH  19  26
ATOM     25  C   UNL     1      -1.963  12.502  20.878  0.00  0.00    +0.000 C 
ATOM     26  C   UNL     1      -0.490  12.317  21.268  0.00  0.00    +0.000 C 
BRANCH  26  27
ATOM     27  N   UNL     1       0.360  13.169  20.444  0.00  0.00    +0.000 N 
ATOM     28  C   UNL     1       1.293  14.039  20.950  0.00  0.00    +0.000 C 
ATOM     29  O   UNL     1       1.487  14.140  22.156  0.00  0.00    +0.000 OA
ATOM     30  N   UNL     1       1.992  14.774  20.001  0.00  0.00    +0.000 N 
ATOM     31  C   UNL     1       1.838  14.701  18.550  0.00  0.00    +0.000 C 
ATOM     32  C   UNL     1       2.929  15.792  20.458  0.00  0.00    +0.000 C 
ATOM     33  H   UNL     1      -0.001  13.369  19.532  0.00  0.00    +0.000 HD
ENDBRANCH  26  27
ENDBRANCH  19  26
ENDBRANCH  18  22
ENDBRANCH   1  18
TORSDOF 8
ENDMDL
MODEL 4
REMARK VINA RESULT:      -7.9      0.922      1.266
REMARK  Name = 
REMARK  11 active torsions:
REMARK  status: ('A' for Active; 'I' for Inactive)
REMARK    1  A    between atoms: C_1  and  C_2
REMARK    2  A    between atoms: C_2  and  N_3
REMARK    3  A    between atoms: C_2  and  C_9
REMARK    4  A    between atoms: N_6  and  C_7
REMARK    5  A    between atoms: N_6  and  C_8
REMARK    6  A    between atoms: C_12  and  O_13
REMARK    7  A    between atoms: O_13  and  C_14
REMARK    8  A    between atoms: N_17  and  C_18
REMARK    9  A    between atoms: C_22  and  O_23
REMARK   10  A    between atoms: O_23  and  C_24
REMARK   11  A    between atoms: C_24  and  C_25
REMARK                            x       y       z     vdW  Elec       q    Type
REMARK                         _______ _______ _______ _____ _____    ______ ____
ROOT
ATOM      1  C   UNL     1       2.194   7.150  18.353  0.00  0.00    +0.000 C 
ATOM      2  C   UNL     1       1.909   5.649  18.488  0.00  0.00    +0.000 C 
ATOM      3  C   UNL     1       3.273   4.956  18.537  0.00  0.00    +0.000 C 
ATOM      4  N   UNL     1       4.145   5.851  17.803  0.00  0.00    +0.000 N 
ATOM      5  C   UNL     1       3.608   7.206  17.739  0.00  0.00    +0.000 C 
ENDROOT
BRANCH   4   6
ATOM      6  C   UNL     1       5.360   5.474  17.279  0.00  0.00    +0.000 A 
ATOM      7  N   UNL     1       6.323   5.069  18.140  0.00  0.00    +0.000 NA
ATOM      8  C   UNL     1       7.491   4.647  17.624  0.00  0.00    +0.000 A 
ATOM      9  N   UNL     1       7.806   4.570  16.324  0.00  0.00    +0.000 NA
ATOM     10  C   UNL     1       6.838   4.981  15.486  0.00  0.00    +0.000 A 
ATOM     11  C   UNL     1       5.615   5.459  15.909  0.00  0.00    +0.000 A 
ATOM     12  F   UNL     1       4.701   5.854  15.004  0.00  0.00    +0.000 F 
BRANCH  10  13
ATOM     13  O   UNL     1       7.073   4.959  14.121  0.00  0.00    +0.000 OA
BRANCH  13  14
ATOM     14  C   UNL     1       6.919   3.652  13.565  0.00  0.00    +0.000 C 
BRANCH  14  15
ATOM     15  C   UNL     1       6.218   3.759  12.242  0.00  0.00    +0.000 C 
ATOM     16  C   UNL     1       5.818   2.489  11.532  0.00  0.00    +0.000 C 
ATOM     17  C   UNL     1       4.761   3.405  12.083  0.00  0.00    +0.000 C 
ENDBRANCH  14  15
ENDBRANCH  13  14
ENDBRANCH  10  13
ENDBRANCH   4   6
BRANCH   1  18
ATOM     18  O   UNL     1       2.079   7.778  19.641  0.00  0.00    +0.000 OA
BRANCH  18  22
ATOM     19  C   UNL     1      -0.212  11.307  19.569  0.00  0.00    +0.000 A 
ATOM     20  C   UNL     1       0.230  10.685  18.393  0.00  0.00    +0.000 A 
ATOM     21  C   UNL     1       1.031   9.529  18.450  0.00  0.00    +0.000 A 
ATOM     22  C   UNL     1       1.422   8.984  19.678  0.00  0.00    +0.000 A 
ATOM     23  C   UNL     1       1.050   9.646  20.844  0.00  0.00    +0.000 A 
ATOM     24  C   UNL     1       0.242  10.785  20.791  0.00  0.00    +0.000 A 
BRANCH  19  26
ATOM     25  C   UNL     1      -0.682  13.793  19.277  0.00  0.00    +0.000 C 
ATOM     26  C   UNL     1      -1.276  12.401  19.534  0.00  0.00    +0.000 C 
BRANCH  26  27
ATOM     27  N   UNL     1      -1.963  12.377  20.820  0.00  0.00    +0.000 N 
ATOM     28  C   UNL     1      -3.298  12.653  20.981  0.00  0.00    +0.000 C 
ATOM     29  O   UNL     1      -4.015  12.925  20.025  0.00  0.00    +0.000 OA
ATOM     30  N   UNL     1      -3.761  12.591  22.290  0.00  0.00    +0.000 N 
ATOM     31  C   UNL     1      -2.982  12.257  23.479  0.00  0.00    +0.000 C 
ATOM     32  C   UNL     1      -5.142  12.969  22.559  0.00  0.00    +0.000 C 
ATOM     33  H   UNL     1      -1.372  12.509  21.618  0.00  0.00    +0.000 HD
ENDBRANCH  26  27
ENDBRANCH  19  26
ENDBRANCH  18  22
ENDBRANCH   1  18
TORSDOF 8
ENDMDL
MODEL 5
REMARK VINA RESULT:      -7.7      1.366      1.674
REMARK  Name = 
REMARK  11 active torsions:
REMARK  status: ('A' for Active; 'I' for Inactive)
REMARK    1  A    between atoms: C_1  and  C_2
REMARK    2  A    between atoms: C_2  and  N_3
REMARK    3  A    between atoms: C_2  and  C_9
REMARK    4  A    between atoms: N_6  and  C_7
REMARK    5  A    between atoms: N_6  and  C_8
REMARK    6  A    between atoms: C_12  and  O_13
REMARK    7  A    between atoms: O_13  and  C_14
REMARK    8  A    between atoms: N_17  and  C_18
REMARK    9  A    between atoms: C_22  and  O_23
REMARK   10  A    between atoms: O_23  and  C_24
REMARK   11  A    between atoms: C_24  and  C_25
REMARK                            x       y       z     vdW  Elec       q    Type
REMARK                         _______ _______ _______ _____ _____    ______ ____
ROOT
ATOM      1  C   UNL     1       2.093   6.802  19.321  0.00  0.00    +0.000 C 
ATOM      2  C   UNL     1       2.373   5.354  19.742  0.00  0.00    +0.000 C 
ATOM      3  C   UNL     1       3.835   5.079  19.382  0.00  0.00    +0.000 C 
ATOM      4  N   UNL     1       4.097   5.976  18.274  0.00  0.00    +0.000 N 
ATOM      5  C   UNL     1       3.152   7.086  18.236  0.00  0.00    +0.000 C 
ENDROOT
BRANCH   4   6
ATOM      6  C   UNL     1       5.148   5.823  17.399  0.00  0.00    +0.000 A 
ATOM      7  N   UNL     1       6.178   6.697  17.487  0.00  0.00    +0.000 NA
ATOM      8  C   UNL     1       7.231   6.512  16.670  0.00  0.00    +0.000 A 
ATOM      9  N   UNL     1       7.378   5.531  15.769  0.00  0.00    +0.000 NA
ATOM     10  C   UNL     1       6.341   4.678  15.694  0.00  0.00    +0.000 A 
ATOM     11  C   UNL     1       5.202   4.790  16.465  0.00  0.00    +0.000 A 
ATOM     12  F   UNL     1       4.208   3.895  16.325  0.00  0.00    +0.000 F 
BRANCH  10  13
ATOM     13  O   UNL     1       6.387   3.639  14.778  0.00  0.00    +0.000 OA
BRANCH  13  14
ATOM     14  C   UNL     1       6.088   4.073  13.450  0.00  0.00    +0.000 C 
BRANCH  14  15
ATOM     15  C   UNL     1       5.137   3.098  12.817  0.00  0.00    +0.000 C 
ATOM     16  C   UNL     1       4.489   3.470  11.507  0.00  0.00    +0.000 C 
ATOM     17  C   UNL     1       5.490   2.350  11.556  0.00  0.00    +0.000 C 
ENDBRANCH  14  15
ENDBRANCH  13  14
ENDBRANCH  10  13
ENDBRANCH   4   6
BRANCH   1  18
ATOM     18  O   UNL     1       2.176   7.659  20.472  0.00  0.00    +0.000 OA
BRANCH  18  22
ATOM     19  C   UNL     1      -0.570  10.788  21.090  0.00  0.00    +0.000 A 
ATOM     20  C   UNL     1      -0.386   9.765  22.031  0.00  0.00    +0.000 A 
ATOM     21  C   UNL     1       0.509   8.709  21.777  0.00  0.00    +0.000 A 
ATOM     22  C   UNL     1       1.221   8.642  20.575  0.00  0.00    +0.000 A 
ATOM     23  C   UNL     1       0.979   9.614  19.608  0.00  0.00    +0.000 A 
ATOM     24  C   UNL     1       0.103  10.671  19.863  0.00  0.00    +0.000 A 
BRANCH  19  26
ATOM     25  C   UNL     1      -1.681  12.145  22.937  0.00  0.00    +0.000 C 
ATOM     26  C   UNL     1      -1.335  12.061  21.443  0.00  0.00    +0.000 C 
BRANCH  26  27
ATOM     27  N   UNL     1      -2.554  12.067  20.644  0.00  0.00    +0.000 N 
ATOM     28  C   UNL     1      -3.489  13.072  20.680  0.00  0.00    +0.000 C 
ATOM     29  O   UNL     1      -3.340  14.059  21.390  0.00  0.00    +0.000 OA
ATOM     30  N   UNL     1      -4.590  12.886  19.853  0.00  0.00    +0.000 N 
ATOM     31  C   UNL     1      -4.835  11.753  18.963  0.00  0.00    +0.000 C 
ATOM     32  C   UNL     1      -5.675  13.857  19.907  0.00  0.00    +0.000 C 
ATOM     33  H   UNL     1      -2.869  11.165  20.344  0.00  0.00    +0.000 HD
ENDBRANCH  26  27
ENDBRANCH  19  26
ENDBRANCH  18  22
ENDBRANCH   1  18
TORSDOF 8
ENDMDL
MODEL 6
REMARK VINA RESULT:      -7.7      1.373      1.973
REMARK  Name = 
REMARK  11 active torsions:
REMARK  status: ('A' for Active; 'I' for Inactive)
REMARK    1  A    between atoms: C_1  and  C_2
REMARK    2  A    between atoms: C_2  and  N_3
REMARK    3  A    between atoms: C_2  and  C_9
REMARK    4  A    between atoms: N_6  and  C_7
REMARK    5  A    between atoms: N_6  and  C_8
REMARK    6  A    between atoms: C_12  and  O_13
REMARK    7  A    between atoms: O_13  and  C_14
REMARK    8  A    between atoms: N_17  and  C_18
REMARK    9  A    between atoms: C_22  and  O_23
REMARK   10  A    between atoms: O_23  and  C_24
REMARK   11  A    between atoms: C_24  and  C_25
REMARK                            x       y       z     vdW  Elec       q    Type
REMARK                         _______ _______ _______ _____ _____    ______ ____
ROOT
ATOM      1  C   UNL     1       2.290   6.808  19.370  0.00  0.00    +0.000 C 
ATOM      2  C   UNL     1       2.220   5.338  19.798  0.00  0.00    +0.000 C 
ATOM      3  C   UNL     1       3.657   4.813  19.768  0.00  0.00    +0.000 C 
ATOM      4  N   UNL     1       4.310   5.643  18.774  0.00  0.00    +0.000 N 
ATOM      5  C   UNL     1       3.600   6.897  18.559  0.00  0.00    +0.000 C 
ENDROOT
BRANCH   4   6
ATOM      6  C   UNL     1       5.491   5.304  18.153  0.00  0.00    +0.000 A 
ATOM      7  N   UNL     1       6.552   4.996  18.935  0.00  0.00    +0.000 NA
ATOM      8  C   UNL     1       7.689   4.610  18.329  0.00  0.00    +0.000 A 
ATOM      9  N   UNL     1       7.884   4.484  17.009  0.00  0.00    +0.000 NA
ATOM     10  C   UNL     1       6.820   4.800  16.250  0.00  0.00    +0.000 A 
ATOM     11  C   UNL     1       5.616   5.233  16.767  0.00  0.00    +0.000 A 
ATOM     12  F   UNL     1       4.600   5.533  15.938  0.00  0.00    +0.000 F 
BRANCH  10  13
ATOM     13  O   UNL     1       6.927   4.721  14.871  0.00  0.00    +0.000 OA
BRANCH  13  14
ATOM     14  C   UNL     1       6.197   3.616  14.333  0.00  0.00    +0.000 C 
BRANCH  14  15
ATOM     15  C   UNL     1       5.870   3.896  12.895  0.00  0.00    +0.000 C 
ATOM     16  C   UNL     1       6.953   3.713  11.860  0.00  0.00    +0.000 C 
ATOM     17  C   UNL     1       5.765   2.791  11.874  0.00  0.00    +0.000 C 
ENDBRANCH  14  15
ENDBRANCH  13  14
ENDBRANCH  10  13
ENDBRANCH   4   6
BRANCH   1  18
ATOM     18  O   UNL     1       2.254   7.649  20.535  0.00  0.00    +0.000 OA
BRANCH  18  22
ATOM     19  C   UNL     1      -0.639  10.676  20.958  0.00  0.00    +0.000 A 
ATOM     20  C   UNL     1      -0.289   9.830  22.019  0.00  0.00    +0.000 A 
ATOM     21  C   UNL     1       0.651   8.799  21.835  0.00  0.00    +0.000 A 
ATOM     22  C   UNL     1       1.244   8.581  20.588  0.00  0.00    +0.000 A 
ATOM     23  C   UNL     1       0.839   9.369  19.515  0.00  0.00    +0.000 A 
ATOM     24  C   UNL     1      -0.083  10.402  19.698  0.00  0.00    +0.000 A 
BRANCH  19  26
ATOM     25  C   UNL     1      -2.335  12.310  19.988  0.00  0.00    +0.000 C 
ATOM     26  C   UNL     1      -1.457  11.944  21.193  0.00  0.00    +0.000 C 
BRANCH  26  27
ATOM     27  N   UNL     1      -0.514  13.020  21.474  0.00  0.00    +0.000 N 
ATOM     28  C   UNL     1      -0.763  14.048  22.349  0.00  0.00    +0.000 C 
ATOM     29  O   UNL     1      -1.812  14.113  22.978  0.00  0.00    +0.000 OA
ATOM     30  N   UNL     1       0.257  14.984  22.468  0.00  0.00    +0.000 N 
ATOM     31  C   UNL     1       1.542  14.971  21.773  0.00  0.00    +0.000 C 
ATOM     32  C   UNL     1       0.032  16.159  23.300  0.00  0.00    +0.000 C 
ATOM     33  H   UNL     1       0.161  13.190  20.753  0.00  0.00    +0.000 HD
ENDBRANCH  26  27
ENDBRANCH  19  26
ENDBRANCH  18  22
ENDBRANCH   1  18
TORSDOF 8
ENDMDL
MODEL 7
REMARK VINA RESULT:      -7.6      1.847      2.405
REMARK  Name = 
REMARK  11 active torsions:
REMARK  status: ('A' for Active; 'I' for Inactive)
REMARK    1  A    between atoms: C_1  and  C_2
REMARK    2  A    between atoms: C_2  and  N_3
REMARK    3  A    between atoms: C_2  and  C_9
REMARK    4  A    between atoms: N_6  and  C_7
REMARK    5  A    between atoms: N_6  and  C_8
REMARK    6  A    between atoms: C_12  and  O_13
REMARK    7  A    between atoms: O_13  and  C_14
REMARK    8  A    between atoms: N_17  and  C_18
REMARK    9  A    between atoms: C_22  and  O_23
REMARK   10  A    between atoms: O_23  and  C_24
REMARK   11  A    between atoms: C_24  and  C_25
REMARK                            x       y       z     vdW  Elec       q    Type
REMARK                         _______ _______ _______ _____ _____    ______ ____
ROOT
ATOM      1  C   UNL     1       2.129   5.030  19.387  0.00  0.00    +0.000 C 
ATOM      2  C   UNL     1       2.491   3.560  19.629  0.00  0.00    +0.000 C 
ATOM      3  C   UNL     1       3.998   3.444  19.387  0.00  0.00    +0.000 C 
ATOM      4  N   UNL     1       4.283   4.510  18.447  0.00  0.00    +0.000 N 
ATOM      5  C   UNL     1       3.256   5.544  18.467  0.00  0.00    +0.000 C 
ENDROOT
BRANCH   4   6
ATOM      6  C   UNL     1       5.419   4.562  17.673  0.00  0.00    +0.000 A 
ATOM      7  N   UNL     1       6.617   4.512  18.301  0.00  0.00    +0.000 NA
ATOM      8  C   UNL     1       7.727   4.505  17.541  0.00  0.00    +0.000 A 
ATOM      9  N   UNL     1       7.775   4.530  16.201  0.00  0.00    +0.000 NA
ATOM     10  C   UNL     1       6.574   4.584  15.598  0.00  0.00    +0.000 A 
ATOM     11  C   UNL     1       5.377   4.624  16.281  0.00  0.00    +0.000 A 
ATOM     12  F   UNL     1       4.218   4.681  15.600  0.00  0.00    +0.000 F 
BRANCH  10  13
ATOM     13  O   UNL     1       6.517   4.633  14.214  0.00  0.00    +0.000 OA
BRANCH  13  14
ATOM     14  C   UNL     1       6.356   3.338  13.632  0.00  0.00    +0.000 C 
BRANCH  14  15
ATOM     15  C   UNL     1       6.020   3.491  12.177  0.00  0.00    +0.000 C 
ATOM     16  C   UNL     1       5.604   2.266  11.400  0.00  0.00    +0.000 C 
ATOM     17  C   UNL     1       4.606   3.357  11.670  0.00  0.00    +0.000 C 
ENDBRANCH  14  15
ENDBRANCH  13  14
ENDBRANCH  10  13
ENDBRANCH   4   6
BRANCH   1  18
ATOM     18  O   UNL     1       2.033   5.713  20.648  0.00  0.00    +0.000 OA
BRANCH  18  22
ATOM     19  C   UNL     1       0.609   9.648  20.203  0.00  0.00    +0.000 A 
ATOM     20  C   UNL     1       1.431   9.043  19.242  0.00  0.00    +0.000 A 
ATOM     21  C   UNL     1       1.926   7.741  19.439  0.00  0.00    +0.000 A 
ATOM     22  C   UNL     1       1.629   7.027  20.604  0.00  0.00    +0.000 A 
ATOM     23  C   UNL     1       0.880   7.657  21.593  0.00  0.00    +0.000 A 
ATOM     24  C   UNL     1       0.374   8.943  21.394  0.00  0.00    +0.000 A 
BRANCH  19  26
ATOM     25  C   UNL     1      -0.580  11.680  21.177  0.00  0.00    +0.000 C 
ATOM     26  C   UNL     1      -0.137  10.946  19.903  0.00  0.00    +0.000 C 
BRANCH  26  27
ATOM     27  N   UNL     1      -1.298  10.599  19.093  0.00  0.00    +0.000 N 
ATOM     28  C   UNL     1      -2.210  11.514  18.628  0.00  0.00    +0.000 C 
ATOM     29  O   UNL     1      -2.088  12.711  18.856  0.00  0.00    +0.000 OA
ATOM     30  N   UNL     1      -3.256  10.981  17.885  0.00  0.00    +0.000 N 
ATOM     31  C   UNL     1      -3.466   9.574  17.551  0.00  0.00    +0.000 C 
ATOM     32  C   UNL     1      -4.320  11.872  17.440  0.00  0.00    +0.000 C 
ATOM     33  H   UNL     1      -1.612   9.652  19.188  0.00  0.00    +0.000 HD
ENDBRANCH  26  27
ENDBRANCH  19  26
ENDBRANCH  18  22
ENDBRANCH   1  18
TORSDOF 8
ENDMDL
MODEL 8
REMARK VINA RESULT:      -7.5      1.809      2.706
REMARK  Name = 
REMARK  11 active torsions:
REMARK  status: ('A' for Active; 'I' for Inactive)
REMARK    1  A    between atoms: C_1  and  C_2
REMARK    2  A    between atoms: C_2  and  N_3
REMARK    3  A    between atoms: C_2  and  C_9
REMARK    4  A    between atoms: N_6  and  C_7
REMARK    5  A    between atoms: N_6  and  C_8
REMARK    6  A    between atoms: C_12  and  O_13
REMARK    7  A    between atoms: O_13  and  C_14
REMARK    8  A    between atoms: N_17  and  C_18
REMARK    9  A    between atoms: C_22  and  O_23
REMARK   10  A    between atoms: O_23  and  C_24
REMARK   11  A    between atoms: C_24  and  C_25
REMARK                            x       y       z     vdW  Elec       q    Type
REMARK                         _______ _______ _______ _____ _____    ______ ____
ROOT
ATOM      1  C   UNL     1       1.720   6.274  19.967  0.00  0.00    +0.000 C 
ATOM      2  C   UNL     1       1.777   4.773  20.272  0.00  0.00    +0.000 C 
ATOM      3  C   UNL     1       3.239   4.355  20.100  0.00  0.00    +0.000 C 
ATOM      4  N   UNL     1       3.764   5.306  19.141  0.00  0.00    +0.000 N 
ATOM      5  C   UNL     1       2.960   6.521  19.081  0.00  0.00    +0.000 C 
ENDROOT
BRANCH   4   6
ATOM      6  C   UNL     1       4.916   5.103  18.416  0.00  0.00    +0.000 A 
ATOM      7  N   UNL     1       6.087   5.505  18.962  0.00  0.00    +0.000 NA
ATOM      8  C   UNL     1       7.219   5.255  18.279  0.00  0.00    +0.000 A 
ATOM      9  N   UNL     1       7.314   4.629  17.098  0.00  0.00    +0.000 NA
ATOM     10  C   UNL     1       6.138   4.243  16.570  0.00  0.00    +0.000 A 
ATOM     11  C   UNL     1       4.919   4.473  17.173  0.00  0.00    +0.000 A 
ATOM     12  F   UNL     1       3.788   4.057  16.576  0.00  0.00    +0.000 F 
BRANCH  10  13
ATOM     13  O   UNL     1       6.128   3.603  15.341  0.00  0.00    +0.000 OA
BRANCH  13  14
ATOM     14  C   UNL     1       6.896   4.303  14.360  0.00  0.00    +0.000 C 
BRANCH  14  15
ATOM     15  C   UNL     1       6.226   4.169  13.023  0.00  0.00    +0.000 C 
ATOM     16  C   UNL     1       7.086   4.140  11.784  0.00  0.00    +0.000 C 
ATOM     17  C   UNL     1       6.332   2.908  12.203  0.00  0.00    +0.000 C 
ENDBRANCH  14  15
ENDBRANCH  13  14
ENDBRANCH  10  13
ENDBRANCH   4   6
BRANCH   1  18
ATOM     18  O   UNL     1       1.714   7.014  21.200  0.00  0.00    +0.000 OA
BRANCH  18  22
ATOM     19  C   UNL     1      -0.106  10.783  20.769  0.00  0.00    +0.000 A 
ATOM     20  C   UNL     1       0.638  10.196  19.736  0.00  0.00    +0.000 A 
ATOM     21  C   UNL     1       1.271   8.953  19.925  0.00  0.00    +0.000 A 
ATOM     22  C   UNL     1       1.190   8.284  21.150  0.00  0.00    +0.000 A 
ATOM     23  C   UNL     1       0.519   8.903  22.200  0.00  0.00    +0.000 A 
ATOM     24  C   UNL     1      -0.123  10.129  22.011  0.00  0.00    +0.000 A 
BRANCH  19  26
ATOM     25  C   UNL     1      -2.018  11.748  19.388  0.00  0.00    +0.000 C 
ATOM     26  C   UNL     1      -1.000  11.994  20.511  0.00  0.00    +0.000 C 
BRANCH  26  27
ATOM     27  N   UNL     1      -0.126  13.108  20.162  0.00  0.00    +0.000 N 
ATOM     28  C   UNL     1       0.484  13.921  21.085  0.00  0.00    +0.000 C 
ATOM     29  O   UNL     1       0.343  13.742  22.289  0.00  0.00    +0.000 OA
ATOM     30  N   UNL     1       1.266  14.938  20.551  0.00  0.00    +0.000 N 
ATOM     31  C   UNL     1       1.503  15.210  19.136  0.00  0.00    +0.000 C 
ATOM     32  C   UNL     1       1.867  15.905  21.460  0.00  0.00    +0.000 C 
ATOM     33  H   UNL     1      -0.270  13.488  19.247  0.00  0.00    +0.000 HD
ENDBRANCH  26  27
ENDBRANCH  19  26
ENDBRANCH  18  22
ENDBRANCH   1  18
TORSDOF 8
ENDMDL
MODEL 9
REMARK VINA RESULT:      -7.5      1.665      2.097
REMARK  Name = 
REMARK  11 active torsions:
REMARK  status: ('A' for Active; 'I' for Inactive)
REMARK    1  A    between atoms: C_1  and  C_2
REMARK    2  A    between atoms: C_2  and  N_3
REMARK    3  A    between atoms: C_2  and  C_9
REMARK    4  A    between atoms: N_6  and  C_7
REMARK    5  A    between atoms: N_6  and  C_8
REMARK    6  A    between atoms: C_12  and  O_13
REMARK    7  A    between atoms: O_13  and  C_14
REMARK    8  A    between atoms: N_17  and  C_18
REMARK    9  A    between atoms: C_22  and  O_23
REMARK   10  A    between atoms: O_23  and  C_24
REMARK   11  A    between atoms: C_24  and  C_25
REMARK                            x       y       z     vdW  Elec       q    Type
REMARK                         _______ _______ _______ _____ _____    ______ ____
ROOT
ATOM      1  C   UNL     1       1.749   6.078  19.811  0.00  0.00    +0.000 C 
ATOM      2  C   UNL     1       2.037   4.708  20.434  0.00  0.00    +0.000 C 
ATOM      3  C   UNL     1       3.542   4.475  20.282  0.00  0.00    +0.000 C 
ATOM      4  N   UNL     1       3.898   5.251  19.110  0.00  0.00    +0.000 N 
ATOM      5  C   UNL     1       2.919   6.294  18.828  0.00  0.00    +0.000 C 
ENDROOT
BRANCH   4   6
ATOM      6  C   UNL     1       5.053   5.057  18.387  0.00  0.00    +0.000 A 
ATOM      7  N   UNL     1       6.201   5.584  18.874  0.00  0.00    +0.000 NA
ATOM      8  C   UNL     1       7.339   5.346  18.197  0.00  0.00    +0.000 A 
ATOM      9  N   UNL     1       7.462   4.619  17.078  0.00  0.00    +0.000 NA
ATOM     10  C   UNL     1       6.310   4.109  16.609  0.00  0.00    +0.000 A 
ATOM     11  C   UNL     1       5.084   4.314  17.208  0.00  0.00    +0.000 A 
ATOM     12  F   UNL     1       3.977   3.771  16.672  0.00  0.00    +0.000 F 
BRANCH  10  13
ATOM     13  O   UNL     1       6.329   3.358  15.444  0.00  0.00    +0.000 OA
BRANCH  13  14
ATOM     14  C   UNL     1       6.022   4.141  14.289  0.00  0.00    +0.000 C 
BRANCH  14  15
ATOM     15  C   UNL     1       6.275   3.321  13.057  0.00  0.00    +0.000 C 
ATOM     16  C   UNL     1       5.396   3.540  11.851  0.00  0.00    +0.000 C 
ATOM     17  C   UNL     1       6.848   3.928  11.802  0.00  0.00    +0.000 C 
ENDBRANCH  14  15
ENDBRANCH  13  14
ENDBRANCH  10  13
ENDBRANCH   4   6
BRANCH   1  18
ATOM     18  O   UNL     1       1.655   7.067  20.850  0.00  0.00    +0.000 OA
BRANCH  18  22
ATOM     19  C   UNL     1       0.822  10.914  19.363  0.00  0.00    +0.000 A 
ATOM     20  C   UNL     1       1.357   9.904  18.551  0.00  0.00    +0.000 A 
ATOM     21  C   UNL     1       1.665   8.640  19.087  0.00  0.00    +0.000 A 
ATOM     22  C   UNL     1       1.465   8.366  20.444  0.00  0.00    +0.000 A 
ATOM     23  C   UNL     1       1.009   9.393  21.266  0.00  0.00    +0.000 A 
ATOM     24  C   UNL     1       0.688  10.644  20.734  0.00  0.00    +0.000 A 
BRANCH  19  26
ATOM     25  C   UNL     1       0.977  13.455  19.256  0.00  0.00    +0.000 C 
ATOM     26  C   UNL     1       0.252  12.196  18.760  0.00  0.00    +0.000 C 
BRANCH  26  27
ATOM     27  N   UNL     1      -1.160  12.252  19.122  0.00  0.00    +0.000 N 
ATOM     28  C   UNL     1      -2.170  11.734  18.351  0.00  0.00    +0.000 C 
ATOM     29  O   UNL     1      -1.938  11.159  17.293  0.00  0.00    +0.000 OA
ATOM     30  N   UNL     1      -3.451  11.902  18.863  0.00  0.00    +0.000 N 
ATOM     31  C   UNL     1      -3.813  12.554  20.119  0.00  0.00    +0.000 C 
ATOM     32  C   UNL     1      -4.585  11.470  18.058  0.00  0.00    +0.000 C 
ATOM     33  H   UNL     1      -1.404  12.987  19.757  0.00  0.00    +0.000 HD
ENDBRANCH  26  27
ENDBRANCH  19  26
ENDBRANCH  18  22
ENDBRANCH   1  18
TORSDOF 8
ENDMDL
