MODEL 1
REMARK VINA RESULT:      -8.5      0.000      0.000
REMARK  Name = 
REMARK  4 active torsions:
REMARK  status: ('A' for Active; 'I' for Inactive)
REMARK    1  A    between atoms: C_5  and  C_6
REMARK    2  A    between atoms: C_6  and  N_7
REMARK    3  A    between atoms: N_7  and  C_8
REMARK    4  A    between atoms: N_16  and  C_17
REMARK                            x       y       z     vdW  Elec       q    Type
REMARK                         _______ _______ _______ _____ _____    ______ ____
ROOT
ATOM      1  C   UNL     1       1.276   8.580  20.141  0.00  0.00    +0.000 A 
ATOM      2  C   UNL     1       1.404   8.734  18.762  0.00  0.00    +0.000 A 
ATOM      3  C   UNL     1       0.866   9.853  18.114  0.00  0.00    +0.000 A 
ATOM      4  C   UNL     1       0.180  10.842  18.807  0.00  0.00    +0.000 A 
ATOM      5  N   UNL     1      -0.311  11.895  18.146  0.00  0.00    +0.000 NA
ATOM      6  C   UNL     1      -0.964  12.808  18.874  0.00  0.00    +0.000 A 
ATOM      7  N   UNL     1      -1.156  12.773  20.194  0.00  0.00    +0.000 NA
ATOM      8  C   UNL     1      -0.643  11.720  20.855  0.00  0.00    +0.000 A 
ATOM      9  N   UNL     1      -0.742  11.678  22.277  0.00  0.00    +0.000 N 
ATOM     10  C   UNL     1       0.027  10.686  20.189  0.00  0.00    +0.000 A 
ATOM     11  C   UNL     1       0.535   9.537  20.832  0.00  0.00    +0.000 A 
ATOM     12  H   UNL     1       0.195  11.629  22.665  0.00  0.00    +0.000 HD
ENDROOT
BRANCH   9  13
ATOM     13  C   UNL     1      -1.595  12.506  23.038  0.00  0.00    +0.000 A 
ATOM     14  C   UNL     1      -1.167  13.774  23.454  0.00  0.00    +0.000 A 
ATOM     15  C   UNL     1      -1.977  14.582  24.250  0.00  0.00    +0.000 A 
ATOM     16  C   UNL     1      -3.236  14.129  24.634  0.00  0.00    +0.000 A 
ATOM     17  C   UNL     1      -3.684  12.883  24.198  0.00  0.00    +0.000 A 
ATOM     18 CL   UNL     1      -5.240  12.323  24.678  0.00  0.00    +0.000 Cl
ATOM     19  C   UNL     1      -2.879  12.077  23.391  0.00  0.00    +0.000 A 
ENDBRANCH   9  13
BRANCH   1  20
ATOM     20  N   UNL     1       1.843   7.460  20.758  0.00  0.00    +0.000 N 
ATOM     21  H   UNL     1       2.238   7.714  21.663  0.00  0.00    +0.000 HD
BRANCH  20  22
ATOM     22  C   UNL     1       2.790   6.680  19.965  0.00  0.00    +0.000 C 
BRANCH  22  27
ATOM     23  F   UNL     1       0.333   1.811  18.553  0.00  0.00    +0.000 F 
ATOM     24  C   UNL     1       0.934   2.959  18.890  0.00  0.00    +0.000 A 
ATOM     25  C   UNL     1       0.969   3.347  20.223  0.00  0.00    +0.000 A 
ATOM     26  C   UNL     1       1.589   4.545  20.571  0.00  0.00    +0.000 A 
ATOM     27  C   UNL     1       2.181   5.355  19.585  0.00  0.00    +0.000 A 
ATOM     28  C   UNL     1       2.130   4.949  18.245  0.00  0.00    +0.000 A 
ATOM     29  C   UNL     1       1.508   3.749  17.901  0.00  0.00    +0.000 A 
ENDBRANCH  22  27
ENDBRANCH  20  22
ENDBRANCH   1  20
TORSDOF 4
ENDMDL
MODEL 2
REMARK VINA RESULT:      -8.5      5.353     10.460
REMARK  Name = 
REMARK  4 active torsions:
REMARK  status: ('A' for Active; 'I' for Inactive)
REMARK    1  A    between atoms: C_5  and  C_6
REMARK    2  A    between atoms: C_6  and  N_7
REMARK    3  A    between atoms: N_7  and  C_8
REMARK    4  A    between atoms: N_16  and  C_17
REMARK                            x       y       z     vdW  Elec       q    Type
REMARK                         _______ _______ _______ _____ _____    ______ ____
ROOT
ATOM      1  C   UNL     1       2.191   6.435  20.156  0.00  0.00    +0.000 A 
ATOM      2  C   UNL     1       1.399   5.472  20.776  0.00  0.00    +0.000 A 
ATOM      3  C   UNL     1       1.453   4.132  20.370  0.00  0.00    +0.000 A 
ATOM      4  C   UNL     1       2.281   3.712  19.336  0.00  0.00    +0.000 A 
ATOM      5  N   UNL     1       2.302   2.422  18.989  0.00  0.00    +0.000 NA
ATOM      6  C   UNL     1       3.119   2.086  17.983  0.00  0.00    +0.000 A 
ATOM      7  N   UNL     1       3.921   2.913  17.310  0.00  0.00    +0.000 NA
ATOM      8  C   UNL     1       3.908   4.206  17.678  0.00  0.00    +0.000 A 
ATOM      9  N   UNL     1       4.811   5.116  17.052  0.00  0.00    +0.000 N 
ATOM     10  C   UNL     1       3.064   4.676  18.693  0.00  0.00    +0.000 A 
ATOM     11  C   UNL     1       2.977   6.031  19.078  0.00  0.00    +0.000 A 
ATOM     12  H   UNL     1       5.401   5.528  17.767  0.00  0.00    +0.000 HD
ENDROOT
BRANCH   9  13
ATOM     13  C   UNL     1       5.520   4.838  15.864  0.00  0.00    +0.000 A 
ATOM     14  C   UNL     1       6.891   5.113  15.776  0.00  0.00    +0.000 A 
ATOM     15  C   UNL     1       7.595   4.893  14.593  0.00  0.00    +0.000 A 
ATOM     16  C   UNL     1       6.929   4.385  13.480  0.00  0.00    +0.000 A 
ATOM     17  C   UNL     1       5.572   4.077  13.568  0.00  0.00    +0.000 A 
ATOM     18 CL   UNL     1       4.751   3.454  12.190  0.00  0.00    +0.000 Cl
ATOM     19  C   UNL     1       4.869   4.286  14.756  0.00  0.00    +0.000 A 
ENDBRANCH   9  13
BRANCH   1  20
ATOM     20  N   UNL     1       2.127   7.760  20.600  0.00  0.00    +0.000 N 
ATOM     21  H   UNL     1       1.986   7.790  21.610  0.00  0.00    +0.000 HD
BRANCH  20  22
ATOM     22  C   UNL     1       1.191   8.643  19.907  0.00  0.00    +0.000 C 
BRANCH  22  27
ATOM     23  F   UNL     1      -1.806  11.716  23.556  0.00  0.00    +0.000 F 
ATOM     24  C   UNL     1      -1.078  10.993  22.695  0.00  0.00    +0.000 A 
ATOM     25  C   UNL     1      -0.886  11.461  21.401  0.00  0.00    +0.000 A 
ATOM     26  C   UNL     1      -0.133  10.706  20.505  0.00  0.00    +0.000 A 
ATOM     27  C   UNL     1       0.435   9.483  20.904  0.00  0.00    +0.000 A 
ATOM     28  C   UNL     1       0.225   9.025  22.212  0.00  0.00    +0.000 A 
ATOM     29  C   UNL     1      -0.529   9.784  23.106  0.00  0.00    +0.000 A 
ENDBRANCH  22  27
ENDBRANCH  20  22
ENDBRANCH   1  20
TORSDOF 4
ENDMDL
MODEL 3
REMARK VINA RESULT:      -8.3      4.235      7.270
REMARK  Name = 
REMARK  4 active torsions:
REMARK  status: ('A' for Active; 'I' for Inactive)
REMARK    1  A    between atoms: C_5  and  C_6
REMARK    2  A    between atoms: C_6  and  N_7
REMARK    3  A    between atoms: N_7  and  C_8
REMARK    4  A    between atoms: N_16  and  C_17
REMARK                            x       y       z     vdW  Elec       q    Type
REMARK                         _______ _______ _______ _____ _____    ______ ____
ROOT
ATOM      1  C   UNL     1       4.204   3.923  16.928  0.00  0.00    +0.000 A 
ATOM      2  C   UNL     1       4.113   2.624  17.424  0.00  0.00    +0.000 A 
ATOM      3  C   UNL     1       3.385   2.354  18.590  0.00  0.00    +0.000 A 
ATOM      4  C   UNL     1       2.738   3.358  19.300  0.00  0.00    +0.000 A 
ATOM      5  N   UNL     1       2.050   3.050  20.404  0.00  0.00    +0.000 NA
ATOM      6  C   UNL     1       1.454   4.065  21.041  0.00  0.00    +0.000 A 
ATOM      7  N   UNL     1       1.471   5.347  20.669  0.00  0.00    +0.000 NA
ATOM      8  C   UNL     1       2.149   5.645  19.547  0.00  0.00    +0.000 A 
ATOM      9  N   UNL     1       2.124   6.985  19.057  0.00  0.00    +0.000 N 
ATOM     10  C   UNL     1       2.841   4.668  18.821  0.00  0.00    +0.000 A 
ATOM     11  C   UNL     1       3.610   4.942  17.669  0.00  0.00    +0.000 A 
ATOM     12  H   UNL     1       1.738   6.977  18.118  0.00  0.00    +0.000 HD
ENDROOT
BRANCH   9  13
ATOM     13  C   UNL     1       1.689   8.097  19.808  0.00  0.00    +0.000 A 
ATOM     14  C   UNL     1       1.621   8.027  21.206  0.00  0.00    +0.000 A 
ATOM     15  C   UNL     1       1.144   9.099  21.958  0.00  0.00    +0.000 A 
ATOM     16  C   UNL     1       0.733  10.263  21.314  0.00  0.00    +0.000 A 
ATOM     17  C   UNL     1       0.827  10.354  19.926  0.00  0.00    +0.000 A 
ATOM     18 CL   UNL     1       0.313  11.793  19.133  0.00  0.00    +0.000 Cl
ATOM     19  C   UNL     1       1.316   9.286  19.173  0.00  0.00    +0.000 A 
ENDBRANCH   9  13
BRANCH   1  20
ATOM     20  N   UNL     1       4.923   4.153  15.751  0.00  0.00    +0.000 N 
ATOM     21  H   UNL     1       4.514   3.631  14.976  0.00  0.00    +0.000 HD
BRANCH  20  22
ATOM     22  C   UNL     1       6.370   3.963  15.814  0.00  0.00    +0.000 C 
BRANCH  22  27
ATOM     23  F   UNL     1       8.511   7.889  19.241  0.00  0.00    +0.000 F 
ATOM     24  C   UNL     1       8.019   6.953  18.419  0.00  0.00    +0.000 A 
ATOM     25  C   UNL     1       7.486   7.331  17.193  0.00  0.00    +0.000 A 
ATOM     26  C   UNL     1       6.970   6.356  16.342  0.00  0.00    +0.000 A 
ATOM     27  C   UNL     1       6.992   5.000  16.713  0.00  0.00    +0.000 A 
ATOM     28  C   UNL     1       7.528   4.639  17.957  0.00  0.00    +0.000 A 
ATOM     29  C   UNL     1       8.044   5.618  18.806  0.00  0.00    +0.000 A 
ENDBRANCH  22  27
ENDBRANCH  20  22
ENDBRANCH   1  20
TORSDOF 4
ENDMDL
MODEL 4
REMARK VINA RESULT:      -8.3      1.014      1.374
REMARK  Name = 
REMARK  4 active torsions:
REMARK  status: ('A' for Active; 'I' for Inactive)
REMARK    1  A    between atoms: C_5  and  C_6
REMARK    2  A    between atoms: C_6  and  N_7
REMARK    3  A    between atoms: N_7  and  C_8
REMARK    4  A    between atoms: N_16  and  C_17
REMARK                            x       y       z     vdW  Elec       q    Type
REMARK                         _______ _______ _______ _____ _____    ______ ____
ROOT
ATOM      1  C   UNL     1       1.314   8.671  20.122  0.00  0.00    +0.000 A 
ATOM      2  C   UNL     1       1.527   8.912  18.766  0.00  0.00    +0.000 A 
ATOM      3  C   UNL     1       1.052  10.084  18.164  0.00  0.00    +0.000 A 
ATOM      4  C   UNL     1       0.347  11.042  18.882  0.00  0.00    +0.000 A 
ATOM      5  N   UNL     1      -0.082  12.148  18.265  0.00  0.00    +0.000 NA
ATOM      6  C   UNL     1      -0.758  13.028  19.014  0.00  0.00    +0.000 A 
ATOM      7  N   UNL     1      -1.028  12.910  20.315  0.00  0.00    +0.000 NA
ATOM      8  C   UNL     1      -0.578  11.804  20.933  0.00  0.00    +0.000 A 
ATOM      9  N   UNL     1      -0.762  11.671  22.341  0.00  0.00    +0.000 N 
ATOM     10  C   UNL     1       0.109  10.800  20.239  0.00  0.00    +0.000 A 
ATOM     11  C   UNL     1       0.554   9.598  20.832  0.00  0.00    +0.000 A 
ATOM     12  H   UNL     1       0.149  11.573  22.778  0.00  0.00    +0.000 HD
ENDROOT
BRANCH   9  13
ATOM     13  C   UNL     1      -1.641  12.468  23.105  0.00  0.00    +0.000 A 
ATOM     14  C   UNL     1      -2.926  12.007  23.420  0.00  0.00    +0.000 A 
ATOM     15  C   UNL     1      -3.823  12.804  24.129  0.00  0.00    +0.000 A 
ATOM     16  C   UNL     1      -3.437  14.077  24.540  0.00  0.00    +0.000 A 
ATOM     17  C   UNL     1      -2.150  14.532  24.260  0.00  0.00    +0.000 A 
ATOM     18 CL   UNL     1      -1.677  16.108  24.765  0.00  0.00    +0.000 Cl
ATOM     19  C   UNL     1      -1.246  13.731  23.560  0.00  0.00    +0.000 A 
ENDBRANCH   9  13
BRANCH   1  20
ATOM     20  N   UNL     1       1.820   7.499  20.694  0.00  0.00    +0.000 N 
ATOM     21  H   UNL     1       2.201   7.691  21.620  0.00  0.00    +0.000 HD
BRANCH  20  22
ATOM     22  C   UNL     1       2.755   6.721  19.885  0.00  0.00    +0.000 C 
BRANCH  22  27
ATOM     23  F   UNL     1       0.348   1.783  18.638  0.00  0.00    +0.000 F 
ATOM     24  C   UNL     1       0.936   2.948  18.936  0.00  0.00    +0.000 A 
ATOM     25  C   UNL     1       0.960   3.385  20.255  0.00  0.00    +0.000 A 
ATOM     26  C   UNL     1       1.568   4.600  20.562  0.00  0.00    +0.000 A 
ATOM     27  C   UNL     1       2.160   5.378  19.551  0.00  0.00    +0.000 A 
ATOM     28  C   UNL     1       2.120   4.924  18.226  0.00  0.00    +0.000 A 
ATOM     29  C   UNL     1       1.510   3.707  17.922  0.00  0.00    +0.000 A 
ENDBRANCH  22  27
ENDBRANCH  20  22
ENDBRANCH   1  20
TORSDOF 4
ENDMDL
MODEL 5
REMARK VINA RESULT:      -8.3      5.388     10.475
REMARK  Name = 
REMARK  4 active torsions:
REMARK  status: ('A' for Active; 'I' for Inactive)
REMARK    1  A    between atoms: C_5  and  C_6
REMARK    2  A    between atoms: C_6  and  N_7
REMARK    3  A    between atoms: N_7  and  C_8
REMARK    4  A    between atoms: N_16  and  C_17
REMARK                            x       y       z     vdW  Elec       q    Type
REMARK                         _______ _______ _______ _____ _____    ______ ____
ROOT
ATOM      1  C   UNL     1       2.092   6.466  20.017  0.00  0.00    +0.000 A 
ATOM      2  C   UNL     1       1.419   5.482  20.738  0.00  0.00    +0.000 A 
ATOM      3  C   UNL     1       1.609   4.125  20.444  0.00  0.00    +0.000 A 
ATOM      4  C   UNL     1       2.458   3.707  19.427  0.00  0.00    +0.000 A 
ATOM      5  N   UNL     1       2.611   2.401  19.188  0.00  0.00    +0.000 NA
ATOM      6  C   UNL     1       3.440   2.067  18.192  0.00  0.00    +0.000 A 
ATOM      7  N   UNL     1       4.137   2.913  17.431  0.00  0.00    +0.000 NA
ATOM      8  C   UNL     1       3.992   4.224  17.690  0.00  0.00    +0.000 A 
ATOM      9  N   UNL     1       4.781   5.166  16.965  0.00  0.00    +0.000 N 
ATOM     10  C   UNL     1       3.122   4.688  18.684  0.00  0.00    +0.000 A 
ATOM     11  C   UNL     1       2.897   6.055  18.956  0.00  0.00    +0.000 A 
ATOM     12  H   UNL     1       5.337   5.698  17.626  0.00  0.00    +0.000 HD
ENDROOT
BRANCH   9  13
ATOM     13  C   UNL     1       5.494   4.863  15.785  0.00  0.00    +0.000 A 
ATOM     14  C   UNL     1       6.867   5.130  15.698  0.00  0.00    +0.000 A 
ATOM     15  C   UNL     1       7.574   4.884  14.522  0.00  0.00    +0.000 A 
ATOM     16  C   UNL     1       6.911   4.359  13.417  0.00  0.00    +0.000 A 
ATOM     17  C   UNL     1       5.553   4.059  13.504  0.00  0.00    +0.000 A 
ATOM     18 CL   UNL     1       4.735   3.413  12.134  0.00  0.00    +0.000 Cl
ATOM     19  C   UNL     1       4.845   4.293  14.685  0.00  0.00    +0.000 A 
ENDBRANCH   9  13
BRANCH   1  20
ATOM     20  N   UNL     1       1.895   7.810  20.350  0.00  0.00    +0.000 N 
ATOM     21  H   UNL     1       2.754   8.342  20.210  0.00  0.00    +0.000 HD
BRANCH  20  22
ATOM     22  C   UNL     1       1.309   8.085  21.660  0.00  0.00    +0.000 C 
BRANCH  22  27
ATOM     23  F   UNL     1      -1.944  12.679  21.412  0.00  0.00    +0.000 F 
ATOM     24  C   UNL     1      -1.186  11.576  21.468  0.00  0.00    +0.000 A 
ATOM     25  C   UNL     1      -0.921  10.990  22.700  0.00  0.00    +0.000 A 
ATOM     26  C   UNL     1      -0.128   9.846  22.757  0.00  0.00    +0.000 A 
ATOM     27  C   UNL     1       0.397   9.283  21.580  0.00  0.00    +0.000 A 
ATOM     28  C   UNL     1       0.125   9.893  20.348  0.00  0.00    +0.000 A 
ATOM     29  C   UNL     1      -0.670  11.037  20.295  0.00  0.00    +0.000 A 
ENDBRANCH  22  27
ENDBRANCH  20  22
ENDBRANCH   1  20
TORSDOF 4
ENDMDL
MODEL 6
REMARK VINA RESULT:      -8.2      4.159      7.164
REMARK  Name = 
REMARK  4 active torsions:
REMARK  status: ('A' for Active; 'I' for Inactive)
REMARK    1  A    between atoms: C_5  and  C_6
REMARK    2  A    between atoms: C_6  and  N_7
REMARK    3  A    between atoms: N_7  and  C_8
REMARK    4  A    between atoms: N_16  and  C_17
REMARK                            x       y       z     vdW  Elec       q    Type
REMARK                         _______ _______ _______ _____ _____    ______ ____
ROOT
ATOM      1  C   UNL     1       4.282   4.002  16.966  0.00  0.00    +0.000 A 
ATOM      2  C   UNL     1       4.299   2.761  17.598  0.00  0.00    +0.000 A 
ATOM      3  C   UNL     1       3.639   2.571  18.820  0.00  0.00    +0.000 A 
ATOM      4  C   UNL     1       2.956   3.602  19.451  0.00  0.00    +0.000 A 
ATOM      5  N   UNL     1       2.336   3.371  20.613  0.00  0.00    +0.000 NA
ATOM      6  C   UNL     1       1.700   4.409  21.169  0.00  0.00    +0.000 A 
ATOM      7  N   UNL     1       1.614   5.642  20.666  0.00  0.00    +0.000 NA
ATOM      8  C   UNL     1       2.224   5.861  19.488  0.00  0.00    +0.000 A 
ATOM      9  N   UNL     1       2.089   7.137  18.863  0.00  0.00    +0.000 N 
ATOM     10  C   UNL     1       2.950   4.858  18.835  0.00  0.00    +0.000 A 
ATOM     11  C   UNL     1       3.651   5.055  17.625  0.00  0.00    +0.000 A 
ATOM     12  H   UNL     1       1.666   7.005  17.950  0.00  0.00    +0.000 HD
ENDROOT
BRANCH   9  13
ATOM     13  C   UNL     1       1.610   8.293  19.515  0.00  0.00    +0.000 A 
ATOM     14  C   UNL     1       1.440   9.489  18.805  0.00  0.00    +0.000 A 
ATOM     15  C   UNL     1       1.018  10.653  19.445  0.00  0.00    +0.000 A 
ATOM     16  C   UNL     1       0.752  10.629  20.812  0.00  0.00    +0.000 A 
ATOM     17  C   UNL     1       0.886   9.436  21.520  0.00  0.00    +0.000 A 
ATOM     18 CL   UNL     1       0.561   9.411  23.210  0.00  0.00    +0.000 Cl
ATOM     19  C   UNL     1       1.297   8.267  20.878  0.00  0.00    +0.000 A 
ENDBRANCH   9  13
BRANCH   1  20
ATOM     20  N   UNL     1       4.935   4.150  15.738  0.00  0.00    +0.000 N 
ATOM     21  H   UNL     1       4.507   3.551  15.032  0.00  0.00    +0.000 HD
BRANCH  20  22
ATOM     22  C   UNL     1       6.389   4.008  15.743  0.00  0.00    +0.000 C 
BRANCH  22  27
ATOM     23  F   UNL     1       8.520   7.887  19.229  0.00  0.00    +0.000 F 
ATOM     24  C   UNL     1       8.031   6.962  18.393  0.00  0.00    +0.000 A 
ATOM     25  C   UNL     1       7.476   7.360  17.183  0.00  0.00    +0.000 A 
ATOM     26  C   UNL     1       6.962   6.398  16.317  0.00  0.00    +0.000 A 
ATOM     27  C   UNL     1       7.008   5.034  16.658  0.00  0.00    +0.000 A 
ATOM     28  C   UNL     1       7.566   4.653  17.885  0.00  0.00    +0.000 A 
ATOM     29  C   UNL     1       8.079   5.620  18.750  0.00  0.00    +0.000 A 
ENDBRANCH  22  27
ENDBRANCH  20  22
ENDBRANCH   1  20
TORSDOF 4
ENDMDL
MODEL 7
REMARK VINA RESULT:      -8.1      5.331     10.414
REMARK  Name = 
REMARK  4 active torsions:
REMARK  status: ('A' for Active; 'I' for Inactive)
REMARK    1  A    between atoms: C_5  and  C_6
REMARK    2  A    between atoms: C_6  and  N_7
REMARK    3  A    between atoms: N_7  and  C_8
REMARK    4  A    between atoms: N_16  and  C_17
REMARK                            x       y       z     vdW  Elec       q    Type
REMARK                         _______ _______ _______ _____ _____    ______ ____
ROOT
ATOM      1  C   UNL     1       2.094   6.383  20.023  0.00  0.00    +0.000 A 
ATOM      2  C   UNL     1       1.428   5.392  20.741  0.00  0.00    +0.000 A 
ATOM      3  C   UNL     1       1.622   4.038  20.440  0.00  0.00    +0.000 A 
ATOM      4  C   UNL     1       2.469   3.628  19.418  0.00  0.00    +0.000 A 
ATOM      5  N   UNL     1       2.627   2.324  19.173  0.00  0.00    +0.000 NA
ATOM      6  C   UNL     1       3.454   1.998  18.172  0.00  0.00    +0.000 A 
ATOM      7  N   UNL     1       4.144   2.851  17.412  0.00  0.00    +0.000 NA
ATOM      8  C   UNL     1       3.995   4.160  17.678  0.00  0.00    +0.000 A 
ATOM      9  N   UNL     1       4.776   5.109  16.954  0.00  0.00    +0.000 N 
ATOM     10  C   UNL     1       3.126   4.616  18.678  0.00  0.00    +0.000 A 
ATOM     11  C   UNL     1       2.896   5.981  18.957  0.00  0.00    +0.000 A 
ATOM     12  H   UNL     1       5.333   5.641  17.616  0.00  0.00    +0.000 HD
ENDROOT
BRANCH   9  13
ATOM     13  C   UNL     1       5.487   4.815  15.771  0.00  0.00    +0.000 A 
ATOM     14  C   UNL     1       6.865   5.056  15.692  0.00  0.00    +0.000 A 
ATOM     15  C   UNL     1       7.570   4.819  14.513  0.00  0.00    +0.000 A 
ATOM     16  C   UNL     1       6.900   4.328  13.396  0.00  0.00    +0.000 A 
ATOM     17  C   UNL     1       5.536   4.054  13.475  0.00  0.00    +0.000 A 
ATOM     18 CL   UNL     1       4.709   3.451  12.091  0.00  0.00    +0.000 Cl
ATOM     19  C   UNL     1       4.830   4.279  14.658  0.00  0.00    +0.000 A 
ENDBRANCH   9  13
BRANCH   1  20
ATOM     20  N   UNL     1       1.891   7.724  20.363  0.00  0.00    +0.000 N 
ATOM     21  H   UNL     1       1.046   7.825  20.925  0.00  0.00    +0.000 HD
BRANCH  20  22
ATOM     22  C   UNL     1       1.920   8.693  19.270  0.00  0.00    +0.000 C 
BRANCH  22  27
ATOM     23  F   UNL     1      -2.538  12.133  19.448  0.00  0.00    +0.000 F 
ATOM     24  C   UNL     1      -1.490  11.301  19.409  0.00  0.00    +0.000 A 
ATOM     25  C   UNL     1      -0.753  11.074  20.565  0.00  0.00    +0.000 A 
ATOM     26  C   UNL     1       0.341  10.213  20.521  0.00  0.00    +0.000 A 
ATOM     27  C   UNL     1       0.696   9.571  19.321  0.00  0.00    +0.000 A 
ATOM     28  C   UNL     1      -0.056   9.817  18.164  0.00  0.00    +0.000 A 
ATOM     29  C   UNL     1      -1.150  10.680  18.212  0.00  0.00    +0.000 A 
ENDBRANCH  22  27
ENDBRANCH  20  22
ENDBRANCH   1  20
TORSDOF 4
ENDMDL
MODEL 8
REMARK VINA RESULT:      -8.1      3.832      6.611
REMARK  Name = 
REMARK  4 active torsions:
REMARK  status: ('A' for Active; 'I' for Inactive)
REMARK    1  A    between atoms: C_5  and  C_6
REMARK    2  A    between atoms: C_6  and  N_7
REMARK    3  A    between atoms: N_7  and  C_8
REMARK    4  A    between atoms: N_16  and  C_17
REMARK                            x       y       z     vdW  Elec       q    Type
REMARK                         _______ _______ _______ _____ _____    ______ ____
ROOT
ATOM      1  C   UNL     1       5.607   4.629  19.302  0.00  0.00    +0.000 A 
ATOM      2  C   UNL     1       5.300   3.270  19.311  0.00  0.00    +0.000 A 
ATOM      3  C   UNL     1       3.994   2.834  19.573  0.00  0.00    +0.000 A 
ATOM      4  C   UNL     1       2.964   3.725  19.842  0.00  0.00    +0.000 A 
ATOM      5  N   UNL     1       1.733   3.262  20.080  0.00  0.00    +0.000 NA
ATOM      6  C   UNL     1       0.787   4.174  20.336  0.00  0.00    +0.000 A 
ATOM      7  N   UNL     1       0.956   5.498  20.359  0.00  0.00    +0.000 NA
ATOM      8  C   UNL     1       2.193   5.957  20.100  0.00  0.00    +0.000 A 
ATOM      9  N   UNL     1       2.409   7.365  20.024  0.00  0.00    +0.000 N 
ATOM     10  C   UNL     1       3.266   5.091  19.856  0.00  0.00    +0.000 A 
ATOM     11  C   UNL     1       4.591   5.524  19.632  0.00  0.00    +0.000 A 
ATOM     12  H   UNL     1       2.771   7.587  19.102  0.00  0.00    +0.000 HD
ENDROOT
BRANCH   9  13
ATOM     13  C   UNL     1       1.494   8.334  20.489  0.00  0.00    +0.000 A 
ATOM     14  C   UNL     1       1.228   8.459  21.859  0.00  0.00    +0.000 A 
ATOM     15  C   UNL     1       0.289   9.376  22.328  0.00  0.00    +0.000 A 
ATOM     16  C   UNL     1      -0.392  10.188  21.426  0.00  0.00    +0.000 A 
ATOM     17  C   UNL     1      -0.110  10.095  20.064  0.00  0.00    +0.000 A 
ATOM     18 CL   UNL     1      -0.957  11.097  18.950  0.00  0.00    +0.000 Cl
ATOM     19  C   UNL     1       0.839   9.185  19.593  0.00  0.00    +0.000 A 
ENDBRANCH   9  13
BRANCH   1  20
ATOM     20  N   UNL     1       6.916   5.030  19.017  0.00  0.00    +0.000 N 
ATOM     21  H   UNL     1       7.403   5.290  19.875  0.00  0.00    +0.000 HD
BRANCH  20  22
ATOM     22  C   UNL     1       7.083   6.048  17.982  0.00  0.00    +0.000 C 
BRANCH  22  27
ATOM     23  F   UNL     1       5.085   3.985  13.136  0.00  0.00    +0.000 F 
ATOM     24  C   UNL     1       5.572   4.486  14.278  0.00  0.00    +0.000 A 
ATOM     25  C   UNL     1       6.598   3.819  14.935  0.00  0.00    +0.000 A 
ATOM     26  C   UNL     1       7.100   4.339  16.126  0.00  0.00    +0.000 A 
ATOM     27  C   UNL     1       6.579   5.531  16.659  0.00  0.00    +0.000 A 
ATOM     28  C   UNL     1       5.539   6.186  15.986  0.00  0.00    +0.000 A 
ATOM     29  C   UNL     1       5.040   5.663  14.793  0.00  0.00    +0.000 A 
ENDBRANCH  22  27
ENDBRANCH  20  22
ENDBRANCH   1  20
TORSDOF 4
ENDMDL
MODEL 9
REMARK VINA RESULT:      -8.0      5.410     10.384
REMARK  Name = 
REMARK  4 active torsions:
REMARK  status: ('A' for Active; 'I' for Inactive)
REMARK    1  A    between atoms: C_5  and  C_6
REMARK    2  A    between atoms: C_6  and  N_7
REMARK    3  A    between atoms: N_7  and  C_8
REMARK    4  A    between atoms: N_16  and  C_17
REMARK                            x       y       z     vdW  Elec       q    Type
REMARK                         _______ _______ _______ _____ _____    ______ ____
ROOT
ATOM      1  C   UNL     1       2.112   7.682  19.285  0.00  0.00    +0.000 A 
ATOM      2  C   UNL     1       1.688   6.933  20.381  0.00  0.00    +0.000 A 
ATOM      3  C   UNL     1       2.125   5.613  20.557  0.00  0.00    +0.000 A 
ATOM      4  C   UNL     1       2.980   4.998  19.652  0.00  0.00    +0.000 A 
ATOM      5  N   UNL     1       3.374   3.738  19.866  0.00  0.00    +0.000 NA
ATOM      6  C   UNL     1       4.196   3.205  18.954  0.00  0.00    +0.000 A 
ATOM      7  N   UNL     1       4.667   3.816  17.865  0.00  0.00    +0.000 NA
ATOM      8  C   UNL     1       4.282   5.088  17.667  0.00  0.00    +0.000 A 
ATOM      9  N   UNL     1       4.826   5.816  16.568  0.00  0.00    +0.000 N 
ATOM     10  C   UNL     1       3.395   5.735  18.538  0.00  0.00    +0.000 A 
ATOM     11  C   UNL     1       2.920   7.050  18.343  0.00  0.00    +0.000 A 
ATOM     12  H   UNL     1       5.303   6.636  16.929  0.00  0.00    +0.000 HD
ENDROOT
BRANCH   9  13
ATOM     13  C   UNL     1       5.518   5.224  15.489  0.00  0.00    +0.000 A 
ATOM     14  C   UNL     1       6.917   5.272  15.431  0.00  0.00    +0.000 A 
ATOM     15  C   UNL     1       7.610   4.739  14.346  0.00  0.00    +0.000 A 
ATOM     16  C   UNL     1       6.906   4.140  13.305  0.00  0.00    +0.000 A 
ATOM     17  C   UNL     1       5.516   4.058  13.370  0.00  0.00    +0.000 A 
ATOM     18 CL   UNL     1       4.647   3.322  12.079  0.00  0.00    +0.000 Cl
ATOM     19  C   UNL     1       4.820   4.581  14.461  0.00  0.00    +0.000 A 
ENDBRANCH   9  13
BRANCH   1  20
ATOM     20  N   UNL     1       1.672   9.003  19.151  0.00  0.00    +0.000 N 
ATOM     21  H   UNL     1       1.154   9.292  19.981  0.00  0.00    +0.000 HD
BRANCH  20  22
ATOM     22  C   UNL     1       0.943   9.335  17.929  0.00  0.00    +0.000 C 
BRANCH  22  27
ATOM     23  F   UNL     1      -3.726  12.256  19.116  0.00  0.00    +0.000 F 
ATOM     24  C   UNL     1      -2.623  11.547  18.843  0.00  0.00    +0.000 A 
ATOM     25  C   UNL     1      -1.534  11.618  19.702  0.00  0.00    +0.000 A 
ATOM     26  C   UNL     1      -0.386  10.883  19.413  0.00  0.00    +0.000 A 
ATOM     27  C   UNL     1      -0.328  10.072  18.267  0.00  0.00    +0.000 A 
ATOM     28  C   UNL     1      -1.434  10.019  17.408  0.00  0.00    +0.000 A 
ATOM     29  C   UNL     1      -2.582  10.755  17.701  0.00  0.00    +0.000 A 
ENDBRANCH  22  27
ENDBRANCH  20  22
ENDBRANCH   1  20
TORSDOF 4
ENDMDL
