MODEL 1
REMARK VINA RESULT:      -7.8      0.000      0.000
REMARK  Name = 
REMARK  13 active torsions:
REMARK  status: ('A' for Active; 'I' for Inactive)
REMARK    1  A    between atoms: C_1  and  N_2
REMARK    2  A    between atoms: N_2  and  C_3
REMARK    3  A    between atoms: C_3  and  C_4
REMARK    4  A    between atoms: C_4  and  O_5
REMARK    5  A    between atoms: O_5  and  C_6
REMARK    6  A    between atoms: C_8  and  C_9
REMARK    7  A    between atoms: C_10  and  C_11
REMARK    8  A    between atoms: C_17  and  C_18
REMARK    9  A    between atoms: N_24  and  C_25
REMARK   10  A    between atoms: C_27  and  C_28
REMARK   11  A    between atoms: C_28  and  C_29
REMARK   12  A    between atoms: C_28  and  C_30
REMARK   13  A    between atoms: C_33  and  C_34
REMARK                            x       y       z     vdW  Elec       q    Type
REMARK                         _______ _______ _______ _____ _____    ______ ____
ROOT
ATOM      1  C   UNL     1      -0.950  11.674  20.001  0.00  0.00    +0.000 A 
ATOM      2  N   UNL     1      -1.126  12.824  20.676  0.00  0.00    +0.000 NA
ATOM      3  C   UNL     1      -0.660  12.863  21.935  0.00  0.00    +0.000 A 
ATOM      4  N   UNL     1      -0.090  11.820  22.554  0.00  0.00    +0.000 NA
ATOM      5  C   UNL     1       0.125  10.706  21.825  0.00  0.00    +0.000 A 
ATOM      6  C   UNL     1      -0.298  10.575  20.515  0.00  0.00    +0.000 A 
ATOM      7  C   UNL     1      -0.056   9.329  19.718  0.00  0.00    +0.000 C 
ATOM      8  N   UNL     1       1.041   8.557  20.326  0.00  0.00    +0.000 N 
ATOM      9  C   UNL     1       0.860   8.323  21.759  0.00  0.00    +0.000 C 
ATOM     10  C   UNL     1       1.020   9.668  22.454  0.00  0.00    +0.000 C 
ENDROOT
BRANCH   3  11
ATOM     11  C   UNL     1      -0.706  14.151  22.643  0.00  0.00    +0.000 A 
ATOM     12  C   UNL     1       0.298  15.158  22.482  0.00  0.00    +0.000 A 
ATOM     13  C   UNL     1       1.455  15.038  21.516  0.00  0.00    +0.000 C 
ATOM     14  C   UNL     1       0.268  16.333  23.252  0.00  0.00    +0.000 A 
ATOM     15  C   UNL     1      -0.743  16.578  24.173  0.00  0.00    +0.000 A 
ATOM     16  C   UNL     1      -1.737  15.610  24.299  0.00  0.00    +0.000 A 
ATOM     17  N   UNL     1      -2.834  15.590  25.115  0.00  0.00    +0.000 N 
ATOM     18  N   UNL     1      -3.590  14.501  25.000  0.00  0.00    +0.000 NA
ATOM     19  C   UNL     1      -2.963  13.770  24.067  0.00  0.00    +0.000 A 
ATOM     20  C   UNL     1      -3.589  12.477  23.697  0.00  0.00    +0.000 C 
ATOM     21  C   UNL     1      -1.766  14.416  23.576  0.00  0.00    +0.000 A 
ATOM     22  H   UNL     1      -3.118  16.304  25.776  0.00  0.00    +0.000 HD
ENDBRANCH   3  11
BRANCH   8  23
ATOM     23  C   UNL     1       1.908   7.803  19.549  0.00  0.00    +0.000 A 
ATOM     24  C   UNL     1       2.228   6.488  19.951  0.00  0.00    +0.000 A 
ATOM     25  C   UNL     1       3.089   5.642  19.229  0.00  0.00    +0.000 A 
ATOM     26  C   UNL     1       3.611   6.105  18.025  0.00  0.00    +0.000 A 
ATOM     27  C   UNL     1       3.307   7.391  17.586  0.00  0.00    +0.000 A 
ATOM     28  C   UNL     1       2.475   8.252  18.331  0.00  0.00    +0.000 A 
ATOM     29  C   UNL     1       2.203   9.601  17.716  0.00  0.00    +0.000 C 
BRANCH  25  30
ATOM     30  C   UNL     1       3.511   4.292  19.781  0.00  0.00    +0.000 C 
ATOM     31  C   UNL     1       2.303   3.352  19.853  0.00  0.00    +0.000 C 
ATOM     32  C   UNL     1       4.652   3.659  18.980  0.00  0.00    +0.000 C 
ENDBRANCH  25  30
ENDBRANCH   8  23
BRANCH   1  33
ATOM     33  O   UNL     1      -1.433  11.583  18.711  0.00  0.00    +0.000 OA
BRANCH  33  34
ATOM     34  C   UNL     1      -2.838  11.851  18.627  0.00  0.00    +0.000 C 
BRANCH  34  35
ATOM     35  C   UNL     1      -3.420  11.031  17.471  0.00  0.00    +0.000 C 
BRANCH  35  37
ATOM     36  C   UNL     1      -2.880  10.462  15.190  0.00  0.00    +0.000 C 
ATOM     37  N   UNL     1      -2.933  11.525  16.181  0.00  0.00    +0.000 NA
ATOM     38  H   UNL     1      -3.535  12.277  15.847  0.00  0.00    +0.000 HD
ENDBRANCH  35  37
ENDBRANCH  34  35
ENDBRANCH  33  34
ENDBRANCH   1  33
TORSDOF 7
ENDMDL
MODEL 2
REMARK VINA RESULT:      -7.7      1.192      2.223
REMARK  Name = 
REMARK  13 active torsions:
REMARK  status: ('A' for Active; 'I' for Inactive)
REMARK    1  A    between atoms: C_1  and  N_2
REMARK    2  A    between atoms: N_2  and  C_3
REMARK    3  A    between atoms: C_3  and  C_4
REMARK    4  A    between atoms: C_4  and  O_5
REMARK    5  A    between atoms: O_5  and  C_6
REMARK    6  A    between atoms: C_8  and  C_9
REMARK    7  A    between atoms: C_10  and  C_11
REMARK    8  A    between atoms: C_17  and  C_18
REMARK    9  A    between atoms: N_24  and  C_25
REMARK   10  A    between atoms: C_27  and  C_28
REMARK   11  A    between atoms: C_28  and  C_29
REMARK   12  A    between atoms: C_28  and  C_30
REMARK   13  A    between atoms: C_33  and  C_34
REMARK                            x       y       z     vdW  Elec       q    Type
REMARK                         _______ _______ _______ _____ _____    ______ ____
ROOT
ATOM      1  C   UNL     1      -1.316  11.802  20.279  0.00  0.00    +0.000 A 
ATOM      2  N   UNL     1      -1.571  12.878  21.042  0.00  0.00    +0.000 NA
ATOM      3  C   UNL     1      -1.156  12.826  22.318  0.00  0.00    +0.000 A 
ATOM      4  N   UNL     1      -0.561  11.759  22.868  0.00  0.00    +0.000 NA
ATOM      5  C   UNL     1      -0.267  10.724  22.056  0.00  0.00    +0.000 A 
ATOM      6  C   UNL     1      -0.633  10.691  20.722  0.00  0.00    +0.000 A 
ATOM      7  C   UNL     1      -0.302   9.533  19.831  0.00  0.00    +0.000 C 
ATOM      8  N   UNL     1       0.806   8.758  20.416  0.00  0.00    +0.000 N 
ATOM      9  C   UNL     1       0.582   8.391  21.814  0.00  0.00    +0.000 C 
ATOM     10  C   UNL     1       0.652   9.675  22.629  0.00  0.00    +0.000 C 
ENDROOT
BRANCH   3  11
ATOM     11  C   UNL     1      -1.290  14.044  23.133  0.00  0.00    +0.000 A 
ATOM     12  C   UNL     1      -2.392  14.264  24.017  0.00  0.00    +0.000 A 
ATOM     13  C   UNL     1      -3.481  13.245  24.265  0.00  0.00    +0.000 C 
ATOM     14  C   UNL     1      -2.533  15.483  24.702  0.00  0.00    +0.000 A 
ATOM     15  C   UNL     1      -1.601  16.506  24.573  0.00  0.00    +0.000 A 
ATOM     16  C   UNL     1      -0.511  16.271  23.738  0.00  0.00    +0.000 A 
ATOM     17  N   UNL     1       0.542  17.088  23.431  0.00  0.00    +0.000 N 
ATOM     18  N   UNL     1       1.421  16.562  22.581  0.00  0.00    +0.000 NA
ATOM     19  C   UNL     1       0.926  15.345  22.317  0.00  0.00    +0.000 A 
ATOM     20  C   UNL     1       1.712  14.488  21.395  0.00  0.00    +0.000 C 
ATOM     21  C   UNL     1      -0.312  15.091  23.020  0.00  0.00    +0.000 A 
ATOM     22  H   UNL     1       0.711  18.025  23.779  0.00  0.00    +0.000 HD
ENDBRANCH   3  11
BRANCH   8  23
ATOM     23  C   UNL     1       1.737   8.114  19.614  0.00  0.00    +0.000 A 
ATOM     24  C   UNL     1       2.170   6.817  19.965  0.00  0.00    +0.000 A 
ATOM     25  C   UNL     1       3.102   6.079  19.214  0.00  0.00    +0.000 A 
ATOM     26  C   UNL     1       3.583   6.633  18.032  0.00  0.00    +0.000 A 
ATOM     27  C   UNL     1       3.169   7.905  17.642  0.00  0.00    +0.000 A 
ATOM     28  C   UNL     1       2.263   8.659  18.417  0.00  0.00    +0.000 A 
ATOM     29  C   UNL     1       1.875  10.003  17.855  0.00  0.00    +0.000 C 
BRANCH  25  30
ATOM     30  C   UNL     1       3.639   4.750  19.714  0.00  0.00    +0.000 C 
ATOM     31  C   UNL     1       2.488   3.760  19.920  0.00  0.00    +0.000 C 
ATOM     32  C   UNL     1       4.709   4.161  18.790  0.00  0.00    +0.000 C 
ENDBRANCH  25  30
ENDBRANCH   8  23
BRANCH   1  33
ATOM     33  O   UNL     1      -1.745  11.804  18.966  0.00  0.00    +0.000 OA
BRANCH  33  34
ATOM     34  C   UNL     1      -3.167  11.937  18.850  0.00  0.00    +0.000 C 
BRANCH  34  35
ATOM     35  C   UNL     1      -3.595  11.389  17.484  0.00  0.00    +0.000 C 
BRANCH  35  37
ATOM     36  C   UNL     1      -2.720  10.602  15.379  0.00  0.00    +0.000 C 
ATOM     37  N   UNL     1      -2.501  11.482  16.516  0.00  0.00    +0.000 NA
ATOM     38  H   UNL     1      -2.405  12.445  16.192  0.00  0.00    +0.000 HD
ENDBRANCH  35  37
ENDBRANCH  34  35
ENDBRANCH  33  34
ENDBRANCH   1  33
TORSDOF 7
ENDMDL
MODEL 3
REMARK VINA RESULT:      -7.7      1.821      3.069
REMARK  Name = 
REMARK  13 active torsions:
REMARK  status: ('A' for Active; 'I' for Inactive)
REMARK    1  A    between atoms: C_1  and  N_2
REMARK    2  A    between atoms: N_2  and  C_3
REMARK    3  A    between atoms: C_3  and  C_4
REMARK    4  A    between atoms: C_4  and  O_5
REMARK    5  A    between atoms: O_5  and  C_6
REMARK    6  A    between atoms: C_8  and  C_9
REMARK    7  A    between atoms: C_10  and  C_11
REMARK    8  A    between atoms: C_17  and  C_18
REMARK    9  A    between atoms: N_24  and  C_25
REMARK   10  A    between atoms: C_27  and  C_28
REMARK   11  A    between atoms: C_28  and  C_29
REMARK   12  A    between atoms: C_28  and  C_30
REMARK   13  A    between atoms: C_33  and  C_34
REMARK                            x       y       z     vdW  Elec       q    Type
REMARK                         _______ _______ _______ _____ _____    ______ ____
ROOT
ATOM      1  C   UNL     1      -1.226  11.322  19.686  0.00  0.00    +0.000 A 
ATOM      2  N   UNL     1      -1.305  12.651  19.870  0.00  0.00    +0.000 NA
ATOM      3  C   UNL     1      -0.499  13.180  20.806  0.00  0.00    +0.000 A 
ATOM      4  N   UNL     1       0.321  12.459  21.582  0.00  0.00    +0.000 NA
ATOM      5  C   UNL     1       0.417  11.138  21.325  0.00  0.00    +0.000 A 
ATOM      6  C   UNL     1      -0.353  10.503  20.368  0.00  0.00    +0.000 A 
ATOM      7  C   UNL     1      -0.238   9.034  20.094  0.00  0.00    +0.000 C 
ATOM      8  N   UNL     1       1.055   8.538  20.595  0.00  0.00    +0.000 N 
ATOM      9  C   UNL     1       1.321   8.909  21.985  0.00  0.00    +0.000 C 
ATOM     10  C   UNL     1       1.549  10.413  22.008  0.00  0.00    +0.000 C 
ENDROOT
BRANCH   3  11
ATOM     11  C   UNL     1      -0.458  14.646  20.926  0.00  0.00    +0.000 A 
ATOM     12  C   UNL     1      -1.297  15.370  21.831  0.00  0.00    +0.000 A 
ATOM     13  C   UNL     1      -2.246  14.708  22.804  0.00  0.00    +0.000 C 
ATOM     14  C   UNL     1      -1.297  16.775  21.843  0.00  0.00    +0.000 A 
ATOM     15  C   UNL     1      -0.468  17.514  21.006  0.00  0.00    +0.000 A 
ATOM     16  C   UNL     1       0.372  16.801  20.154  0.00  0.00    +0.000 A 
ATOM     17  N   UNL     1       1.278  17.263  19.240  0.00  0.00    +0.000 N 
ATOM     18  N   UNL     1       1.922  16.310  18.569  0.00  0.00    +0.000 NA
ATOM     19  C   UNL     1       1.418  15.171  19.064  0.00  0.00    +0.000 A 
ATOM     20  C   UNL     1       1.965  13.904  18.517  0.00  0.00    +0.000 C 
ATOM     21  C   UNL     1       0.418  15.408  20.080  0.00  0.00    +0.000 A 
ATOM     22  H   UNL     1       1.499  18.230  19.032  0.00  0.00    +0.000 HD
ENDBRANCH   3  11
BRANCH   8  23
ATOM     23  C   UNL     1       1.727   7.505  19.955  0.00  0.00    +0.000 A 
ATOM     24  C   UNL     1       1.770   6.231  20.561  0.00  0.00    +0.000 A 
ATOM     25  C   UNL     1       2.417   5.120  19.991  0.00  0.00    +0.000 A 
ATOM     26  C   UNL     1       2.998   5.269  18.736  0.00  0.00    +0.000 A 
ATOM     27  C   UNL     1       2.964   6.506  18.097  0.00  0.00    +0.000 A 
ATOM     28  C   UNL     1       2.349   7.629  18.689  0.00  0.00    +0.000 A 
ATOM     29  C   UNL     1       2.355   8.893  17.867  0.00  0.00    +0.000 C 
BRANCH  25  30
ATOM     30  C   UNL     1       2.555   3.814  20.752  0.00  0.00    +0.000 C 
ATOM     31  C   UNL     1       1.179   3.170  20.950  0.00  0.00    +0.000 C 
ATOM     32  C   UNL     1       3.525   2.839  20.078  0.00  0.00    +0.000 C 
ENDBRANCH  25  30
ENDBRANCH   8  23
BRANCH   1  33
ATOM     33  O   UNL     1      -2.052  10.734  18.749  0.00  0.00    +0.000 OA
BRANCH  33  34
ATOM     34  C   UNL     1      -1.991  11.383  17.473  0.00  0.00    +0.000 C 
BRANCH  34  35
ATOM     35  C   UNL     1      -3.320  11.148  16.746  0.00  0.00    +0.000 C 
BRANCH  35  37
ATOM     36  C   UNL     1      -3.164  10.118  14.571  0.00  0.00    +0.000 C 
ATOM     37  N   UNL     1      -3.176  11.373  15.307  0.00  0.00    +0.000 NA
ATOM     38  H   UNL     1      -3.937  11.962  14.969  0.00  0.00    +0.000 HD
ENDBRANCH  35  37
ENDBRANCH  34  35
ENDBRANCH  33  34
ENDBRANCH   1  33
TORSDOF 7
ENDMDL
MODEL 4
REMARK VINA RESULT:      -7.5      2.633      3.994
REMARK  Name = 
REMARK  13 active torsions:
REMARK  status: ('A' for Active; 'I' for Inactive)
REMARK    1  A    between atoms: C_1  and  N_2
REMARK    2  A    between atoms: N_2  and  C_3
REMARK    3  A    between atoms: C_3  and  C_4
REMARK    4  A    between atoms: C_4  and  O_5
REMARK    5  A    between atoms: O_5  and  C_6
REMARK    6  A    between atoms: C_8  and  C_9
REMARK    7  A    between atoms: C_10  and  C_11
REMARK    8  A    between atoms: C_17  and  C_18
REMARK    9  A    between atoms: N_24  and  C_25
REMARK   10  A    between atoms: C_27  and  C_28
REMARK   11  A    between atoms: C_28  and  C_29
REMARK   12  A    between atoms: C_28  and  C_30
REMARK   13  A    between atoms: C_33  and  C_34
REMARK                            x       y       z     vdW  Elec       q    Type
REMARK                         _______ _______ _______ _____ _____    ______ ____
ROOT
ATOM      1  C   UNL     1       1.696  13.557  19.452  0.00  0.00    +0.000 A 
ATOM      2  N   UNL     1       1.011  14.615  19.917  0.00  0.00    +0.000 NA
ATOM      3  C   UNL     1      -0.328  14.507  19.935  0.00  0.00    +0.000 A 
ATOM      4  N   UNL     1      -0.999  13.442  19.476  0.00  0.00    +0.000 NA
ATOM      5  C   UNL     1      -0.275  12.377  19.077  0.00  0.00    +0.000 A 
ATOM      6  C   UNL     1       1.107  12.382  19.040  0.00  0.00    +0.000 A 
ATOM      7  C   UNL     1       1.899  11.192  18.591  0.00  0.00    +0.000 C 
ATOM      8  N   UNL     1       1.067   9.980  18.682  0.00  0.00    +0.000 N 
ATOM      9  C   UNL     1      -0.231  10.117  18.022  0.00  0.00    +0.000 C 
ATOM     10  C   UNL     1      -1.048  11.103  18.845  0.00  0.00    +0.000 C 
ENDROOT
BRANCH   3  11
ATOM     11  C   UNL     1      -1.094  15.589  20.573  0.00  0.00    +0.000 A 
ATOM     12  C   UNL     1      -1.345  16.842  19.930  0.00  0.00    +0.000 A 
ATOM     13  C   UNL     1      -0.923  17.152  18.512  0.00  0.00    +0.000 C 
ATOM     14  C   UNL     1      -1.996  17.883  20.612  0.00  0.00    +0.000 A 
ATOM     15  C   UNL     1      -2.445  17.733  21.919  0.00  0.00    +0.000 A 
ATOM     16  C   UNL     1      -2.230  16.499  22.527  0.00  0.00    +0.000 A 
ATOM     17  N   UNL     1      -2.563  16.078  23.785  0.00  0.00    +0.000 N 
ATOM     18  N   UNL     1      -2.201  14.828  24.065  0.00  0.00    +0.000 NA
ATOM     19  C   UNL     1      -1.604  14.406  22.941  0.00  0.00    +0.000 A 
ATOM     20  C   UNL     1      -1.101  13.010  22.935  0.00  0.00    +0.000 C 
ATOM     21  C   UNL     1      -1.583  15.424  21.915  0.00  0.00    +0.000 A 
ATOM     22  H   UNL     1      -3.043  16.611  24.500  0.00  0.00    +0.000 HD
ENDBRANCH   3  11
BRANCH   8  23
ATOM     23  C   UNL     1       1.622   8.746  18.991  0.00  0.00    +0.000 A 
ATOM     24  C   UNL     1       2.509   8.140  18.075  0.00  0.00    +0.000 A 
ATOM     25  C   UNL     1       3.129   6.897  18.299  0.00  0.00    +0.000 A 
ATOM     26  C   UNL     1       2.899   6.256  19.512  0.00  0.00    +0.000 A 
ATOM     27  C   UNL     1       2.042   6.828  20.449  0.00  0.00    +0.000 A 
ATOM     28  C   UNL     1       1.391   8.055  20.206  0.00  0.00    +0.000 A 
ATOM     29  C   UNL     1       0.521   8.573  21.323  0.00  0.00    +0.000 C 
BRANCH  25  30
ATOM     30  C   UNL     1       3.960   6.227  17.220  0.00  0.00    +0.000 C 
ATOM     31  C   UNL     1       5.347   6.874  17.145  0.00  0.00    +0.000 C 
ATOM     32  C   UNL     1       4.071   4.713  17.417  0.00  0.00    +0.000 C 
ENDBRANCH  25  30
ENDBRANCH   8  23
BRANCH   1  33
ATOM     33  O   UNL     1       3.074  13.633  19.395  0.00  0.00    +0.000 OA
BRANCH  33  34
ATOM     34  C   UNL     1       3.558  14.977  19.510  0.00  0.00    +0.000 C 
BRANCH  34  35
ATOM     35  C   UNL     1       4.421  15.288  18.283  0.00  0.00    +0.000 C 
BRANCH  35  37
ATOM     36  C   UNL     1       3.012  16.771  17.006  0.00  0.00    +0.000 C 
ATOM     37  N   UNL     1       3.593  15.440  17.085  0.00  0.00    +0.000 NA
ATOM     38  H   UNL     1       4.151  15.259  16.251  0.00  0.00    +0.000 HD
ENDBRANCH  35  37
ENDBRANCH  34  35
ENDBRANCH  33  34
ENDBRANCH   1  33
TORSDOF 7
ENDMDL
MODEL 5
REMARK VINA RESULT:      -7.5      2.921      4.387
REMARK  Name = 
REMARK  13 active torsions:
REMARK  status: ('A' for Active; 'I' for Inactive)
REMARK    1  A    between atoms: C_1  and  N_2
REMARK    2  A    between atoms: N_2  and  C_3
REMARK    3  A    between atoms: C_3  and  C_4
REMARK    4  A    between atoms: C_4  and  O_5
REMARK    5  A    between atoms: O_5  and  C_6
REMARK    6  A    between atoms: C_8  and  C_9
REMARK    7  A    between atoms: C_10  and  C_11
REMARK    8  A    between atoms: C_17  and  C_18
REMARK    9  A    between atoms: N_24  and  C_25
REMARK   10  A    between atoms: C_27  and  C_28
REMARK   11  A    between atoms: C_28  and  C_29
REMARK   12  A    between atoms: C_28  and  C_30
REMARK   13  A    between atoms: C_33  and  C_34
REMARK                            x       y       z     vdW  Elec       q    Type
REMARK                         _______ _______ _______ _____ _____    ______ ____
ROOT
ATOM      1  C   UNL     1       1.810  13.702  19.116  0.00  0.00    +0.000 A 
ATOM      2  N   UNL     1       1.202  14.838  19.499  0.00  0.00    +0.000 NA
ATOM      3  C   UNL     1      -0.140  14.811  19.566  0.00  0.00    +0.000 A 
ATOM      4  N   UNL     1      -0.885  13.750  19.228  0.00  0.00    +0.000 NA
ATOM      5  C   UNL     1      -0.236  12.612  18.909  0.00  0.00    +0.000 A 
ATOM      6  C   UNL     1       1.143  12.532  18.832  0.00  0.00    +0.000 A 
ATOM      7  C   UNL     1       1.850  11.260  18.474  0.00  0.00    +0.000 C 
ATOM      8  N   UNL     1       0.955  10.114  18.701  0.00  0.00    +0.000 N 
ATOM      9  C   UNL     1      -0.356  10.266  18.068  0.00  0.00    +0.000 C 
ATOM     10  C   UNL     1      -1.087  11.370  18.819  0.00  0.00    +0.000 C 
ENDROOT
BRANCH   3  11
ATOM     11  C   UNL     1      -0.822  15.990  20.122  0.00  0.00    +0.000 A 
ATOM     12  C   UNL     1      -1.057  17.177  19.359  0.00  0.00    +0.000 A 
ATOM     13  C   UNL     1      -0.706  17.314  17.896  0.00  0.00    +0.000 C 
ATOM     14  C   UNL     1      -1.623  18.316  19.958  0.00  0.00    +0.000 A 
ATOM     15  C   UNL     1      -2.001  18.328  21.295  0.00  0.00    +0.000 A 
ATOM     16  C   UNL     1      -1.802  17.157  22.022  0.00  0.00    +0.000 A 
ATOM     17  N   UNL     1      -2.078  16.890  23.335  0.00  0.00    +0.000 N 
ATOM     18  N   UNL     1      -1.753  15.661  23.730  0.00  0.00    +0.000 NA
ATOM     19  C   UNL     1      -1.241  15.093  22.629  0.00  0.00    +0.000 A 
ATOM     20  C   UNL     1      -0.797  13.682  22.749  0.00  0.00    +0.000 C 
ATOM     21  C   UNL     1      -1.237  15.993  21.498  0.00  0.00    +0.000 A 
ATOM     22  H   UNL     1      -2.493  17.519  24.013  0.00  0.00    +0.000 HD
ENDBRANCH   3  11
BRANCH   8  23
ATOM     23  C   UNL     1       1.449   8.882  19.108  0.00  0.00    +0.000 A 
ATOM     24  C   UNL     1       2.259   8.137  18.223  0.00  0.00    +0.000 A 
ATOM     25  C   UNL     1       2.813   6.886  18.543  0.00  0.00    +0.000 A 
ATOM     26  C   UNL     1       2.600   6.378  19.821  0.00  0.00    +0.000 A 
ATOM     27  C   UNL     1       1.820   7.089  20.729  0.00  0.00    +0.000 A 
ATOM     28  C   UNL     1       1.232   8.326  20.392  0.00  0.00    +0.000 A 
ATOM     29  C   UNL     1       0.444   9.001  21.486  0.00  0.00    +0.000 C 
BRANCH  25  30
ATOM     30  C   UNL     1       3.555   6.065  17.504  0.00  0.00    +0.000 C 
ATOM     31  C   UNL     1       4.857   6.769  17.106  0.00  0.00    +0.000 C 
ATOM     32  C   UNL     1       3.828   4.632  17.970  0.00  0.00    +0.000 C 
ENDBRANCH  25  30
ENDBRANCH   8  23
BRANCH   1  33
ATOM     33  O   UNL     1       3.187  13.692  19.012  0.00  0.00    +0.000 OA
BRANCH  33  34
ATOM     34  C   UNL     1       3.807  14.739  19.769  0.00  0.00    +0.000 C 
BRANCH  34  35
ATOM     35  C   UNL     1       4.977  15.299  18.953  0.00  0.00    +0.000 C 
BRANCH  35  37
ATOM     36  C   UNL     1       6.688  14.276  17.596  0.00  0.00    +0.000 C 
ATOM     37  N   UNL     1       5.258  14.453  17.792  0.00  0.00    +0.000 NA
ATOM     38  H   UNL     1       4.812  13.543  17.909  0.00  0.00    +0.000 HD
ENDBRANCH  35  37
ENDBRANCH  34  35
ENDBRANCH  33  34
ENDBRANCH   1  33
TORSDOF 7
ENDMDL
MODEL 6
REMARK VINA RESULT:      -7.4      2.194      3.748
REMARK  Name = 
REMARK  13 active torsions:
REMARK  status: ('A' for Active; 'I' for Inactive)
REMARK    1  A    between atoms: C_1  and  N_2
REMARK    2  A    between atoms: N_2  and  C_3
REMARK    3  A    between atoms: C_3  and  C_4
REMARK    4  A    between atoms: C_4  and  O_5
REMARK    5  A    between atoms: O_5  and  C_6
REMARK    6  A    between atoms: C_8  and  C_9
REMARK    7  A    between atoms: C_10  and  C_11
REMARK    8  A    between atoms: C_17  and  C_18
REMARK    9  A    between atoms: N_24  and  C_25
REMARK   10  A    between atoms: C_27  and  C_28
REMARK   11  A    between atoms: C_28  and  C_29
REMARK   12  A    between atoms: C_28  and  C_30
REMARK   13  A    between atoms: C_33  and  C_34
REMARK                            x       y       z     vdW  Elec       q    Type
REMARK                         _______ _______ _______ _____ _____    ______ ____
ROOT
ATOM      1  C   UNL     1       0.804  13.279  20.893  0.00  0.00    +0.000 A 
ATOM      2  N   UNL     1      -0.095  14.170  21.346  0.00  0.00    +0.000 NA
ATOM      3  C   UNL     1      -1.363  14.011  20.933  0.00  0.00    +0.000 A 
ATOM      4  N   UNL     1      -1.756  13.064  20.071  0.00  0.00    +0.000 NA
ATOM      5  C   UNL     1      -0.839  12.152  19.688  0.00  0.00    +0.000 A 
ATOM      6  C   UNL     1       0.487  12.217  20.076  0.00  0.00    +0.000 A 
ATOM      7  C   UNL     1       1.498  11.199  19.640  0.00  0.00    +0.000 C 
ATOM      8  N   UNL     1       0.809   9.971  19.208  0.00  0.00    +0.000 N 
ATOM      9  C   UNL     1      -0.252  10.215  18.230  0.00  0.00    +0.000 C 
ATOM     10  C   UNL     1      -1.371  10.944  18.961  0.00  0.00    +0.000 C 
ENDROOT
BRANCH   3  11
ATOM     11  C   UNL     1      -2.391  14.879  21.527  0.00  0.00    +0.000 A 
ATOM     12  C   UNL     1      -2.639  16.211  21.066  0.00  0.00    +0.000 A 
ATOM     13  C   UNL     1      -1.933  16.830  19.882  0.00  0.00    +0.000 C 
ATOM     14  C   UNL     1      -3.561  17.040  21.727  0.00  0.00    +0.000 A 
ATOM     15  C   UNL     1      -4.287  16.598  22.826  0.00  0.00    +0.000 A 
ATOM     16  C   UNL     1      -4.067  15.288  23.247  0.00  0.00    +0.000 A 
ATOM     17  N   UNL     1      -4.635  14.601  24.284  0.00  0.00    +0.000 N 
ATOM     18  N   UNL     1      -4.194  13.353  24.428  0.00  0.00    +0.000 NA
ATOM     19  C   UNL     1      -3.297  13.212  23.442  0.00  0.00    +0.000 A 
ATOM     20  C   UNL     1      -2.633  11.890  23.325  0.00  0.00    +0.000 C 
ATOM     21  C   UNL     1      -3.161  14.412  22.647  0.00  0.00    +0.000 A 
ATOM     22  H   UNL     1      -5.337  14.940  24.931  0.00  0.00    +0.000 HD
ENDBRANCH   3  11
BRANCH   8  23
ATOM     23  C   UNL     1       1.381   8.721  19.394  0.00  0.00    +0.000 A 
ATOM     24  C   UNL     1       2.241   8.201  18.403  0.00  0.00    +0.000 A 
ATOM     25  C   UNL     1       2.875   6.949  18.502  0.00  0.00    +0.000 A 
ATOM     26  C   UNL     1       2.688   6.206  19.663  0.00  0.00    +0.000 A 
ATOM     27  C   UNL     1       1.858   6.690  20.671  0.00  0.00    +0.000 A 
ATOM     28  C   UNL     1       1.193   7.929  20.553  0.00  0.00    +0.000 A 
ATOM     29  C   UNL     1       0.357   8.343  21.737  0.00  0.00    +0.000 C 
BRANCH  25  30
ATOM     30  C   UNL     1       3.674   6.379  17.344  0.00  0.00    +0.000 C 
ATOM     31  C   UNL     1       5.074   7.002  17.312  0.00  0.00    +0.000 C 
ATOM     32  C   UNL     1       3.756   4.850  17.381  0.00  0.00    +0.000 C 
ENDBRANCH  25  30
ENDBRANCH   8  23
BRANCH   1  33
ATOM     33  O   UNL     1       2.124  13.418  21.275  0.00  0.00    +0.000 OA
BRANCH  33  34
ATOM     34  C   UNL     1       2.683  14.678  20.883  0.00  0.00    +0.000 C 
BRANCH  34  35
ATOM     35  C   UNL     1       3.497  14.469  19.602  0.00  0.00    +0.000 C 
BRANCH  35  37
ATOM     36  C   UNL     1       1.933  16.084  18.730  0.00  0.00    +0.000 C 
ATOM     37  N   UNL     1       2.747  14.918  18.427  0.00  0.00    +0.000 NA
ATOM     38  H   UNL     1       3.391  15.137  17.666  0.00  0.00    +0.000 HD
ENDBRANCH  35  37
ENDBRANCH  34  35
ENDBRANCH  33  34
ENDBRANCH   1  33
TORSDOF 7
ENDMDL
MODEL 7
REMARK VINA RESULT:      -7.4      1.232      1.251
REMARK  Name = 
REMARK  13 active torsions:
REMARK  status: ('A' for Active; 'I' for Inactive)
REMARK    1  A    between atoms: C_1  and  N_2
REMARK    2  A    between atoms: N_2  and  C_3
REMARK    3  A    between atoms: C_3  and  C_4
REMARK    4  A    between atoms: C_4  and  O_5
REMARK    5  A    between atoms: O_5  and  C_6
REMARK    6  A    between atoms: C_8  and  C_9
REMARK    7  A    between atoms: C_10  and  C_11
REMARK    8  A    between atoms: C_17  and  C_18
REMARK    9  A    between atoms: N_24  and  C_25
REMARK   10  A    between atoms: C_27  and  C_28
REMARK   11  A    between atoms: C_28  and  C_29
REMARK   12  A    between atoms: C_28  and  C_30
REMARK   13  A    between atoms: C_33  and  C_34
REMARK                            x       y       z     vdW  Elec       q    Type
REMARK                         _______ _______ _______ _____ _____    ______ ____
ROOT
ATOM      1  C   UNL     1      -1.798  11.856  19.520  0.00  0.00    +0.000 A 
ATOM      2  N   UNL     1      -2.094  13.086  19.973  0.00  0.00    +0.000 NA
ATOM      3  C   UNL     1      -1.595  13.424  21.173  0.00  0.00    +0.000 A 
ATOM      4  N   UNL     1      -0.877  12.597  21.945  0.00  0.00    +0.000 NA
ATOM      5  C   UNL     1      -0.549  11.395  21.429  0.00  0.00    +0.000 A 
ATOM      6  C   UNL     1      -0.996  10.963  20.194  0.00  0.00    +0.000 A 
ATOM      7  C   UNL     1      -0.625   9.623  19.634  0.00  0.00    +0.000 C 
ATOM      8  N   UNL     1       0.580   9.118  20.314  0.00  0.00    +0.000 N 
ATOM      9  C   UNL     1       0.478   9.148  21.773  0.00  0.00    +0.000 C 
ATOM     10  C   UNL     1       0.491  10.612  22.190  0.00  0.00    +0.000 C 
ENDROOT
BRANCH   3  11
ATOM     11  C   UNL     1      -1.780  14.812  21.626  0.00  0.00    +0.000 A 
ATOM     12  C   UNL     1      -0.908  15.875  21.232  0.00  0.00    +0.000 A 
ATOM     13  C   UNL     1       0.234  15.703  20.257  0.00  0.00    +0.000 C 
ATOM     14  C   UNL     1      -1.061  17.166  21.767  0.00  0.00    +0.000 A 
ATOM     15  C   UNL     1      -2.073  17.468  22.670  0.00  0.00    +0.000 A 
ATOM     16  C   UNL     1      -2.941  16.437  23.021  0.00  0.00    +0.000 A 
ATOM     17  N   UNL     1      -4.010  16.451  23.873  0.00  0.00    +0.000 N 
ATOM     18  N   UNL     1      -4.632  15.281  24.000  0.00  0.00    +0.000 NA
ATOM     19  C   UNL     1      -3.943  14.460  23.195  0.00  0.00    +0.000 A 
ATOM     20  C   UNL     1      -4.418  13.057  23.105  0.00  0.00    +0.000 C 
ATOM     21  C   UNL     1      -2.843  15.130  22.539  0.00  0.00    +0.000 A 
ATOM     22  H   UNL     1      -4.362  17.242  24.399  0.00  0.00    +0.000 HD
ENDBRANCH   3  11
BRANCH   8  23
ATOM     23  C   UNL     1       1.509   8.333  19.646  0.00  0.00    +0.000 A 
ATOM     24  C   UNL     1       1.787   7.034  20.123  0.00  0.00    +0.000 A 
ATOM     25  C   UNL     1       2.704   6.161  19.512  0.00  0.00    +0.000 A 
ATOM     26  C   UNL     1       3.332   6.577  18.342  0.00  0.00    +0.000 A 
ATOM     27  C   UNL     1       3.074   7.846  17.830  0.00  0.00    +0.000 A 
ATOM     28  C   UNL     1       2.183   8.736  18.466  0.00  0.00    +0.000 A 
ATOM     29  C   UNL     1       1.972  10.061  17.779  0.00  0.00    +0.000 C 
BRANCH  25  30
ATOM     30  C   UNL     1       3.069   4.833  20.150  0.00  0.00    +0.000 C 
ATOM     31  C   UNL     1       1.864   4.260  20.903  0.00  0.00    +0.000 C 
ATOM     32  C   UNL     1       3.611   3.822  19.135  0.00  0.00    +0.000 C 
ENDBRANCH  25  30
ENDBRANCH   8  23
BRANCH   1  33
ATOM     33  O   UNL     1      -2.309  11.459  18.300  0.00  0.00    +0.000 OA
BRANCH  33  34
ATOM     34  C   UNL     1      -3.730  11.619  18.218  0.00  0.00    +0.000 C 
BRANCH  34  35
ATOM     35  C   UNL     1      -4.161  11.385  16.766  0.00  0.00    +0.000 C 
BRANCH  35  37
ATOM     36  C   UNL     1      -2.977  10.310  14.961  0.00  0.00    +0.000 C 
ATOM     37  N   UNL     1      -3.012  11.452  15.861  0.00  0.00    +0.000 NA
ATOM     38  H   UNL     1      -3.045  12.316  15.320  0.00  0.00    +0.000 HD
ENDBRANCH  35  37
ENDBRANCH  34  35
ENDBRANCH  33  34
ENDBRANCH   1  33
TORSDOF 7
ENDMDL
MODEL 8
REMARK VINA RESULT:      -7.4      1.336      2.273
REMARK  Name = 
REMARK  13 active torsions:
REMARK  status: ('A' for Active; 'I' for Inactive)
REMARK    1  A    between atoms: C_1  and  N_2
REMARK    2  A    between atoms: N_2  and  C_3
REMARK    3  A    between atoms: C_3  and  C_4
REMARK    4  A    between atoms: C_4  and  O_5
REMARK    5  A    between atoms: O_5  and  C_6
REMARK    6  A    between atoms: C_8  and  C_9
REMARK    7  A    between atoms: C_10  and  C_11
REMARK    8  A    between atoms: C_17  and  C_18
REMARK    9  A    between atoms: N_24  and  C_25
REMARK   10  A    between atoms: C_27  and  C_28
REMARK   11  A    between atoms: C_28  and  C_29
REMARK   12  A    between atoms: C_28  and  C_30
REMARK   13  A    between atoms: C_33  and  C_34
REMARK                            x       y       z     vdW  Elec       q    Type
REMARK                         _______ _______ _______ _____ _____    ______ ____
ROOT
ATOM      1  C   UNL     1      -0.156  10.943  19.348  0.00  0.00    +0.000 A 
ATOM      2  N   UNL     1      -0.215  12.176  19.880  0.00  0.00    +0.000 NA
ATOM      3  C   UNL     1       0.272  12.321  21.123  0.00  0.00    +0.000 A 
ATOM      4  N   UNL     1       0.755  11.311  21.860  0.00  0.00    +0.000 NA
ATOM      5  C   UNL     1       0.855  10.103  21.269  0.00  0.00    +0.000 A 
ATOM      6  C   UNL     1       0.401   9.857  19.986  0.00  0.00    +0.000 A 
ATOM      7  C   UNL     1       0.515   8.509  19.343  0.00  0.00    +0.000 C 
ATOM      8  N   UNL     1       1.546   7.716  20.034  0.00  0.00    +0.000 N 
ATOM      9  C   UNL     1       1.368   7.672  21.486  0.00  0.00    +0.000 C 
ATOM     10  C   UNL     1       1.661   9.069  22.013  0.00  0.00    +0.000 C 
ENDROOT
BRANCH   3  11
ATOM     11  C   UNL     1       0.355  13.683  21.673  0.00  0.00    +0.000 A 
ATOM     12  C   UNL     1       1.397  14.597  21.317  0.00  0.00    +0.000 A 
ATOM     13  C   UNL     1       2.464  14.291  20.291  0.00  0.00    +0.000 C 
ATOM     14  C   UNL     1       1.495  15.853  21.940  0.00  0.00    +0.000 A 
ATOM     15  C   UNL     1       0.577  16.268  22.897  0.00  0.00    +0.000 A 
ATOM     16  C   UNL     1      -0.455  15.388  23.212  0.00  0.00    +0.000 A 
ATOM     17  N   UNL     1      -1.483  15.535  24.102  0.00  0.00    +0.000 N 
ATOM     18  N   UNL     1      -2.305  14.490  24.175  0.00  0.00    +0.000 NA
ATOM     19  C   UNL     1      -1.797  13.617  23.294  0.00  0.00    +0.000 A 
ATOM     20  C   UNL     1      -2.522  12.333  23.130  0.00  0.00    +0.000 C 
ATOM     21  C   UNL     1      -0.610  14.123  22.642  0.00  0.00    +0.000 A 
ATOM     22  H   UNL     1      -1.672  16.337  24.691  0.00  0.00    +0.000 HD
ENDBRANCH   3  11
BRANCH   8  23
ATOM     23  C   UNL     1       2.329   6.797  19.349  0.00  0.00    +0.000 A 
ATOM     24  C   UNL     1       3.331   7.263  18.471  0.00  0.00    +0.000 A 
ATOM     25  C   UNL     1       4.180   6.414  17.739  0.00  0.00    +0.000 A 
ATOM     26  C   UNL     1       4.063   5.041  17.931  0.00  0.00    +0.000 A 
ATOM     27  C   UNL     1       3.097   4.541  18.800  0.00  0.00    +0.000 A 
ATOM     28  C   UNL     1       2.221   5.393  19.504  0.00  0.00    +0.000 A 
ATOM     29  C   UNL     1       1.251   4.716  20.437  0.00  0.00    +0.000 C 
BRANCH  25  30
ATOM     30  C   UNL     1       5.142   6.967  16.703  0.00  0.00    +0.000 C 
ATOM     31  C   UNL     1       6.527   7.171  17.325  0.00  0.00    +0.000 C 
ATOM     32  C   UNL     1       5.228   6.089  15.451  0.00  0.00    +0.000 C 
ENDBRANCH  25  30
ENDBRANCH   8  23
BRANCH   1  33
ATOM     33  O   UNL     1      -0.666  10.744  18.080  0.00  0.00    +0.000 OA
BRANCH  33  34
ATOM     34  C   UNL     1      -1.555  11.791  17.671  0.00  0.00    +0.000 C 
BRANCH  34  35
ATOM     35  C   UNL     1      -2.863  11.155  17.187  0.00  0.00    +0.000 C 
BRANCH  35  37
ATOM     36  C   UNL     1      -2.918  10.262  14.948  0.00  0.00    +0.000 C 
ATOM     37  N   UNL     1      -3.094  11.447  15.772  0.00  0.00    +0.000 NA
ATOM     38  H   UNL     1      -4.036  11.819  15.643  0.00  0.00    +0.000 HD
ENDBRANCH  35  37
ENDBRANCH  34  35
ENDBRANCH  33  34
ENDBRANCH   1  33
TORSDOF 7
ENDMDL
MODEL 9
REMARK VINA RESULT:      -7.4      1.497      1.635
REMARK  Name = 
REMARK  13 active torsions:
REMARK  status: ('A' for Active; 'I' for Inactive)
REMARK    1  A    between atoms: C_1  and  N_2
REMARK    2  A    between atoms: N_2  and  C_3
REMARK    3  A    between atoms: C_3  and  C_4
REMARK    4  A    between atoms: C_4  and  O_5
REMARK    5  A    between atoms: O_5  and  C_6
REMARK    6  A    between atoms: C_8  and  C_9
REMARK    7  A    between atoms: C_10  and  C_11
REMARK    8  A    between atoms: C_17  and  C_18
REMARK    9  A    between atoms: N_24  and  C_25
REMARK   10  A    between atoms: C_27  and  C_28
REMARK   11  A    between atoms: C_28  and  C_29
REMARK   12  A    between atoms: C_28  and  C_30
REMARK   13  A    between atoms: C_33  and  C_34
REMARK                            x       y       z     vdW  Elec       q    Type
REMARK                         _______ _______ _______ _____ _____    ______ ____
ROOT
ATOM      1  C   UNL     1      -1.368  11.318  19.262  0.00  0.00    +0.000 A 
ATOM      2  N   UNL     1      -1.525  12.640  19.448  0.00  0.00    +0.000 NA
ATOM      3  C   UNL     1      -0.854  13.189  20.473  0.00  0.00    +0.000 A 
ATOM      4  N   UNL     1      -0.097  12.492  21.331  0.00  0.00    +0.000 NA
ATOM      5  C   UNL     1       0.086  11.181  21.075  0.00  0.00    +0.000 A 
ATOM      6  C   UNL     1      -0.544  10.527  20.031  0.00  0.00    +0.000 A 
ATOM      7  C   UNL     1      -0.335   9.068  19.760  0.00  0.00    +0.000 C 
ATOM      8  N   UNL     1       0.914   8.620  20.399  0.00  0.00    +0.000 N 
ATOM      9  C   UNL     1       1.004   8.982  21.814  0.00  0.00    +0.000 C 
ATOM     10  C   UNL     1       1.163  10.495  21.876  0.00  0.00    +0.000 C 
ENDROOT
BRANCH   3  11
ATOM     11  C   UNL     1      -0.890  14.653  20.610  0.00  0.00    +0.000 A 
ATOM     12  C   UNL     1       0.001  15.518  19.899  0.00  0.00    +0.000 A 
ATOM     13  C   UNL     1       1.008  15.028  18.884  0.00  0.00    +0.000 C 
ATOM     14  C   UNL     1      -0.001  16.903  20.134  0.00  0.00    +0.000 A 
ATOM     15  C   UNL     1      -0.880  17.491  21.036  0.00  0.00    +0.000 A 
ATOM     16  C   UNL     1      -1.769  16.648  21.698  0.00  0.00    +0.000 A 
ATOM     17  N   UNL     1      -2.730  16.950  22.623  0.00  0.00    +0.000 N 
ATOM     18  N   UNL     1      -3.411  15.900  23.077  0.00  0.00    +0.000 NA
ATOM     19  C   UNL     1      -2.877  14.860  22.420  0.00  0.00    +0.000 A 
ATOM     20  C   UNL     1      -3.454  13.523  22.702  0.00  0.00    +0.000 C 
ATOM     21  C   UNL     1      -1.817  15.263  21.523  0.00  0.00    +0.000 A 
ATOM     22  H   UNL     1      -2.964  17.867  22.984  0.00  0.00    +0.000 HD
ENDBRANCH   3  11
BRANCH   8  23
ATOM     23  C   UNL     1       1.697   7.624  19.832  0.00  0.00    +0.000 A 
ATOM     24  C   UNL     1       1.765   6.360  20.455  0.00  0.00    +0.000 A 
ATOM     25  C   UNL     1       2.523   5.286  19.955  0.00  0.00    +0.000 A 
ATOM     26  C   UNL     1       3.198   5.461  18.751  0.00  0.00    +0.000 A 
ATOM     27  C   UNL     1       3.144   6.688  18.096  0.00  0.00    +0.000 A 
ATOM     28  C   UNL     1       2.415   7.777  18.620  0.00  0.00    +0.000 A 
ATOM     29  C   UNL     1       2.415   9.032  17.786  0.00  0.00    +0.000 C 
BRANCH  25  30
ATOM     30  C   UNL     1       2.674   3.997  20.741  0.00  0.00    +0.000 C 
ATOM     31  C   UNL     1       1.297   3.397  21.042  0.00  0.00    +0.000 C 
ATOM     32  C   UNL     1       3.573   2.978  20.035  0.00  0.00    +0.000 C 
ENDBRANCH  25  30
ENDBRANCH   8  23
BRANCH   1  33
ATOM     33  O   UNL     1      -2.057  10.707  18.232  0.00  0.00    +0.000 OA
BRANCH  33  34
ATOM     34  C   UNL     1      -3.430  11.112  18.170  0.00  0.00    +0.000 C 
BRANCH  34  35
ATOM     35  C   UNL     1      -3.753  11.511  16.725  0.00  0.00    +0.000 C 
BRANCH  35  37
ATOM     36  C   UNL     1      -2.965  10.209  14.854  0.00  0.00    +0.000 C 
ATOM     37  N   UNL     1      -2.623  11.224  15.839  0.00  0.00    +0.000 NA
ATOM     38  H   UNL     1      -2.328  12.078  15.365  0.00  0.00    +0.000 HD
ENDBRANCH  35  37
ENDBRANCH  34  35
ENDBRANCH  33  34
ENDBRANCH   1  33
TORSDOF 7
ENDMDL
