MODEL 1
REMARK VINA RESULT:      -7.5      0.000      0.000
REMARK  Name = 
REMARK  5 active torsions:
REMARK  status: ('A' for Active; 'I' for Inactive)
REMARK    1  A    between atoms: N_3  and  O_4
REMARK    2  A    between atoms: N_5  and  N_6
REMARK    3  A    between atoms: C_7  and  C_8
REMARK    4  A    between atoms: C_13  and  N_14
REMARK    5  A    between atoms: C_17  and  N_18
REMARK                            x       y       z     vdW  Elec       q    Type
REMARK                         _______ _______ _______ _____ _____    ______ ____
ROOT
ATOM      1  C   UNL     1       3.086   5.831  18.528  0.00  0.00    +0.000 A 
ATOM      2  C   UNL     1       2.453   7.020  18.945  0.00  0.00    +0.000 A 
ATOM      3 CL   UNL     1       2.659   8.557  18.177  0.00  0.00    +0.000 Cl
ATOM      4  C   UNL     1       1.638   7.030  20.088  0.00  0.00    +0.000 A 
ATOM      5  C   UNL     1       1.457   5.876  20.847  0.00  0.00    +0.000 A 
ATOM      6  C   UNL     1       2.086   4.697  20.444  0.00  0.00    +0.000 A 
ATOM      7  C   UNL     1       2.878   4.667  19.290  0.00  0.00    +0.000 A 
ENDROOT
BRANCH   6   8
ATOM      8  N   UNL     1       1.872   3.512  21.250  0.00  0.00    +0.000 N 
ATOM      9  O   UNL     1       2.595   3.378  22.243  0.00  0.00    +0.000 OA
ATOM     10  O   UNL     1       0.958   2.759  20.901  0.00  0.00    +0.000 OA
ENDBRANCH   6   8
BRANCH   7  11
ATOM     11  N   UNL     1       3.496   3.427  18.890  0.00  0.00    +0.000 N 
ATOM     12  O   UNL     1       2.839   2.686  18.155  0.00  0.00    +0.000 OA
ATOM     13  O   UNL     1       4.653   3.239  19.279  0.00  0.00    +0.000 OA
ENDBRANCH   7  11
BRANCH   1  15
ATOM     14  N   UNL     1       5.150   6.382  17.385  0.00  0.00    +0.000 NA
ATOM     15  C   UNL     1       3.995   5.804  17.352  0.00  0.00    +0.000 C 
BRANCH  14  19
ATOM     16  N   UNL     1       7.633   5.290  15.046  0.00  0.00    +0.000 NA
ATOM     17  C   UNL     1       6.904   5.317  16.115  0.00  0.00    +0.000 C 
ATOM     18  N   UNL     1       7.021   4.441  17.164  0.00  0.00    +0.000 N 
ATOM     19  N   UNL     1       5.913   6.244  16.269  0.00  0.00    +0.000 N 
ATOM     20  H   UNL     1       8.309   4.534  15.178  0.00  0.00    +0.000 HD
ATOM     21  H   UNL     1       6.585   4.846  17.996  0.00  0.00    +0.000 HD
ATOM     22  H   UNL     1       5.841   6.876  15.475  0.00  0.00    +0.000 HD
BRANCH  18  23
ATOM     23  O   UNL     1       8.323   3.972  17.367  0.00  0.00    +0.000 OA
ATOM     24  H   UNL     1       8.782   4.249  16.553  0.00  0.00    +0.000 HD
ENDBRANCH  18  23
ENDBRANCH  14  19
ENDBRANCH   1  15
TORSDOF 5
ENDMDL
MODEL 2
REMARK VINA RESULT:      -7.2      1.670      1.912
REMARK  Name = 
REMARK  5 active torsions:
REMARK  status: ('A' for Active; 'I' for Inactive)
REMARK    1  A    between atoms: N_3  and  O_4
REMARK    2  A    between atoms: N_5  and  N_6
REMARK    3  A    between atoms: C_7  and  C_8
REMARK    4  A    between atoms: C_13  and  N_14
REMARK    5  A    between atoms: C_17  and  N_18
REMARK                            x       y       z     vdW  Elec       q    Type
REMARK                         _______ _______ _______ _____ _____    ______ ____
ROOT
ATOM      1  C   UNL     1       3.189   4.573  18.110  0.00  0.00    +0.000 A 
ATOM      2  C   UNL     1       3.167   5.931  18.489  0.00  0.00    +0.000 A 
ATOM      3 CL   UNL     1       3.688   7.235  17.479  0.00  0.00    +0.000 Cl
ATOM      4  C   UNL     1       2.762   6.303  19.782  0.00  0.00    +0.000 A 
ATOM      5  C   UNL     1       2.398   5.342  20.722  0.00  0.00    +0.000 A 
ATOM      6  C   UNL     1       2.424   3.996  20.355  0.00  0.00    +0.000 A 
ATOM      7  C   UNL     1       2.799   3.613  19.061  0.00  0.00    +0.000 A 
ENDROOT
BRANCH   6   8
ATOM      8  N   UNL     1       2.033   3.020  21.352  0.00  0.00    +0.000 N 
ATOM      9  O   UNL     1       0.831   2.742  21.417  0.00  0.00    +0.000 OA
ATOM     10  O   UNL     1       2.939   2.516  22.023  0.00  0.00    +0.000 OA
ENDBRANCH   6   8
BRANCH   7  11
ATOM     11  N   UNL     1       2.794   2.215  18.709  0.00  0.00    +0.000 N 
ATOM     12  O   UNL     1       1.758   1.767  18.210  0.00  0.00    +0.000 OA
ATOM     13  O   UNL     1       3.848   1.597  18.892  0.00  0.00    +0.000 OA
ENDBRANCH   7  11
BRANCH   1  15
ATOM     14  N   UNL     1       4.922   4.124  16.477  0.00  0.00    +0.000 NA
ATOM     15  C   UNL     1       3.662   4.147  16.767  0.00  0.00    +0.000 C 
BRANCH  14  19
ATOM     16  N   UNL     1       6.561   3.577  13.340  0.00  0.00    +0.000 NA
ATOM     17  C   UNL     1       6.364   4.002  14.546  0.00  0.00    +0.000 C 
ATOM     18  N   UNL     1       7.240   4.787  15.251  0.00  0.00    +0.000 N 
ATOM     19  N   UNL     1       5.235   3.666  15.236  0.00  0.00    +0.000 N 
ATOM     20  H   UNL     1       7.452   3.977  13.036  0.00  0.00    +0.000 HD
ATOM     21  H   UNL     1       6.744   5.247  16.018  0.00  0.00    +0.000 HD
ATOM     22  H   UNL     1       4.605   3.078  14.696  0.00  0.00    +0.000 HD
BRANCH  18  23
ATOM     23  O   UNL     1       7.994   5.653  14.453  0.00  0.00    +0.000 OA
ATOM     24  H   UNL     1       8.073   6.448  15.013  0.00  0.00    +0.000 HD
ENDBRANCH  18  23
ENDBRANCH  14  19
ENDBRANCH   1  15
TORSDOF 5
ENDMDL
MODEL 3
REMARK VINA RESULT:      -7.1      1.375      1.597
REMARK  Name = 
REMARK  5 active torsions:
REMARK  status: ('A' for Active; 'I' for Inactive)
REMARK    1  A    between atoms: N_3  and  O_4
REMARK    2  A    between atoms: N_5  and  N_6
REMARK    3  A    between atoms: C_7  and  C_8
REMARK    4  A    between atoms: C_13  and  N_14
REMARK    5  A    between atoms: C_17  and  N_18
REMARK                            x       y       z     vdW  Elec       q    Type
REMARK                         _______ _______ _______ _____ _____    ______ ____
ROOT
ATOM      1  C   UNL     1       3.733   5.578  18.640  0.00  0.00    +0.000 A 
ATOM      2  C   UNL     1       2.829   6.632  18.887  0.00  0.00    +0.000 A 
ATOM      3 CL   UNL     1       2.998   8.232  18.252  0.00  0.00    +0.000 Cl
ATOM      4  C   UNL     1       1.734   6.445  19.746  0.00  0.00    +0.000 A 
ATOM      5  C   UNL     1       1.531   5.226  20.391  0.00  0.00    +0.000 A 
ATOM      6  C   UNL     1       2.425   4.181  20.156  0.00  0.00    +0.000 A 
ATOM      7  C   UNL     1       3.505   4.346  19.280  0.00  0.00    +0.000 A 
ENDROOT
BRANCH   6   8
ATOM      8  N   UNL     1       2.183   2.925  20.835  0.00  0.00    +0.000 N 
ATOM      9  O   UNL     1       2.636   2.815  21.979  0.00  0.00    +0.000 OA
ATOM     10  O   UNL     1       1.508   2.087  20.231  0.00  0.00    +0.000 OA
ENDBRANCH   6   8
BRANCH   7  11
ATOM     11  N   UNL     1       4.398   3.239  19.044  0.00  0.00    +0.000 N 
ATOM     12  O   UNL     1       5.335   3.096  19.834  0.00  0.00    +0.000 OA
ATOM     13  O   UNL     1       4.117   2.498  18.097  0.00  0.00    +0.000 OA
ENDBRANCH   7  11
BRANCH   1  15
ATOM     14  N   UNL     1       4.839   5.714  16.489  0.00  0.00    +0.000 NA
ATOM     15  C   UNL     1       4.929   5.764  17.777  0.00  0.00    +0.000 C 
BRANCH  14  19
ATOM     16  N   UNL     1       7.579   5.452  14.198  0.00  0.00    +0.000 NA
ATOM     17  C   UNL     1       6.439   5.203  14.756  0.00  0.00    +0.000 C 
ATOM     18  N   UNL     1       5.574   4.214  14.361  0.00  0.00    +0.000 N 
ATOM     19  N   UNL     1       5.990   5.951  15.806  0.00  0.00    +0.000 N 
ATOM     20  H   UNL     1       7.699   4.751  13.463  0.00  0.00    +0.000 HD
ATOM     21  H   UNL     1       4.925   4.005  15.123  0.00  0.00    +0.000 HD
ATOM     22  H   UNL     1       6.644   6.682  16.075  0.00  0.00    +0.000 HD
BRANCH  18  23
ATOM     23  O   UNL     1       6.208   3.090  13.821  0.00  0.00    +0.000 OA
ATOM     24  H   UNL     1       7.147   3.351  13.822  0.00  0.00    +0.000 HD
ENDBRANCH  18  23
ENDBRANCH  14  19
ENDBRANCH   1  15
TORSDOF 5
ENDMDL
MODEL 4
REMARK VINA RESULT:      -6.8      1.227      1.611
REMARK  Name = 
REMARK  5 active torsions:
REMARK  status: ('A' for Active; 'I' for Inactive)
REMARK    1  A    between atoms: N_3  and  O_4
REMARK    2  A    between atoms: N_5  and  N_6
REMARK    3  A    between atoms: C_7  and  C_8
REMARK    4  A    between atoms: C_13  and  N_14
REMARK    5  A    between atoms: C_17  and  N_18
REMARK                            x       y       z     vdW  Elec       q    Type
REMARK                         _______ _______ _______ _____ _____    ______ ____
ROOT
ATOM      1  C   UNL     1       3.710   4.997  18.574  0.00  0.00    +0.000 A 
ATOM      2  C   UNL     1       3.127   6.270  18.744  0.00  0.00    +0.000 A 
ATOM      3 CL   UNL     1       3.572   7.676  17.840  0.00  0.00    +0.000 Cl
ATOM      4  C   UNL     1       2.159   6.483  19.739  0.00  0.00    +0.000 A 
ATOM      5  C   UNL     1       1.773   5.452  20.593  0.00  0.00    +0.000 A 
ATOM      6  C   UNL     1       2.351   4.192  20.435  0.00  0.00    +0.000 A 
ATOM      7  C   UNL     1       3.297   3.959  19.429  0.00  0.00    +0.000 A 
ENDROOT
BRANCH   6   8
ATOM      8  N   UNL     1       1.924   3.139  21.334  0.00  0.00    +0.000 N 
ATOM      9  O   UNL     1       0.929   2.489  20.996  0.00  0.00    +0.000 OA
ATOM     10  O   UNL     1       2.615   2.951  22.339  0.00  0.00    +0.000 OA
ENDBRANCH   6   8
BRANCH   7  11
ATOM     11  N   UNL     1       3.858   2.640  19.280  0.00  0.00    +0.000 N 
ATOM     12  O   UNL     1       4.844   2.369  19.971  0.00  0.00    +0.000 OA
ATOM     13  O   UNL     1       3.271   1.876  18.508  0.00  0.00    +0.000 OA
ENDBRANCH   7  11
BRANCH   1  15
ATOM     14  N   UNL     1       4.544   4.906  16.302  0.00  0.00    +0.000 NA
ATOM     15  C   UNL     1       4.774   4.756  17.564  0.00  0.00    +0.000 C 
BRANCH  14  19
ATOM     16  N   UNL     1       7.767   5.133  14.755  0.00  0.00    +0.000 NA
ATOM     17  C   UNL     1       6.822   5.321  15.618  0.00  0.00    +0.000 C 
ATOM     18  N   UNL     1       6.930   6.105  16.738  0.00  0.00    +0.000 N 
ATOM     19  N   UNL     1       5.609   4.709  15.479  0.00  0.00    +0.000 N 
ATOM     20  H   UNL     1       8.555   5.708  15.061  0.00  0.00    +0.000 HD
ATOM     21  H   UNL     1       5.995   6.354  17.071  0.00  0.00    +0.000 HD
ATOM     22  H   UNL     1       5.556   4.127  14.647  0.00  0.00    +0.000 HD
BRANCH  18  23
ATOM     23  O   UNL     1       7.794   7.194  16.586  0.00  0.00    +0.000 OA
ATOM     24  H   UNL     1       8.675   6.780  16.643  0.00  0.00    +0.000 HD
ENDBRANCH  18  23
ENDBRANCH  14  19
ENDBRANCH   1  15
TORSDOF 5
ENDMDL
MODEL 5
REMARK VINA RESULT:      -6.6      0.933      1.161
REMARK  Name = 
REMARK  5 active torsions:
REMARK  status: ('A' for Active; 'I' for Inactive)
REMARK    1  A    between atoms: N_3  and  O_4
REMARK    2  A    between atoms: N_5  and  N_6
REMARK    3  A    between atoms: C_7  and  C_8
REMARK    4  A    between atoms: C_13  and  N_14
REMARK    5  A    between atoms: C_17  and  N_18
REMARK                            x       y       z     vdW  Elec       q    Type
REMARK                         _______ _______ _______ _____ _____    ______ ____
ROOT
ATOM      1  C   UNL     1       3.313   5.816  18.589  0.00  0.00    +0.000 A 
ATOM      2  C   UNL     1       2.501   6.867  19.063  0.00  0.00    +0.000 A 
ATOM      3 CL   UNL     1       2.561   8.491  18.469  0.00  0.00    +0.000 Cl
ATOM      4  C   UNL     1       1.610   6.655  20.127  0.00  0.00    +0.000 A 
ATOM      5  C   UNL     1       1.526   5.412  20.752  0.00  0.00    +0.000 A 
ATOM      6  C   UNL     1       2.331   4.370  20.292  0.00  0.00    +0.000 A 
ATOM      7  C   UNL     1       3.204   4.560  19.215  0.00  0.00    +0.000 A 
ENDROOT
BRANCH   6   8
ATOM      8  N   UNL     1       2.216   3.088  20.958  0.00  0.00    +0.000 N 
ATOM      9  O   UNL     1       1.532   2.228  20.393  0.00  0.00    +0.000 OA
ATOM     10  O   UNL     1       2.846   2.949  22.011  0.00  0.00    +0.000 OA
ENDBRANCH   6   8
BRANCH   7  11
ATOM     11  N   UNL     1       4.006   3.456  18.751  0.00  0.00    +0.000 N 
ATOM     12  O   UNL     1       3.615   2.865  17.741  0.00  0.00    +0.000 OA
ATOM     13  O   UNL     1       5.045   3.229  19.379  0.00  0.00    +0.000 OA
ENDBRANCH   7  11
BRANCH   1  15
ATOM     14  N   UNL     1       5.563   6.145  17.754  0.00  0.00    +0.000 NA
ATOM     15  C   UNL     1       4.302   6.026  17.499  0.00  0.00    +0.000 C 
BRANCH  14  19
ATOM     16  N   UNL     1       7.388   5.507  14.739  0.00  0.00    +0.000 NA
ATOM     17  C   UNL     1       6.546   5.332  15.705  0.00  0.00    +0.000 C 
ATOM     18  N   UNL     1       5.744   4.229  15.853  0.00  0.00    +0.000 N 
ATOM     19  N   UNL     1       6.375   6.281  16.672  0.00  0.00    +0.000 N 
ATOM     20  H   UNL     1       7.351   4.660  14.167  0.00  0.00    +0.000 HD
ATOM     21  H   UNL     1       5.423   4.169  16.823  0.00  0.00    +0.000 HD
ATOM     22  H   UNL     1       6.974   7.091  16.536  0.00  0.00    +0.000 HD
BRANCH  18  23
ATOM     23  O   UNL     1       6.309   3.047  15.361  0.00  0.00    +0.000 OA
ATOM     24  H   UNL     1       5.533   2.465  15.259  0.00  0.00    +0.000 HD
ENDBRANCH  18  23
ENDBRANCH  14  19
ENDBRANCH   1  15
TORSDOF 5
ENDMDL
MODEL 6
REMARK VINA RESULT:      -6.6      2.108      2.271
REMARK  Name = 
REMARK  5 active torsions:
REMARK  status: ('A' for Active; 'I' for Inactive)
REMARK    1  A    between atoms: N_3  and  O_4
REMARK    2  A    between atoms: N_5  and  N_6
REMARK    3  A    between atoms: C_7  and  C_8
REMARK    4  A    between atoms: C_13  and  N_14
REMARK    5  A    between atoms: C_17  and  N_18
REMARK                            x       y       z     vdW  Elec       q    Type
REMARK                         _______ _______ _______ _____ _____    ______ ____
ROOT
ATOM      1  C   UNL     1       4.002   4.730  18.380  0.00  0.00    +0.000 A 
ATOM      2  C   UNL     1       3.443   6.025  18.413  0.00  0.00    +0.000 A 
ATOM      3 CL   UNL     1       3.982   7.347  17.436  0.00  0.00    +0.000 Cl
ATOM      4  C   UNL     1       2.418   6.335  19.322  0.00  0.00    +0.000 A 
ATOM      5  C   UNL     1       1.950   5.382  20.224  0.00  0.00    +0.000 A 
ATOM      6  C   UNL     1       2.504   4.101  20.201  0.00  0.00    +0.000 A 
ATOM      7  C   UNL     1       3.507   3.771  19.281  0.00  0.00    +0.000 A 
ENDROOT
BRANCH   6   8
ATOM      8  N   UNL     1       1.992   3.131  21.147  0.00  0.00    +0.000 N 
ATOM      9  O   UNL     1       2.528   3.102  22.259  0.00  0.00    +0.000 OA
ATOM     10  O   UNL     1       1.035   2.444  20.777  0.00  0.00    +0.000 OA
ENDBRANCH   6   8
BRANCH   7  11
ATOM     11  N   UNL     1       4.042   2.432  19.270  0.00  0.00    +0.000 N 
ATOM     12  O   UNL     1       3.552   1.640  18.462  0.00  0.00    +0.000 OA
ATOM     13  O   UNL     1       4.983   2.210  20.039  0.00  0.00    +0.000 OA
ENDBRANCH   7  11
BRANCH   1  15
ATOM     14  N   UNL     1       4.927   4.231  16.197  0.00  0.00    +0.000 NA
ATOM     15  C   UNL     1       5.123   4.390  17.464  0.00  0.00    +0.000 C 
BRANCH  14  19
ATOM     16  N   UNL     1       7.141   3.582  13.458  0.00  0.00    +0.000 NA
ATOM     17  C   UNL     1       6.058   3.897  14.091  0.00  0.00    +0.000 C 
ATOM     18  N   UNL     1       4.861   4.197  13.493  0.00  0.00    +0.000 N 
ATOM     19  N   UNL     1       6.036   3.975  15.454  0.00  0.00    +0.000 N 
ATOM     20  H   UNL     1       6.900   3.568  12.464  0.00  0.00    +0.000 HD
ATOM     21  H   UNL     1       4.104   4.092  14.173  0.00  0.00    +0.000 HD
ATOM     22  H   UNL     1       6.936   3.755  15.874  0.00  0.00    +0.000 HD
BRANCH  18  23
ATOM     23  O   UNL     1       4.647   3.524  12.285  0.00  0.00    +0.000 OA
ATOM     24  H   UNL     1       3.871   3.986  11.917  0.00  0.00    +0.000 HD
ENDBRANCH  18  23
ENDBRANCH  14  19
ENDBRANCH   1  15
TORSDOF 5
ENDMDL
MODEL 7
REMARK VINA RESULT:      -6.5      3.174      4.673
REMARK  Name = 
REMARK  5 active torsions:
REMARK  status: ('A' for Active; 'I' for Inactive)
REMARK    1  A    between atoms: N_3  and  O_4
REMARK    2  A    between atoms: N_5  and  N_6
REMARK    3  A    between atoms: C_7  and  C_8
REMARK    4  A    between atoms: C_13  and  N_14
REMARK    5  A    between atoms: C_17  and  N_18
REMARK                            x       y       z     vdW  Elec       q    Type
REMARK                         _______ _______ _______ _____ _____    ______ ____
ROOT
ATOM      1  C   UNL     1       2.894   5.356  19.527  0.00  0.00    +0.000 A 
ATOM      2  C   UNL     1       1.927   5.230  20.546  0.00  0.00    +0.000 A 
ATOM      3 CL   UNL     1       0.982   6.540  21.163  0.00  0.00    +0.000 Cl
ATOM      4  C   UNL     1       1.718   3.994  21.180  0.00  0.00    +0.000 A 
ATOM      5  C   UNL     1       2.475   2.876  20.836  0.00  0.00    +0.000 A 
ATOM      6  C   UNL     1       3.438   2.996  19.833  0.00  0.00    +0.000 A 
ATOM      7  C   UNL     1       3.637   4.215  19.174  0.00  0.00    +0.000 A 
ENDROOT
BRANCH   6   8
ATOM      8  N   UNL     1       4.204   1.815  19.492  0.00  0.00    +0.000 N 
ATOM      9  O   UNL     1       5.190   1.570  20.195  0.00  0.00    +0.000 OA
ATOM     10  O   UNL     1       3.781   1.128  18.557  0.00  0.00    +0.000 OA
ENDBRANCH   6   8
BRANCH   7  11
ATOM     11  N   UNL     1       4.626   4.299  18.127  0.00  0.00    +0.000 N 
ATOM     12  O   UNL     1       5.792   4.506  18.474  0.00  0.00    +0.000 OA
ATOM     13  O   UNL     1       4.225   4.104  16.975  0.00  0.00    +0.000 OA
ENDBRANCH   7  11
BRANCH   1  15
ATOM     14  N   UNL     1       2.249   7.302  18.236  0.00  0.00    +0.000 NA
ATOM     15  C   UNL     1       3.172   6.663  18.876  0.00  0.00    +0.000 C 
BRANCH  14  19
ATOM     16  N   UNL     1       2.317  10.784  17.400  0.00  0.00    +0.000 NA
ATOM     17  C   UNL     1       1.953   9.683  17.973  0.00  0.00    +0.000 C 
ATOM     18  N   UNL     1       0.922   9.572  18.871  0.00  0.00    +0.000 N 
ATOM     19  N   UNL     1       2.609   8.511  17.729  0.00  0.00    +0.000 N 
ATOM     20  H   UNL     1       1.666  11.505  17.721  0.00  0.00    +0.000 HD
ATOM     21  H   UNL     1       0.625   8.595  18.930  0.00  0.00    +0.000 HD
ATOM     22  H   UNL     1       3.373   8.620  17.066  0.00  0.00    +0.000 HD
BRANCH  18  23
ATOM     23  O   UNL     1      -0.120  10.478  18.652  0.00  0.00    +0.000 OA
ATOM     24  H   UNL     1      -0.901   9.991  18.977  0.00  0.00    +0.000 HD
ENDBRANCH  18  23
ENDBRANCH  14  19
ENDBRANCH   1  15
TORSDOF 5
ENDMDL
MODEL 8
REMARK VINA RESULT:      -6.5      2.062      2.381
REMARK  Name = 
REMARK  5 active torsions:
REMARK  status: ('A' for Active; 'I' for Inactive)
REMARK    1  A    between atoms: N_3  and  O_4
REMARK    2  A    between atoms: N_5  and  N_6
REMARK    3  A    between atoms: C_7  and  C_8
REMARK    4  A    between atoms: C_13  and  N_14
REMARK    5  A    between atoms: C_17  and  N_18
REMARK                            x       y       z     vdW  Elec       q    Type
REMARK                         _______ _______ _______ _____ _____    ______ ____
ROOT
ATOM      1  C   UNL     1       4.085   4.329  17.599  0.00  0.00    +0.000 A 
ATOM      2  C   UNL     1       4.398   5.642  18.010  0.00  0.00    +0.000 A 
ATOM      3 CL   UNL     1       5.389   6.737  17.109  0.00  0.00    +0.000 Cl
ATOM      4  C   UNL     1       3.954   6.124  19.252  0.00  0.00    +0.000 A 
ATOM      5  C   UNL     1       3.218   5.313  20.113  0.00  0.00    +0.000 A 
ATOM      6  C   UNL     1       2.910   4.011  19.715  0.00  0.00    +0.000 A 
ATOM      7  C   UNL     1       3.323   3.527  18.468  0.00  0.00    +0.000 A 
ENDROOT
BRANCH   6   8
ATOM      8  N   UNL     1       2.138   3.194  20.628  0.00  0.00    +0.000 N 
ATOM      9  O   UNL     1       2.765   2.613  21.520  0.00  0.00    +0.000 OA
ATOM     10  O   UNL     1       0.914   3.183  20.466  0.00  0.00    +0.000 OA
ENDBRANCH   6   8
BRANCH   7  11
ATOM     11  N   UNL     1       2.970   2.184  18.079  0.00  0.00    +0.000 N 
ATOM     12  O   UNL     1       1.953   2.049  17.393  0.00  0.00    +0.000 OA
ATOM     13  O   UNL     1       3.746   1.288  18.426  0.00  0.00    +0.000 OA
ENDBRANCH   7  11
BRANCH   1  15
ATOM     14  N   UNL     1       4.951   4.552  15.348  0.00  0.00    +0.000 NA
ATOM     15  C   UNL     1       4.586   3.776  16.314  0.00  0.00    +0.000 C 
BRANCH  14  19
ATOM     16  N   UNL     1       7.041   3.585  12.604  0.00  0.00    +0.000 NA
ATOM     17  C   UNL     1       6.671   4.168  13.698  0.00  0.00    +0.000 C 
ATOM     18  N   UNL     1       7.445   5.040  14.420  0.00  0.00    +0.000 N 
ATOM     19  N   UNL     1       5.441   3.931  14.242  0.00  0.00    +0.000 N 
ATOM     20  H   UNL     1       7.977   3.938  12.391  0.00  0.00    +0.000 HD
ATOM     21  H   UNL     1       6.847   5.600  15.032  0.00  0.00    +0.000 HD
ATOM     22  H   UNL     1       4.889   3.276  13.693  0.00  0.00    +0.000 HD
BRANCH  18  23
ATOM     23  O   UNL     1       8.333   5.789  13.641  0.00  0.00    +0.000 OA
ATOM     24  H   UNL     1       8.771   6.358  14.300  0.00  0.00    +0.000 HD
ENDBRANCH  18  23
ENDBRANCH  14  19
ENDBRANCH   1  15
TORSDOF 5
ENDMDL
MODEL 9
REMARK VINA RESULT:      -6.4      3.514      5.979
REMARK  Name = 
REMARK  5 active torsions:
REMARK  status: ('A' for Active; 'I' for Inactive)
REMARK    1  A    between atoms: N_3  and  O_4
REMARK    2  A    between atoms: N_5  and  N_6
REMARK    3  A    between atoms: C_7  and  C_8
REMARK    4  A    between atoms: C_13  and  N_14
REMARK    5  A    between atoms: C_17  and  N_18
REMARK                            x       y       z     vdW  Elec       q    Type
REMARK                         _______ _______ _______ _____ _____    ______ ____
ROOT
ATOM      1  C   UNL     1       3.883   6.457  18.107  0.00  0.00    +0.000 A 
ATOM      2  C   UNL     1       3.320   5.593  19.069  0.00  0.00    +0.000 A 
ATOM      3 CL   UNL     1       2.016   6.021  20.122  0.00  0.00    +0.000 Cl
ATOM      4  C   UNL     1       3.853   4.309  19.271  0.00  0.00    +0.000 A 
ATOM      5  C   UNL     1       4.959   3.872  18.546  0.00  0.00    +0.000 A 
ATOM      6  C   UNL     1       5.524   4.724  17.597  0.00  0.00    +0.000 A 
ATOM      7  C   UNL     1       4.986   5.996  17.366  0.00  0.00    +0.000 A 
ENDROOT
BRANCH   6   8
ATOM      8  N   UNL     1       6.669   4.238  16.855  0.00  0.00    +0.000 N 
ATOM      9  O   UNL     1       6.439   3.699  15.768  0.00  0.00    +0.000 OA
ATOM     10  O   UNL     1       7.782   4.443  17.350  0.00  0.00    +0.000 OA
ENDBRANCH   6   8
BRANCH   7  11
ATOM     11  N   UNL     1       5.582   6.843  16.363  0.00  0.00    +0.000 N 
ATOM     12  O   UNL     1       5.070   6.827  15.240  0.00  0.00    +0.000 OA
ATOM     13  O   UNL     1       6.524   7.552  16.731  0.00  0.00    +0.000 OA
ENDBRANCH   7  11
BRANCH   1  15
ATOM     14  N   UNL     1       2.109   8.072  17.767  0.00  0.00    +0.000 NA
ATOM     15  C   UNL     1       3.372   7.839  17.908  0.00  0.00    +0.000 C 
BRANCH  14  19
ATOM     16  N   UNL     1       0.705  11.312  18.366  0.00  0.00    +0.000 NA
ATOM     17  C   UNL     1       1.060  10.087  18.582  0.00  0.00    +0.000 C 
ATOM     18  N   UNL     1       0.805   9.391  19.736  0.00  0.00    +0.000 N 
ATOM     19  N   UNL     1       1.759   9.380  17.647  0.00  0.00    +0.000 N 
ATOM     20  H   UNL     1       0.181  11.611  19.192  0.00  0.00    +0.000 HD
ATOM     21  H   UNL     1       0.883   8.388  19.554  0.00  0.00    +0.000 HD
ATOM     22  H   UNL     1       1.942   9.920  16.804  0.00  0.00    +0.000 HD
BRANCH  18  23
ATOM     23  O   UNL     1      -0.381   9.768  20.375  0.00  0.00    +0.000 OA
ATOM     24  H   UNL     1      -0.767  10.411  19.751  0.00  0.00    +0.000 HD
ENDBRANCH  18  23
ENDBRANCH  14  19
ENDBRANCH   1  15
TORSDOF 5
ENDMDL
