MODEL 1
REMARK VINA RESULT:      -8.6      0.000      0.000
REMARK  Name = 
REMARK  7 active torsions:
REMARK  status: ('A' for Active; 'I' for Inactive)
REMARK    1  A    between atoms: C_1  and  C_2
REMARK    2  A    between atoms: C_5  and  N_6
REMARK    3  A    between atoms: C_7  and  C_9
REMARK    4  A    between atoms: C_9  and  C_10
REMARK    5  A    between atoms: N_12  and  C_13
REMARK    6  A    between atoms: C_13  and  C_14
REMARK    7  A    between atoms: C_22  and  C_23
REMARK                            x       y       z     vdW  Elec       q    Type
REMARK                         _______ _______ _______ _____ _____    ______ ____
ROOT
ATOM      1  C   UNL     1       7.907   6.142  18.730  0.00  0.00    +0.000 C 
ENDROOT
BRANCH   1   3
ATOM      2  N   UNL     1       5.632   5.281  19.202  0.00  0.00    +0.000 N 
ATOM      3  C   UNL     1       6.724   5.260  18.353  0.00  0.00    +0.000 C 
ATOM      4  O   UNL     1       6.821   4.566  17.338  0.00  0.00    +0.000 OA
ATOM      5  H   UNL     1       5.747   5.829  20.051  0.00  0.00    +0.000 HD
BRANCH   2  10
ATOM      6  C   UNL     1       0.651   2.448  18.772  0.00  0.00    +0.000 C 
ATOM      7  C   UNL     1       1.956   3.180  18.858  0.00  0.00    +0.000 A 
ATOM      8  C   UNL     1       3.078   2.566  19.405  0.00  0.00    +0.000 A 
ATOM      9  C   UNL     1       4.285   3.262  19.510  0.00  0.00    +0.000 A 
ATOM     10  C   UNL     1       4.406   4.586  19.073  0.00  0.00    +0.000 A 
ATOM     11  C   UNL     1       3.286   5.209  18.480  0.00  0.00    +0.000 A 
ATOM     12  C   UNL     1       3.251   6.625  17.962  0.00  0.00    +0.000 C 
ATOM     13  C   UNL     1       2.070   4.494  18.394  0.00  0.00    +0.000 A 
ENDBRANCH   2  10
ENDBRANCH   1   3
BRANCH   1  14
ATOM     14  C   UNL     1       7.956   7.534  18.160  0.00  0.00    +0.000 C 
ATOM     15  O   UNL     1       7.389   7.854  17.114  0.00  0.00    +0.000 OA
ATOM     16  N   UNL     1       8.670   8.459  18.880  0.00  0.00    +0.000 N 
ATOM     17  H   UNL     1       9.142   8.241  19.753  0.00  0.00    +0.000 HD
BRANCH  16  18
ATOM     18  C   UNL     1       8.742   9.804  18.363  0.00  0.00    +0.000 C 
BRANCH  18  19
ATOM     19  C   UNL     1       9.438  10.718  19.287  0.00  0.00    +0.000 A 
ATOM     20  N   UNL     1       9.320  10.845  20.601  0.00  0.00    +0.000 NA
ATOM     21  N   UNL     1      10.194  11.847  21.030  0.00  0.00    +0.000 NA
ATOM     22  C   UNL     1      10.804  12.287  19.962  0.00  0.00    +0.000 A 
ATOM     23  N   UNL     1      10.354  11.616  18.876  0.00  0.00    +0.000 N 
ATOM     24  C   UNL     1      10.983  12.021  17.644  0.00  0.00    +0.000 C 
ATOM     25  C   UNL     1      12.189  12.831  18.156  0.00  0.00    +0.000 C 
ATOM     26  C   UNL     1      11.825  13.279  19.599  0.00  0.00    +0.000 C 
ENDBRANCH  18  19
ENDBRANCH  16  18
ENDBRANCH   1  14
TORSDOF 5
ENDMDL
MODEL 2
REMARK VINA RESULT:      -8.3      4.568      6.708
REMARK  Name = 
REMARK  7 active torsions:
REMARK  status: ('A' for Active; 'I' for Inactive)
REMARK    1  A    between atoms: C_1  and  C_2
REMARK    2  A    between atoms: C_5  and  N_6
REMARK    3  A    between atoms: C_7  and  C_9
REMARK    4  A    between atoms: C_9  and  C_10
REMARK    5  A    between atoms: N_12  and  C_13
REMARK    6  A    between atoms: C_13  and  C_14
REMARK    7  A    between atoms: C_22  and  C_23
REMARK                            x       y       z     vdW  Elec       q    Type
REMARK                         _______ _______ _______ _____ _____    ______ ____
ROOT
ATOM      1  C   UNL     1       2.831   3.622  20.736  0.00  0.00    +0.000 C 
ENDROOT
BRANCH   1   3
ATOM      2  N   UNL     1       2.477   6.065  20.522  0.00  0.00    +0.000 N 
ATOM      3  C   UNL     1       1.903   4.807  20.500  0.00  0.00    +0.000 C 
ATOM      4  O   UNL     1       0.703   4.575  20.333  0.00  0.00    +0.000 OA
ATOM      5  H   UNL     1       3.463   6.093  20.772  0.00  0.00    +0.000 HD
BRANCH   2  10
ATOM      6  C   UNL     1      -0.005  11.186  19.726  0.00  0.00    +0.000 C 
ATOM      7  C   UNL     1       0.621   9.839  19.920  0.00  0.00    +0.000 A 
ATOM      8  C   UNL     1       0.423   9.127  21.099  0.00  0.00    +0.000 A 
ATOM      9  C   UNL     1       1.032   7.885  21.287  0.00  0.00    +0.000 A 
ATOM     10  C   UNL     1       1.855   7.317  20.307  0.00  0.00    +0.000 A 
ATOM     11  C   UNL     1       2.035   8.010  19.090  0.00  0.00    +0.000 A 
ATOM     12  C   UNL     1       2.887   7.539  17.939  0.00  0.00    +0.000 C 
ATOM     13  C   UNL     1       1.421   9.272  18.922  0.00  0.00    +0.000 A 
ENDBRANCH   2  10
ENDBRANCH   1   3
BRANCH   1  14
ATOM     14  C   UNL     1       3.863   3.317  19.683  0.00  0.00    +0.000 C 
ATOM     15  O   UNL     1       4.894   2.683  19.915  0.00  0.00    +0.000 OA
ATOM     16  N   UNL     1       3.596   3.779  18.419  0.00  0.00    +0.000 N 
ATOM     17  H   UNL     1       2.753   4.295  18.182  0.00  0.00    +0.000 HD
BRANCH  16  18
ATOM     18  C   UNL     1       4.564   3.508  17.384  0.00  0.00    +0.000 C 
BRANCH  18  19
ATOM     19  C   UNL     1       5.197   4.740  16.879  0.00  0.00    +0.000 A 
ATOM     20  N   UNL     1       4.899   5.471  15.815  0.00  0.00    +0.000 NA
ATOM     21  N   UNL     1       5.785   6.550  15.756  0.00  0.00    +0.000 NA
ATOM     22  C   UNL     1       6.584   6.428  16.782  0.00  0.00    +0.000 A 
ATOM     23  N   UNL     1       6.251   5.321  17.486  0.00  0.00    +0.000 N 
ATOM     24  C   UNL     1       7.070   5.109  18.652  0.00  0.00    +0.000 C 
ATOM     25  C   UNL     1       7.775   6.471  18.796  0.00  0.00    +0.000 C 
ATOM     26  C   UNL     1       7.721   7.134  17.390  0.00  0.00    +0.000 C 
ENDBRANCH  18  19
ENDBRANCH  16  18
ENDBRANCH   1  14
TORSDOF 5
ENDMDL
MODEL 3
REMARK VINA RESULT:      -7.9      0.861      1.541
REMARK  Name = 
REMARK  7 active torsions:
REMARK  status: ('A' for Active; 'I' for Inactive)
REMARK    1  A    between atoms: C_1  and  C_2
REMARK    2  A    between atoms: C_5  and  N_6
REMARK    3  A    between atoms: C_7  and  C_9
REMARK    4  A    between atoms: C_9  and  C_10
REMARK    5  A    between atoms: N_12  and  C_13
REMARK    6  A    between atoms: C_13  and  C_14
REMARK    7  A    between atoms: C_22  and  C_23
REMARK                            x       y       z     vdW  Elec       q    Type
REMARK                         _______ _______ _______ _____ _____    ______ ____
ROOT
ATOM      1  C   UNL     1       7.831   6.307  18.621  0.00  0.00    +0.000 C 
ENDROOT
BRANCH   1   3
ATOM      2  N   UNL     1       5.568   5.415  19.087  0.00  0.00    +0.000 N 
ATOM      3  C   UNL     1       6.716   5.313  18.323  0.00  0.00    +0.000 C 
ATOM      4  O   UNL     1       6.914   4.469  17.446  0.00  0.00    +0.000 OA
ATOM      5  H   UNL     1       5.600   6.100  19.838  0.00  0.00    +0.000 HD
BRANCH   2  10
ATOM      6  C   UNL     1       0.763   2.273  18.826  0.00  0.00    +0.000 C 
ATOM      7  C   UNL     1       2.021   3.086  18.867  0.00  0.00    +0.000 A 
ATOM      8  C   UNL     1       3.202   2.540  19.360  0.00  0.00    +0.000 A 
ATOM      9  C   UNL     1       4.365   3.311  19.425  0.00  0.00    +0.000 A 
ATOM     10  C   UNL     1       4.384   4.644  19.000  0.00  0.00    +0.000 A 
ATOM     11  C   UNL     1       3.203   5.200  18.461  0.00  0.00    +0.000 A 
ATOM     12  C   UNL     1       3.056   6.615  17.962  0.00  0.00    +0.000 C 
ATOM     13  C   UNL     1       2.032   4.409  18.416  0.00  0.00    +0.000 A 
ENDBRANCH   2  10
ENDBRANCH   1   3
BRANCH   1  14
ATOM     14  C   UNL     1       7.797   7.635  17.914  0.00  0.00    +0.000 C 
ATOM     15  O   UNL     1       7.241   7.806  16.828  0.00  0.00    +0.000 OA
ATOM     16  N   UNL     1       8.421   8.678  18.552  0.00  0.00    +0.000 N 
ATOM     17  H   UNL     1       8.880   8.584  19.454  0.00  0.00    +0.000 HD
BRANCH  16  18
ATOM     18  C   UNL     1       8.412   9.967  17.903  0.00  0.00    +0.000 C 
BRANCH  18  19
ATOM     19  C   UNL     1       9.580  10.784  18.275  0.00  0.00    +0.000 A 
ATOM     20  N   UNL     1      10.617  11.164  17.542  0.00  0.00    +0.000 NA
ATOM     21  N   UNL     1      11.466  11.935  18.339  0.00  0.00    +0.000 NA
ATOM     22  C   UNL     1      10.913  11.990  19.521  0.00  0.00    +0.000 A 
ATOM     23  N   UNL     1       9.757  11.287  19.513  0.00  0.00    +0.000 N 
ATOM     24  C   UNL     1       9.061  11.301  20.775  0.00  0.00    +0.000 C 
ATOM     25  C   UNL     1       9.783  12.440  21.521  0.00  0.00    +0.000 C 
ATOM     26  C   UNL     1      11.173  12.588  20.838  0.00  0.00    +0.000 C 
ENDBRANCH  18  19
ENDBRANCH  16  18
ENDBRANCH   1  14
TORSDOF 5
ENDMDL
MODEL 4
REMARK VINA RESULT:      -7.9      2.886      3.630
REMARK  Name = 
REMARK  7 active torsions:
REMARK  status: ('A' for Active; 'I' for Inactive)
REMARK    1  A    between atoms: C_1  and  C_2
REMARK    2  A    between atoms: C_5  and  N_6
REMARK    3  A    between atoms: C_7  and  C_9
REMARK    4  A    between atoms: C_9  and  C_10
REMARK    5  A    between atoms: N_12  and  C_13
REMARK    6  A    between atoms: C_13  and  C_14
REMARK    7  A    between atoms: C_22  and  C_23
REMARK                            x       y       z     vdW  Elec       q    Type
REMARK                         _______ _______ _______ _____ _____    ______ ____
ROOT
ATOM      1  C   UNL     1       7.977   6.534  18.553  0.00  0.00    +0.000 C 
ENDROOT
BRANCH   1   3
ATOM      2  N   UNL     1       7.137   5.927  16.303  0.00  0.00    +0.000 N 
ATOM      3  C   UNL     1       7.528   5.478  17.552  0.00  0.00    +0.000 C 
ATOM      4  O   UNL     1       7.515   4.301  17.920  0.00  0.00    +0.000 OA
ATOM      5  H   UNL     1       7.110   6.937  16.189  0.00  0.00    +0.000 HD
BRANCH   2  10
ATOM      6  C   UNL     1       5.470   2.775  11.796  0.00  0.00    +0.000 C 
ATOM      7  C   UNL     1       5.889   3.619  12.962  0.00  0.00    +0.000 A 
ATOM      8  C   UNL     1       7.080   4.337  12.926  0.00  0.00    +0.000 A 
ATOM      9  C   UNL     1       7.480   5.098  14.027  0.00  0.00    +0.000 A 
ATOM     10  C   UNL     1       6.707   5.164  15.192  0.00  0.00    +0.000 A 
ATOM     11  C   UNL     1       5.477   4.470  15.229  0.00  0.00    +0.000 A 
ATOM     12  C   UNL     1       4.532   4.438  16.402  0.00  0.00    +0.000 C 
ATOM     13  C   UNL     1       5.094   3.695  14.110  0.00  0.00    +0.000 A 
ENDBRANCH   2  10
ENDBRANCH   1   3
BRANCH   1  14
ATOM     14  C   UNL     1       7.969   7.973  18.110  0.00  0.00    +0.000 C 
ATOM     15  O   UNL     1       7.249   8.394  17.204  0.00  0.00    +0.000 OA
ATOM     16  N   UNL     1       8.813   8.820  18.784  0.00  0.00    +0.000 N 
ATOM     17  H   UNL     1       9.414   8.517  19.546  0.00  0.00    +0.000 HD
BRANCH  16  18
ATOM     18  C   UNL     1       8.834  10.206  18.385  0.00  0.00    +0.000 C 
BRANCH  18  19
ATOM     19  C   UNL     1       9.609  11.041  19.321  0.00  0.00    +0.000 A 
ATOM     20  N   UNL     1       9.578  11.081  20.645  0.00  0.00    +0.000 NA
ATOM     21  N   UNL     1      10.502  12.034  21.082  0.00  0.00    +0.000 NA
ATOM     22  C   UNL     1      11.052  12.534  20.008  0.00  0.00    +0.000 A 
ATOM     23  N   UNL     1      10.519  11.947  18.911  0.00  0.00    +0.000 N 
ATOM     24  C   UNL     1      11.077  12.423  17.671  0.00  0.00    +0.000 C 
ATOM     25  C   UNL     1      12.333  13.172  18.156  0.00  0.00    +0.000 C 
ATOM     26  C   UNL     1      12.072  13.529  19.646  0.00  0.00    +0.000 C 
ENDBRANCH  18  19
ENDBRANCH  16  18
ENDBRANCH   1  14
TORSDOF 5
ENDMDL
MODEL 5
REMARK VINA RESULT:      -7.9      5.892      7.479
REMARK  Name = 
REMARK  7 active torsions:
REMARK  status: ('A' for Active; 'I' for Inactive)
REMARK    1  A    between atoms: C_1  and  C_2
REMARK    2  A    between atoms: C_5  and  N_6
REMARK    3  A    between atoms: C_7  and  C_9
REMARK    4  A    between atoms: C_9  and  C_10
REMARK    5  A    between atoms: N_12  and  C_13
REMARK    6  A    between atoms: C_13  and  C_14
REMARK    7  A    between atoms: C_22  and  C_23
REMARK                            x       y       z     vdW  Elec       q    Type
REMARK                         _______ _______ _______ _____ _____    ______ ____
ROOT
ATOM      1  C   UNL     1       3.397   3.963  20.020  0.00  0.00    +0.000 C 
ENDROOT
BRANCH   1   3
ATOM      2  N   UNL     1       2.765   6.359  20.032  0.00  0.00    +0.000 N 
ATOM      3  C   UNL     1       2.327   5.047  20.038  0.00  0.00    +0.000 C 
ATOM      4  O   UNL     1       1.146   4.692  20.083  0.00  0.00    +0.000 OA
ATOM      5  H   UNL     1       3.773   6.485  20.095  0.00  0.00    +0.000 HD
BRANCH   2  10
ATOM      6  C   UNL     1      -0.329  11.201  20.043  0.00  0.00    +0.000 C 
ATOM      7  C   UNL     1       0.456   9.925  20.028  0.00  0.00    +0.000 A 
ATOM      8  C   UNL     1       0.478   9.092  21.142  0.00  0.00    +0.000 A 
ATOM      9  C   UNL     1       1.235   7.918  21.133  0.00  0.00    +0.000 A 
ATOM     10  C   UNL     1       1.991   7.543  20.016  0.00  0.00    +0.000 A 
ATOM     11  C   UNL     1       1.949   8.360  18.865  0.00  0.00    +0.000 A 
ATOM     12  C   UNL     1       2.703   8.099  17.585  0.00  0.00    +0.000 C 
ATOM     13  C   UNL     1       1.187   9.550  18.896  0.00  0.00    +0.000 A 
ENDBRANCH   2  10
ENDBRANCH   1   3
BRANCH   1  14
ATOM     14  C   UNL     1       3.753   3.348  18.694  0.00  0.00    +0.000 C 
ATOM     15  O   UNL     1       3.646   2.143  18.461  0.00  0.00    +0.000 OA
ATOM     16  N   UNL     1       4.205   4.210  17.727  0.00  0.00    +0.000 N 
ATOM     17  H   UNL     1       4.295   5.212  17.872  0.00  0.00    +0.000 HD
BRANCH  16  18
ATOM     18  C   UNL     1       4.559   3.656  16.443  0.00  0.00    +0.000 C 
BRANCH  18  19
ATOM     19  C   UNL     1       5.721   4.337  15.845  0.00  0.00    +0.000 A 
ATOM     20  N   UNL     1       6.643   5.099  16.416  0.00  0.00    +0.000 NA
ATOM     21  N   UNL     1       7.546   5.513  15.435  0.00  0.00    +0.000 NA
ATOM     22  C   UNL     1       7.136   4.990  14.311  0.00  0.00    +0.000 A 
ATOM     23  N   UNL     1       6.013   4.268  14.531  0.00  0.00    +0.000 N 
ATOM     24  C   UNL     1       5.491   3.634  13.347  0.00  0.00    +0.000 C 
ATOM     25  C   UNL     1       6.672   3.772  12.367  0.00  0.00    +0.000 C 
ATOM     26  C   UNL     1       7.534   4.952  12.896  0.00  0.00    +0.000 C 
ENDBRANCH  18  19
ENDBRANCH  16  18
ENDBRANCH   1  14
TORSDOF 5
ENDMDL
MODEL 6
REMARK VINA RESULT:      -7.9      1.581      9.746
REMARK  Name = 
REMARK  7 active torsions:
REMARK  status: ('A' for Active; 'I' for Inactive)
REMARK    1  A    between atoms: C_1  and  C_2
REMARK    2  A    between atoms: C_5  and  N_6
REMARK    3  A    between atoms: C_7  and  C_9
REMARK    4  A    between atoms: C_9  and  C_10
REMARK    5  A    between atoms: N_12  and  C_13
REMARK    6  A    between atoms: C_13  and  C_14
REMARK    7  A    between atoms: C_22  and  C_23
REMARK                            x       y       z     vdW  Elec       q    Type
REMARK                         _______ _______ _______ _____ _____    ______ ____
ROOT
ATOM      1  C   UNL     1       8.277   7.299  18.650  0.00  0.00    +0.000 C 
ENDROOT
BRANCH   1   3
ATOM      2  N   UNL     1       9.308   9.506  19.099  0.00  0.00    +0.000 N 
ATOM      3  C   UNL     1       8.369   8.794  18.375  0.00  0.00    +0.000 C 
ATOM      4  O   UNL     1       7.589   9.279  17.552  0.00  0.00    +0.000 OA
ATOM      5  H   UNL     1       9.805   8.977  19.812  0.00  0.00    +0.000 HD
BRANCH   2  10
ATOM      6  C   UNL     1      10.493  15.116  18.709  0.00  0.00    +0.000 C 
ATOM      7  C   UNL     1      10.210  13.648  18.822  0.00  0.00    +0.000 A 
ATOM      8  C   UNL     1      10.396  12.804  17.731  0.00  0.00    +0.000 A 
ATOM      9  C   UNL     1      10.102  11.443  17.832  0.00  0.00    +0.000 A 
ATOM     10  C   UNL     1       9.616  10.885  19.020  0.00  0.00    +0.000 A 
ATOM     11  C   UNL     1       9.458  11.722  20.147  0.00  0.00    +0.000 A 
ATOM     12  C   UNL     1       8.947  11.280  21.494  0.00  0.00    +0.000 C 
ATOM     13  C   UNL     1       9.749  13.100  20.023  0.00  0.00    +0.000 A 
ENDBRANCH   2  10
ENDBRANCH   1   3
BRANCH   1  14
ATOM     14  C   UNL     1       7.310   6.491  17.827  0.00  0.00    +0.000 C 
ATOM     15  O   UNL     1       7.450   6.300  16.618  0.00  0.00    +0.000 OA
ATOM     16  N   UNL     1       6.241   5.953  18.500  0.00  0.00    +0.000 N 
ATOM     17  H   UNL     1       6.094   6.075  19.498  0.00  0.00    +0.000 HD
BRANCH  16  18
ATOM     18  C   UNL     1       5.291   5.175  17.744  0.00  0.00    +0.000 C 
BRANCH  18  19
ATOM     19  C   UNL     1       4.728   4.065  18.534  0.00  0.00    +0.000 A 
ATOM     20  N   UNL     1       5.295   3.319  19.470  0.00  0.00    +0.000 NA
ATOM     21  N   UNL     1       4.354   2.396  19.932  0.00  0.00    +0.000 NA
ATOM     22  C   UNL     1       3.258   2.617  19.257  0.00  0.00    +0.000 A 
ATOM     23  N   UNL     1       3.460   3.633  18.386  0.00  0.00    +0.000 N 
ATOM     24  C   UNL     1       2.297   3.964  17.603  0.00  0.00    +0.000 C 
ATOM     25  C   UNL     1       1.181   3.224  18.365  0.00  0.00    +0.000 C 
ATOM     26  C   UNL     1       1.886   2.097  19.171  0.00  0.00    +0.000 C 
ENDBRANCH  18  19
ENDBRANCH  16  18
ENDBRANCH   1  14
TORSDOF 5
ENDMDL
MODEL 7
REMARK VINA RESULT:      -7.9      1.444      1.514
REMARK  Name = 
REMARK  7 active torsions:
REMARK  status: ('A' for Active; 'I' for Inactive)
REMARK    1  A    between atoms: C_1  and  C_2
REMARK    2  A    between atoms: C_5  and  N_6
REMARK    3  A    between atoms: C_7  and  C_9
REMARK    4  A    between atoms: C_9  and  C_10
REMARK    5  A    between atoms: N_12  and  C_13
REMARK    6  A    between atoms: C_13  and  C_14
REMARK    7  A    between atoms: C_22  and  C_23
REMARK                            x       y       z     vdW  Elec       q    Type
REMARK                         _______ _______ _______ _____ _____    ______ ____
ROOT
ATOM      1  C   UNL     1       8.114   6.509  18.513  0.00  0.00    +0.000 C 
ENDROOT
BRANCH   1   3
ATOM      2  N   UNL     1       5.845   5.655  18.007  0.00  0.00    +0.000 N 
ATOM      3  C   UNL     1       6.874   5.727  18.927  0.00  0.00    +0.000 C 
ATOM      4  O   UNL     1       6.854   5.234  20.058  0.00  0.00    +0.000 OA
ATOM      5  H   UNL     1       5.976   6.199  17.158  0.00  0.00    +0.000 HD
BRANCH   2  10
ATOM      6  C   UNL     1       0.851   2.868  18.572  0.00  0.00    +0.000 C 
ATOM      7  C   UNL     1       2.150   3.594  18.397  0.00  0.00    +0.000 A 
ATOM      8  C   UNL     1       3.357   2.901  18.410  0.00  0.00    +0.000 A 
ATOM      9  C   UNL     1       4.567   3.586  18.276  0.00  0.00    +0.000 A 
ATOM     10  C   UNL     1       4.609   4.976  18.125  0.00  0.00    +0.000 A 
ATOM     11  C   UNL     1       3.390   5.689  18.072  0.00  0.00    +0.000 A 
ATOM     12  C   UNL     1       3.262   7.183  17.915  0.00  0.00    +0.000 C 
ATOM     13  C   UNL     1       2.175   4.981  18.222  0.00  0.00    +0.000 A 
ENDBRANCH   2  10
ENDBRANCH   1   3
BRANCH   1  14
ATOM     14  C   UNL     1       7.917   7.884  17.934  0.00  0.00    +0.000 C 
ATOM     15  O   UNL     1       7.178   8.112  16.975  0.00  0.00    +0.000 OA
ATOM     16  N   UNL     1       8.608   8.903  18.541  0.00  0.00    +0.000 N 
ATOM     17  H   UNL     1       9.218   8.762  19.342  0.00  0.00    +0.000 HD
BRANCH  16  18
ATOM     18  C   UNL     1       8.447  10.235  18.012  0.00  0.00    +0.000 C 
BRANCH  18  19
ATOM     19  C   UNL     1       9.349  11.204  18.660  0.00  0.00    +0.000 A 
ATOM     20  N   UNL     1      10.430  10.993  19.397  0.00  0.00    +0.000 NA
ATOM     21  N   UNL     1      10.950  12.230  19.786  0.00  0.00    +0.000 NA
ATOM     22  C   UNL     1      10.165  13.138  19.273  0.00  0.00    +0.000 A 
ATOM     23  N   UNL     1       9.168  12.537  18.582  0.00  0.00    +0.000 N 
ATOM     24  C   UNL     1       8.254  13.462  17.962  0.00  0.00    +0.000 C 
ATOM     25  C   UNL     1       9.028  14.790  18.066  0.00  0.00    +0.000 C 
ATOM     26  C   UNL     1      10.050  14.603  19.223  0.00  0.00    +0.000 C 
ENDBRANCH  18  19
ENDBRANCH  16  18
ENDBRANCH   1  14
TORSDOF 5
ENDMDL
MODEL 8
REMARK VINA RESULT:      -7.8      6.162      9.988
REMARK  Name = 
REMARK  7 active torsions:
REMARK  status: ('A' for Active; 'I' for Inactive)
REMARK    1  A    between atoms: C_1  and  C_2
REMARK    2  A    between atoms: C_5  and  N_6
REMARK    3  A    between atoms: C_7  and  C_9
REMARK    4  A    between atoms: C_9  and  C_10
REMARK    5  A    between atoms: N_12  and  C_13
REMARK    6  A    between atoms: C_13  and  C_14
REMARK    7  A    between atoms: C_22  and  C_23
REMARK                            x       y       z     vdW  Elec       q    Type
REMARK                         _______ _______ _______ _____ _____    ______ ____
ROOT
ATOM      1  C   UNL     1       1.592   9.239  18.008  0.00  0.00    +0.000 C 
ENDROOT
BRANCH   1   3
ATOM      2  N   UNL     1       0.928  10.465  20.055  0.00  0.00    +0.000 N 
ATOM      3  C   UNL     1       0.552  10.020  18.801  0.00  0.00    +0.000 C 
ATOM      4  O   UNL     1      -0.559  10.181  18.293  0.00  0.00    +0.000 OA
ATOM      5  H   UNL     1       1.847  10.163  20.371  0.00  0.00    +0.000 HD
BRANCH   2  10
ATOM      6  C   UNL     1      -2.196  13.587  23.732  0.00  0.00    +0.000 C 
ATOM      7  C   UNL     1      -1.359  12.775  22.790  0.00  0.00    +0.000 A 
ATOM      8  C   UNL     1      -0.729  13.375  21.705  0.00  0.00    +0.000 A 
ATOM      9  C   UNL     1       0.026  12.609  20.813  0.00  0.00    +0.000 A 
ATOM     10  C   UNL     1       0.173  11.227  20.978  0.00  0.00    +0.000 A 
ATOM     11  C   UNL     1      -0.429  10.610  22.097  0.00  0.00    +0.000 A 
ATOM     12  C   UNL     1      -0.368   9.138  22.417  0.00  0.00    +0.000 C 
ATOM     13  C   UNL     1      -1.200  11.399  22.982  0.00  0.00    +0.000 A 
ENDBRANCH   2  10
ENDBRANCH   1   3
BRANCH   1  14
ATOM     14  C   UNL     1       2.253   8.065  18.678  0.00  0.00    +0.000 C 
ATOM     15  O   UNL     1       2.122   7.812  19.876  0.00  0.00    +0.000 OA
ATOM     16  N   UNL     1       3.020   7.260  17.874  0.00  0.00    +0.000 N 
ATOM     17  H   UNL     1       3.144   7.424  16.878  0.00  0.00    +0.000 HD
BRANCH  16  18
ATOM     18  C   UNL     1       3.671   6.125  18.481  0.00  0.00    +0.000 C 
BRANCH  18  19
ATOM     19  C   UNL     1       3.031   4.851  18.108  0.00  0.00    +0.000 A 
ATOM     20  N   UNL     1       3.200   4.103  17.027  0.00  0.00    +0.000 NA
ATOM     21  N   UNL     1       2.371   2.983  17.129  0.00  0.00    +0.000 NA
ATOM     22  C   UNL     1       1.732   3.098  18.262  0.00  0.00    +0.000 A 
ATOM     23  N   UNL     1       2.113   4.239  18.882  0.00  0.00    +0.000 N 
ATOM     24  C   UNL     1       1.472   4.448  20.156  0.00  0.00    +0.000 C 
ATOM     25  C   UNL     1       0.866   3.059  20.436  0.00  0.00    +0.000 C 
ATOM     26  C   UNL     1       0.739   2.359  19.054  0.00  0.00    +0.000 C 
ENDBRANCH  18  19
ENDBRANCH  16  18
ENDBRANCH   1  14
TORSDOF 5
ENDMDL
MODEL 9
REMARK VINA RESULT:      -7.8      1.394      2.066
REMARK  Name = 
REMARK  7 active torsions:
REMARK  status: ('A' for Active; 'I' for Inactive)
REMARK    1  A    between atoms: C_1  and  C_2
REMARK    2  A    between atoms: C_5  and  N_6
REMARK    3  A    between atoms: C_7  and  C_9
REMARK    4  A    between atoms: C_9  and  C_10
REMARK    5  A    between atoms: N_12  and  C_13
REMARK    6  A    between atoms: C_13  and  C_14
REMARK    7  A    between atoms: C_22  and  C_23
REMARK                            x       y       z     vdW  Elec       q    Type
REMARK                         _______ _______ _______ _____ _____    ______ ____
ROOT
ATOM      1  C   UNL     1       8.187   6.580  18.713  0.00  0.00    +0.000 C 
ENDROOT
BRANCH   1   3
ATOM      2  N   UNL     1       5.872   5.839  18.238  0.00  0.00    +0.000 N 
ATOM      3  C   UNL     1       6.973   5.732  19.068  0.00  0.00    +0.000 C 
ATOM      4  O   UNL     1       7.036   5.029  20.079  0.00  0.00    +0.000 OA
ATOM      5  H   UNL     1       5.943   6.538  17.503  0.00  0.00    +0.000 HD
BRANCH   2  10
ATOM      6  C   UNL     1       0.818   3.125  18.579  0.00  0.00    +0.000 C 
ATOM      7  C   UNL     1       2.148   3.811  18.503  0.00  0.00    +0.000 A 
ATOM      8  C   UNL     1       2.533   4.723  19.480  0.00  0.00    +0.000 A 
ATOM      9  C   UNL     1       3.761   5.382  19.388  0.00  0.00    +0.000 A 
ATOM     10  C   UNL     1       4.639   5.150  18.323  0.00  0.00    +0.000 A 
ATOM     11  C   UNL     1       4.279   4.198  17.344  0.00  0.00    +0.000 A 
ATOM     12  C   UNL     1       5.107   3.835  16.137  0.00  0.00    +0.000 C 
ATOM     13  C   UNL     1       3.026   3.550  17.446  0.00  0.00    +0.000 A 
ENDBRANCH   2  10
ENDBRANCH   1   3
BRANCH   1  14
ATOM     14  C   UNL     1       7.951   7.886  18.003  0.00  0.00    +0.000 C 
ATOM     15  O   UNL     1       7.217   7.994  17.019  0.00  0.00    +0.000 OA
ATOM     16  N   UNL     1       8.596   8.982  18.518  0.00  0.00    +0.000 N 
ATOM     17  H   UNL     1       9.200   8.940  19.335  0.00  0.00    +0.000 HD
BRANCH  16  18
ATOM     18  C   UNL     1       8.395  10.251  17.862  0.00  0.00    +0.000 C 
BRANCH  18  19
ATOM     19  C   UNL     1       9.425  11.238  18.234  0.00  0.00    +0.000 A 
ATOM     20  N   UNL     1      10.315  11.862  17.475  0.00  0.00    +0.000 NA
ATOM     21  N   UNL     1      11.074  12.709  18.286  0.00  0.00    +0.000 NA
ATOM     22  C   UNL     1      10.617  12.563  19.501  0.00  0.00    +0.000 A 
ATOM     23  N   UNL     1       9.608  11.661  19.500  0.00  0.00    +0.000 N 
ATOM     24  C   UNL     1       9.025  11.444  20.800  0.00  0.00    +0.000 C 
ATOM     25  C   UNL     1       9.590  12.631  21.603  0.00  0.00    +0.000 C 
ATOM     26  C   UNL     1      10.871  13.089  20.850  0.00  0.00    +0.000 C 
ENDBRANCH  18  19
ENDBRANCH  16  18
ENDBRANCH   1  14
TORSDOF 5
ENDMDL
