MODEL 1
REMARK VINA RESULT:      -8.7      0.000      0.000
REMARK  Name = 
REMARK  2 active torsions:
REMARK  status: ('A' for Active; 'I' for Inactive)
REMARK    1  A    between atoms: C_10  and  N_11
REMARK    2  A    between atoms: C_12  and  C_14
REMARK                            x       y       z     vdW  Elec       q    Type
REMARK                         _______ _______ _______ _____ _____    ______ ____
ROOT
ATOM      1  N   UNL     1       6.345   3.634  14.574  0.00  0.00    +0.000 N 
ATOM      2  C   UNL     1       5.712   4.477  15.486  0.00  0.00    +0.000 A 
ATOM      3  C   UNL     1       4.995   3.944  16.555  0.00  0.00    +0.000 A 
ATOM      4  C   UNL     1       4.332   4.850  17.395  0.00  0.00    +0.000 A 
ATOM      5  C   UNL     1       4.436   6.198  17.090  0.00  0.00    +0.000 A 
ATOM      6  C   UNL     1       5.169   6.675  16.017  0.00  0.00    +0.000 A 
ATOM      7  N   UNL     1       5.805   5.791  15.219  0.00  0.00    +0.000 NA
ATOM      8  N   UNL     1       3.696   6.872  18.016  0.00  0.00    +0.000 N 
ATOM      9  C   UNL     1       3.101   6.034  18.926  0.00  0.00    +0.000 A 
ATOM     10  C   UNL     1       2.249   6.317  20.013  0.00  0.00    +0.000 A 
ATOM     11  C   UNL     1       1.814   5.206  20.756  0.00  0.00    +0.000 A 
ATOM     12  C   UNL     1       2.210   3.908  20.423  0.00  0.00    +0.000 A 
ATOM     13 CL   UNL     1       1.652   2.583  21.377  0.00  0.00    +0.000 Cl
ATOM     14  C   UNL     1       3.046   3.655  19.334  0.00  0.00    +0.000 A 
ATOM     15  C   UNL     1       3.500   4.742  18.563  0.00  0.00    +0.000 A 
ATOM     16  H   UNL     1       6.960   2.976  15.035  0.00  0.00    +0.000 HD
ATOM     17  H   UNL     1       6.845   4.243  13.930  0.00  0.00    +0.000 HD
ATOM     18  H   UNL     1       3.574   7.878  18.033  0.00  0.00    +0.000 HD
ENDROOT
BRANCH  10  19
ATOM     19  N   UNL     1       1.794   7.602  20.412  0.00  0.00    +0.000 N 
ATOM     20  C   UNL     1       1.425   8.654  19.590  0.00  0.00    +0.000 C 
ATOM     21  O   UNL     1       1.432   8.656  18.362  0.00  0.00    +0.000 OA
ATOM     22  H   UNL     1       1.685   7.733  21.409  0.00  0.00    +0.000 HD
BRANCH  20  23
ATOM     23  C   UNL     1       0.957   9.908  20.236  0.00  0.00    +0.000 A 
ATOM     24  C   UNL     1       1.058  11.166  19.636  0.00  0.00    +0.000 A 
ATOM     25  C   UNL     1       0.517  12.282  20.280  0.00  0.00    +0.000 A 
ATOM     26  C   UNL     1      -0.130  12.145  21.511  0.00  0.00    +0.000 A 
ATOM     27  C   UNL     1      -0.237  10.897  22.109  0.00  0.00    +0.000 A 
ATOM     28  C   UNL     1       0.304   9.783  21.475  0.00  0.00    +0.000 A 
ENDBRANCH  20  23
ENDBRANCH  10  19
TORSDOF 2
ENDMDL
MODEL 2
REMARK VINA RESULT:      -8.7      2.407      7.619
REMARK  Name = 
REMARK  2 active torsions:
REMARK  status: ('A' for Active; 'I' for Inactive)
REMARK    1  A    between atoms: C_10  and  N_11
REMARK    2  A    between atoms: C_12  and  C_14
REMARK                            x       y       z     vdW  Elec       q    Type
REMARK                         _______ _______ _______ _____ _____    ______ ____
ROOT
ATOM      1  N   UNL     1       0.441   9.626  21.541  0.00  0.00    +0.000 N 
ATOM      2  C   UNL     1       1.067   8.938  20.503  0.00  0.00    +0.000 A 
ATOM      3  C   UNL     1       1.564   7.654  20.712  0.00  0.00    +0.000 A 
ATOM      4  C   UNL     1       2.238   7.047  19.642  0.00  0.00    +0.000 A 
ATOM      5  C   UNL     1       2.360   7.775  18.469  0.00  0.00    +0.000 A 
ATOM      6  C   UNL     1       1.840   9.048  18.313  0.00  0.00    +0.000 A 
ATOM      7  N   UNL     1       1.191   9.618  19.351  0.00  0.00    +0.000 NA
ATOM      8  N   UNL     1       3.066   7.003  17.595  0.00  0.00    +0.000 N 
ATOM      9  C   UNL     1       3.421   5.790  18.132  0.00  0.00    +0.000 A 
ATOM     10  C   UNL     1       4.162   4.725  17.582  0.00  0.00    +0.000 A 
ATOM     11  C   UNL     1       4.343   3.609  18.416  0.00  0.00    +0.000 A 
ATOM     12  C   UNL     1       3.815   3.573  19.709  0.00  0.00    +0.000 A 
ATOM     13 CL   UNL     1       4.061   2.172  20.685  0.00  0.00    +0.000 Cl
ATOM     14  C   UNL     1       3.094   4.648  20.233  0.00  0.00    +0.000 A 
ATOM     15  C   UNL     1       2.895   5.785  19.430  0.00  0.00    +0.000 A 
ATOM     16  H   UNL     1      -0.312   9.088  21.949  0.00  0.00    +0.000 HD
ATOM     17  H   UNL     1       0.114  10.502  21.139  0.00  0.00    +0.000 HD
ATOM     18  H   UNL     1       3.324   7.285  16.656  0.00  0.00    +0.000 HD
ENDROOT
BRANCH  10  19
ATOM     19  N   UNL     1       4.739   4.684  16.284  0.00  0.00    +0.000 N 
ATOM     20  C   UNL     1       6.085   4.616  15.965  0.00  0.00    +0.000 C 
ATOM     21  O   UNL     1       7.021   4.581  16.761  0.00  0.00    +0.000 OA
ATOM     22  H   UNL     1       4.080   4.653  15.518  0.00  0.00    +0.000 HD
BRANCH  20  23
ATOM     23  C   UNL     1       6.456   4.561  14.528  0.00  0.00    +0.000 A 
ATOM     24  C   UNL     1       7.510   5.297  13.977  0.00  0.00    +0.000 A 
ATOM     25  C   UNL     1       7.842   5.124  12.631  0.00  0.00    +0.000 A 
ATOM     26  C   UNL     1       7.135   4.214  11.839  0.00  0.00    +0.000 A 
ATOM     27  C   UNL     1       6.091   3.477  12.382  0.00  0.00    +0.000 A 
ATOM     28  C   UNL     1       5.753   3.651  13.720  0.00  0.00    +0.000 A 
ENDBRANCH  20  23
ENDBRANCH  10  19
TORSDOF 2
ENDMDL
MODEL 3
REMARK VINA RESULT:      -8.7      2.215      7.465
REMARK  Name = 
REMARK  2 active torsions:
REMARK  status: ('A' for Active; 'I' for Inactive)
REMARK    1  A    between atoms: C_10  and  N_11
REMARK    2  A    between atoms: C_12  and  C_14
REMARK                            x       y       z     vdW  Elec       q    Type
REMARK                         _______ _______ _______ _____ _____    ______ ____
ROOT
ATOM      1  N   UNL     1       0.520  10.327  20.922  0.00  0.00    +0.000 N 
ATOM      2  C   UNL     1       1.128   9.473  20.002  0.00  0.00    +0.000 A 
ATOM      3  C   UNL     1       1.480   8.178  20.373  0.00  0.00    +0.000 A 
ATOM      4  C   UNL     1       2.145   7.398  19.415  0.00  0.00    +0.000 A 
ATOM      5  C   UNL     1       2.402   7.979  18.183  0.00  0.00    +0.000 A 
ATOM      6  C   UNL     1       2.023   9.272  17.866  0.00  0.00    +0.000 A 
ATOM      7  N   UNL     1       1.381  10.010  18.796  0.00  0.00    +0.000 NA
ATOM      8  N   UNL     1       3.072   7.054  17.440  0.00  0.00    +0.000 N 
ATOM      9  C   UNL     1       3.272   5.878  18.120  0.00  0.00    +0.000 A 
ATOM     10  C   UNL     1       3.930   4.694  17.730  0.00  0.00    +0.000 A 
ATOM     11  C   UNL     1       3.952   3.662  18.684  0.00  0.00    +0.000 A 
ATOM     12  C   UNL     1       3.356   3.817  19.938  0.00  0.00    +0.000 A 
ATOM     13 CL   UNL     1       3.406   2.513  21.065  0.00  0.00    +0.000 Cl
ATOM     14  C   UNL     1       2.721   5.006  20.302  0.00  0.00    +0.000 A 
ATOM     15  C   UNL     1       2.681   6.064  19.375  0.00  0.00    +0.000 A 
ATOM     16  H   UNL     1      -0.304   9.910  21.334  0.00  0.00    +0.000 HD
ATOM     17  H   UNL     1       0.306  11.181  20.413  0.00  0.00    +0.000 HD
ATOM     18  H   UNL     1       3.405   7.206  16.496  0.00  0.00    +0.000 HD
ENDROOT
BRANCH  10  19
ATOM     19  N   UNL     1       4.567   4.458  16.482  0.00  0.00    +0.000 N 
ATOM     20  C   UNL     1       5.570   5.212  15.896  0.00  0.00    +0.000 C 
ATOM     21  O   UNL     1       6.084   6.227  16.360  0.00  0.00    +0.000 OA
ATOM     22  H   UNL     1       4.282   3.615  16.002  0.00  0.00    +0.000 HD
BRANCH  20  23
ATOM     23  C   UNL     1       6.104   4.759  14.586  0.00  0.00    +0.000 A 
ATOM     24  C   UNL     1       5.457   3.822  13.775  0.00  0.00    +0.000 A 
ATOM     25  C   UNL     1       5.988   3.513  12.520  0.00  0.00    +0.000 A 
ATOM     26  C   UNL     1       7.154   4.140  12.071  0.00  0.00    +0.000 A 
ATOM     27  C   UNL     1       7.798   5.074  12.870  0.00  0.00    +0.000 A 
ATOM     28  C   UNL     1       7.277   5.381  14.123  0.00  0.00    +0.000 A 
ENDBRANCH  20  23
ENDBRANCH  10  19
TORSDOF 2
ENDMDL
MODEL 4
REMARK VINA RESULT:      -8.6      4.121      6.439
REMARK  Name = 
REMARK  2 active torsions:
REMARK  status: ('A' for Active; 'I' for Inactive)
REMARK    1  A    between atoms: C_10  and  N_11
REMARK    2  A    between atoms: C_12  and  C_14
REMARK                            x       y       z     vdW  Elec       q    Type
REMARK                         _______ _______ _______ _____ _____    ______ ____
ROOT
ATOM      1  N   UNL     1       0.487   2.627  19.676  0.00  0.00    +0.000 N 
ATOM      2  C   UNL     1       1.404   3.632  19.369  0.00  0.00    +0.000 A 
ATOM      3  C   UNL     1       2.264   3.490  18.283  0.00  0.00    +0.000 A 
ATOM      4  C   UNL     1       3.201   4.512  18.072  0.00  0.00    +0.000 A 
ATOM      5  C   UNL     1       3.201   5.574  18.963  0.00  0.00    +0.000 A 
ATOM      6  C   UNL     1       2.317   5.668  20.024  0.00  0.00    +0.000 A 
ATOM      7  N   UNL     1       1.417   4.678  20.212  0.00  0.00    +0.000 NA
ATOM      8  N   UNL     1       4.202   6.414  18.579  0.00  0.00    +0.000 N 
ATOM      9  C   UNL     1       4.872   5.962  17.469  0.00  0.00    +0.000 A 
ATOM     10  C   UNL     1       5.969   6.510  16.774  0.00  0.00    +0.000 A 
ATOM     11  C   UNL     1       6.414   5.780  15.659  0.00  0.00    +0.000 A 
ATOM     12  C   UNL     1       5.799   4.585  15.277  0.00  0.00    +0.000 A 
ATOM     13 CL   UNL     1       6.382   3.736  13.895  0.00  0.00    +0.000 Cl
ATOM     14  C   UNL     1       4.721   4.059  15.992  0.00  0.00    +0.000 A 
ATOM     15  C   UNL     1       4.248   4.760  17.117  0.00  0.00    +0.000 A 
ATOM     16  H   UNL     1      -0.089   2.388  18.880  0.00  0.00    +0.000 HD
ATOM     17  H   UNL     1      -0.062   2.978  20.457  0.00  0.00    +0.000 HD
ATOM     18  H   UNL     1       4.448   7.273  19.058  0.00  0.00    +0.000 HD
ENDROOT
BRANCH  10  19
ATOM     19  N   UNL     1       6.656   7.711  17.098  0.00  0.00    +0.000 N 
ATOM     20  C   UNL     1       7.704   7.863  17.990  0.00  0.00    +0.000 C 
ATOM     21  O   UNL     1       8.223   6.975  18.663  0.00  0.00    +0.000 OA
ATOM     22  H   UNL     1       6.370   8.528  16.576  0.00  0.00    +0.000 HD
BRANCH  20  23
ATOM     23  C   UNL     1       8.285   9.221  18.154  0.00  0.00    +0.000 A 
ATOM     24  C   UNL     1       7.891  10.322  17.388  0.00  0.00    +0.000 A 
ATOM     25  C   UNL     1       8.431  11.581  17.664  0.00  0.00    +0.000 A 
ATOM     26  C   UNL     1       9.352  11.745  18.702  0.00  0.00    +0.000 A 
ATOM     27  C   UNL     1       9.743  10.655  19.468  0.00  0.00    +0.000 A 
ATOM     28  C   UNL     1       9.213   9.398  19.194  0.00  0.00    +0.000 A 
ENDBRANCH  20  23
ENDBRANCH  10  19
TORSDOF 2
ENDMDL
MODEL 5
REMARK VINA RESULT:      -8.5      0.282      1.022
REMARK  Name = 
REMARK  2 active torsions:
REMARK  status: ('A' for Active; 'I' for Inactive)
REMARK    1  A    between atoms: C_10  and  N_11
REMARK    2  A    between atoms: C_12  and  C_14
REMARK                            x       y       z     vdW  Elec       q    Type
REMARK                         _______ _______ _______ _____ _____    ______ ____
ROOT
ATOM      1  N   UNL     1       6.381   3.624  14.578  0.00  0.00    +0.000 N 
ATOM      2  C   UNL     1       5.735   4.492  15.457  0.00  0.00    +0.000 A 
ATOM      3  C   UNL     1       5.020   3.990  16.541  0.00  0.00    +0.000 A 
ATOM      4  C   UNL     1       4.342   4.917  17.346  0.00  0.00    +0.000 A 
ATOM      5  C   UNL     1       4.434   6.255  16.994  0.00  0.00    +0.000 A 
ATOM      6  C   UNL     1       5.166   6.701  15.908  0.00  0.00    +0.000 A 
ATOM      7  N   UNL     1       5.816   5.796  15.144  0.00  0.00    +0.000 NA
ATOM      8  N   UNL     1       3.682   6.953  17.892  0.00  0.00    +0.000 N 
ATOM      9  C   UNL     1       3.093   6.141  18.829  0.00  0.00    +0.000 A 
ATOM     10  C   UNL     1       2.233   6.453  19.901  0.00  0.00    +0.000 A 
ATOM     11  C   UNL     1       1.806   5.365  20.681  0.00  0.00    +0.000 A 
ATOM     12  C   UNL     1       2.217   4.060  20.397  0.00  0.00    +0.000 A 
ATOM     13 CL   UNL     1       1.669   2.764  21.394  0.00  0.00    +0.000 Cl
ATOM     14  C   UNL     1       3.061   3.778  19.320  0.00  0.00    +0.000 A 
ATOM     15  C   UNL     1       3.506   4.842  18.514  0.00  0.00    +0.000 A 
ATOM     16  H   UNL     1       7.001   2.990  15.065  0.00  0.00    +0.000 HD
ATOM     17  H   UNL     1       6.878   4.215  13.915  0.00  0.00    +0.000 HD
ATOM     18  H   UNL     1       3.550   7.958  17.874  0.00  0.00    +0.000 HD
ENDROOT
BRANCH  10  19
ATOM     19  N   UNL     1       1.762   7.747  20.253  0.00  0.00    +0.000 N 
ATOM     20  C   UNL     1       1.379   8.763  19.393  0.00  0.00    +0.000 C 
ATOM     21  O   UNL     1       1.383   8.719  18.166  0.00  0.00    +0.000 OA
ATOM     22  H   UNL     1       1.653   7.914  21.244  0.00  0.00    +0.000 HD
BRANCH  20  23
ATOM     23  C   UNL     1       0.896  10.034  19.993  0.00  0.00    +0.000 A 
ATOM     24  C   UNL     1       0.282  10.107  21.247  0.00  0.00    +0.000 A 
ATOM     25  C   UNL     1      -0.068  11.355  21.770  0.00  0.00    +0.000 A 
ATOM     26  C   UNL     1       0.199  12.524  21.053  0.00  0.00    +0.000 A 
ATOM     27  C   UNL     1       0.812  12.457  19.809  0.00  0.00    +0.000 A 
ATOM     28  C   UNL     1       1.158  11.217  19.281  0.00  0.00    +0.000 A 
ENDBRANCH  20  23
ENDBRANCH  10  19
TORSDOF 2
ENDMDL
MODEL 6
REMARK VINA RESULT:      -8.3      4.590      6.535
REMARK  Name = 
REMARK  2 active torsions:
REMARK  status: ('A' for Active; 'I' for Inactive)
REMARK    1  A    between atoms: C_10  and  N_11
REMARK    2  A    between atoms: C_12  and  C_14
REMARK                            x       y       z     vdW  Elec       q    Type
REMARK                         _______ _______ _______ _____ _____    ______ ____
ROOT
ATOM      1  N   UNL     1       1.123   1.751  18.748  0.00  0.00    +0.000 N 
ATOM      2  C   UNL     1       1.958   2.855  18.582  0.00  0.00    +0.000 A 
ATOM      3  C   UNL     1       2.828   2.920  17.497  0.00  0.00    +0.000 A 
ATOM      4  C   UNL     1       3.683   4.030  17.428  0.00  0.00    +0.000 A 
ATOM      5  C   UNL     1       3.599   4.966  18.447  0.00  0.00    +0.000 A 
ATOM      6  C   UNL     1       2.709   4.854  19.501  0.00  0.00    +0.000 A 
ATOM      7  N   UNL     1       1.889   3.782  19.552  0.00  0.00    +0.000 NA
ATOM      8  N   UNL     1       4.532   5.924  18.184  0.00  0.00    +0.000 N 
ATOM      9  C   UNL     1       5.236   5.670  17.033  0.00  0.00    +0.000 A 
ATOM     10  C   UNL     1       6.287   6.386  16.425  0.00  0.00    +0.000 A 
ATOM     11  C   UNL     1       6.790   5.841  15.232  0.00  0.00    +0.000 A 
ATOM     12  C   UNL     1       6.270   4.661  14.695  0.00  0.00    +0.000 A 
ATOM     13 CL   UNL     1       6.920   4.043  13.221  0.00  0.00    +0.000 Cl
ATOM     14  C   UNL     1       5.236   3.966  15.324  0.00  0.00    +0.000 A 
ATOM     15  C   UNL     1       4.708   4.478  16.524  0.00  0.00    +0.000 A 
ATOM     16  H   UNL     1       0.568   1.572  17.922  0.00  0.00    +0.000 HD
ATOM     17  H   UNL     1       0.548   1.955  19.562  0.00  0.00    +0.000 HD
ATOM     18  H   UNL     1       4.709   6.731  18.771  0.00  0.00    +0.000 HD
ENDROOT
BRANCH  10  19
ATOM     19  N   UNL     1       6.878   7.585  16.908  0.00  0.00    +0.000 N 
ATOM     20  C   UNL     1       7.772   7.717  17.958  0.00  0.00    +0.000 C 
ATOM     21  O   UNL     1       8.210   6.809  18.660  0.00  0.00    +0.000 OA
ATOM     22  H   UNL     1       6.649   8.421  16.387  0.00  0.00    +0.000 HD
BRANCH  20  23
ATOM     23  C   UNL     1       8.277   9.078  18.272  0.00  0.00    +0.000 A 
ATOM     24  C   UNL     1       9.190   9.341  19.298  0.00  0.00    +0.000 A 
ATOM     25  C   UNL     1       9.675  10.640  19.472  0.00  0.00    +0.000 A 
ATOM     26  C   UNL     1       9.262  11.670  18.623  0.00  0.00    +0.000 A 
ATOM     27  C   UNL     1       8.360  11.413  17.599  0.00  0.00    +0.000 A 
ATOM     28  C   UNL     1       7.869  10.123  17.425  0.00  0.00    +0.000 A 
ENDBRANCH  20  23
ENDBRANCH  10  19
TORSDOF 2
ENDMDL
MODEL 7
REMARK VINA RESULT:      -8.3      1.017      1.114
REMARK  Name = 
REMARK  2 active torsions:
REMARK  status: ('A' for Active; 'I' for Inactive)
REMARK    1  A    between atoms: C_10  and  N_11
REMARK    2  A    between atoms: C_12  and  C_14
REMARK                            x       y       z     vdW  Elec       q    Type
REMARK                         _______ _______ _______ _____ _____    ______ ____
ROOT
ATOM      1  N   UNL     1       7.554   4.617  15.025  0.00  0.00    +0.000 N 
ATOM      2  C   UNL     1       6.710   5.183  15.979  0.00  0.00    +0.000 A 
ATOM      3  C   UNL     1       5.752   4.402  16.620  0.00  0.00    +0.000 A 
ATOM      4  C   UNL     1       4.896   5.053  17.521  0.00  0.00    +0.000 A 
ATOM      5  C   UNL     1       5.068   6.417  17.694  0.00  0.00    +0.000 A 
ATOM      6  C   UNL     1       6.043   7.144  17.034  0.00  0.00    +0.000 A 
ATOM      7  N   UNL     1       6.862   6.504  16.173  0.00  0.00    +0.000 NA
ATOM      8  N   UNL     1       4.117   6.827  18.581  0.00  0.00    +0.000 N 
ATOM      9  C   UNL     1       3.318   5.797  19.010  0.00  0.00    +0.000 A 
ATOM     10  C   UNL     1       2.221   5.794  19.895  0.00  0.00    +0.000 A 
ATOM     11  C   UNL     1       1.619   4.545  20.121  0.00  0.00    +0.000 A 
ATOM     12  C   UNL     1       2.089   3.386  19.498  0.00  0.00    +0.000 A 
ATOM     13 CL   UNL     1       1.317   1.879  19.820  0.00  0.00    +0.000 Cl
ATOM     14  C   UNL     1       3.172   3.420  18.617  0.00  0.00    +0.000 A 
ATOM     15  C   UNL     1       3.799   4.653  18.362  0.00  0.00    +0.000 A 
ATOM     16  H   UNL     1       8.037   3.804  15.385  0.00  0.00    +0.000 HD
ATOM     17  H   UNL     1       8.196   5.354  14.745  0.00  0.00    +0.000 HD
ATOM     18  H   UNL     1       3.991   7.785  18.888  0.00  0.00    +0.000 HD
ENDROOT
BRANCH  10  19
ATOM     19  N   UNL     1       1.675   6.924  20.561  0.00  0.00    +0.000 N 
ATOM     20  C   UNL     1       1.455   8.185  20.031  0.00  0.00    +0.000 C 
ATOM     21  O   UNL     1       1.699   8.546  18.883  0.00  0.00    +0.000 OA
ATOM     22  H   UNL     1       1.373   6.763  21.512  0.00  0.00    +0.000 HD
BRANCH  20  23
ATOM     23  C   UNL     1       0.849   9.213  20.917  0.00  0.00    +0.000 A 
ATOM     24  C   UNL     1       0.734  10.561  20.562  0.00  0.00    +0.000 A 
ATOM     25  C   UNL     1       0.076  11.445  21.422  0.00  0.00    +0.000 A 
ATOM     26  C   UNL     1      -0.472  10.989  22.623  0.00  0.00    +0.000 A 
ATOM     27  C   UNL     1      -0.365   9.650  22.977  0.00  0.00    +0.000 A 
ATOM     28  C   UNL     1       0.294   8.767  22.128  0.00  0.00    +0.000 A 
ENDBRANCH  20  23
ENDBRANCH  10  19
TORSDOF 2
ENDMDL
MODEL 8
REMARK VINA RESULT:      -8.2      0.957      1.010
REMARK  Name = 
REMARK  2 active torsions:
REMARK  status: ('A' for Active; 'I' for Inactive)
REMARK    1  A    between atoms: C_10  and  N_11
REMARK    2  A    between atoms: C_12  and  C_14
REMARK                            x       y       z     vdW  Elec       q    Type
REMARK                         _______ _______ _______ _____ _____    ______ ____
ROOT
ATOM      1  N   UNL     1       6.153   3.643  14.728  0.00  0.00    +0.000 N 
ATOM      2  C   UNL     1       5.544   4.541  15.604  0.00  0.00    +0.000 A 
ATOM      3  C   UNL     1       4.803   4.072  16.685  0.00  0.00    +0.000 A 
ATOM      4  C   UNL     1       4.166   5.030  17.487  0.00  0.00    +0.000 A 
ATOM      5  C   UNL     1       4.320   6.362  17.135  0.00  0.00    +0.000 A 
ATOM      6  C   UNL     1       5.076   6.773  16.051  0.00  0.00    +0.000 A 
ATOM      7  N   UNL     1       5.686   5.839  15.291  0.00  0.00    +0.000 NA
ATOM      8  N   UNL     1       3.598   7.095  18.030  0.00  0.00    +0.000 N 
ATOM      9  C   UNL     1       2.968   6.311  18.965  0.00  0.00    +0.000 A 
ATOM     10  C   UNL     1       2.120   6.663  20.034  0.00  0.00    +0.000 A 
ATOM     11  C   UNL     1       1.641   5.596  20.813  0.00  0.00    +0.000 A 
ATOM     12  C   UNL     1       1.993   4.273  20.531  0.00  0.00    +0.000 A 
ATOM     13 CL   UNL     1       1.382   3.004  21.527  0.00  0.00    +0.000 Cl
ATOM     14  C   UNL     1       2.826   3.952  19.458  0.00  0.00    +0.000 A 
ATOM     15  C   UNL     1       3.323   4.994  18.652  0.00  0.00    +0.000 A 
ATOM     16  H   UNL     1       6.742   2.981  15.217  0.00  0.00    +0.000 HD
ATOM     17  H   UNL     1       6.679   4.210  14.066  0.00  0.00    +0.000 HD
ATOM     18  H   UNL     1       3.512   8.104  18.011  0.00  0.00    +0.000 HD
ENDROOT
BRANCH  10  19
ATOM     19  N   UNL     1       1.708   7.977  20.384  0.00  0.00    +0.000 N 
ATOM     20  C   UNL     1       0.561   8.342  21.070  0.00  0.00    +0.000 C 
ATOM     21  O   UNL     1      -0.305   7.583  21.497  0.00  0.00    +0.000 OA
ATOM     22  H   UNL     1       2.356   8.714  20.142  0.00  0.00    +0.000 HD
BRANCH  20  23
ATOM     23  C   UNL     1       0.347   9.786  21.344  0.00  0.00    +0.000 A 
ATOM     24  C   UNL     1       0.866  10.806  20.540  0.00  0.00    +0.000 A 
ATOM     25  C   UNL     1       0.547  12.137  20.824  0.00  0.00    +0.000 A 
ATOM     26  C   UNL     1      -0.292  12.450  21.897  0.00  0.00    +0.000 A 
ATOM     27  C   UNL     1      -0.813  11.441  22.696  0.00  0.00    +0.000 A 
ATOM     28  C   UNL     1      -0.494  10.115  22.421  0.00  0.00    +0.000 A 
ENDBRANCH  20  23
ENDBRANCH  10  19
TORSDOF 2
ENDMDL
MODEL 9
REMARK VINA RESULT:      -8.1      1.900      7.238
REMARK  Name = 
REMARK  2 active torsions:
REMARK  status: ('A' for Active; 'I' for Inactive)
REMARK    1  A    between atoms: C_10  and  N_11
REMARK    2  A    between atoms: C_12  and  C_14
REMARK                            x       y       z     vdW  Elec       q    Type
REMARK                         _______ _______ _______ _____ _____    ______ ____
ROOT
ATOM      1  N   UNL     1       0.020  10.314  21.843  0.00  0.00    +0.000 N 
ATOM      2  C   UNL     1       0.649   9.508  20.896  0.00  0.00    +0.000 A 
ATOM      3  C   UNL     1       0.939   8.178  21.187  0.00  0.00    +0.000 A 
ATOM      4  C   UNL     1       1.630   7.445  20.210  0.00  0.00    +0.000 A 
ATOM      5  C   UNL     1       1.974   8.105  19.041  0.00  0.00    +0.000 A 
ATOM      6  C   UNL     1       1.653   9.430  18.800  0.00  0.00    +0.000 A 
ATOM      7  N   UNL     1       0.985  10.121  19.748  0.00  0.00    +0.000 NA
ATOM      8  N   UNL     1       2.653   7.212  18.267  0.00  0.00    +0.000 N 
ATOM      9  C   UNL     1       2.779   5.984  18.867  0.00  0.00    +0.000 A 
ATOM     10  C   UNL     1       3.419   4.809  18.425  0.00  0.00    +0.000 A 
ATOM     11  C   UNL     1       3.356   3.711  19.299  0.00  0.00    +0.000 A 
ATOM     12  C   UNL     1       2.697   3.795  20.528  0.00  0.00    +0.000 A 
ATOM     13 CL   UNL     1       2.644   2.412  21.557  0.00  0.00    +0.000 Cl
ATOM     14  C   UNL     1       2.081   4.977  20.946  0.00  0.00    +0.000 A 
ATOM     15  C   UNL     1       2.125   6.099  20.100  0.00  0.00    +0.000 A 
ATOM     16  H   UNL     1      -0.839   9.898  22.180  0.00  0.00    +0.000 HD
ATOM     17  H   UNL     1      -0.139  11.210  21.388  0.00  0.00    +0.000 HD
ATOM     18  H   UNL     1       3.043   7.421  17.355  0.00  0.00    +0.000 HD
ENDROOT
BRANCH  10  19
ATOM     19  N   UNL     1       4.116   4.641  17.198  0.00  0.00    +0.000 N 
ATOM     20  C   UNL     1       5.123   5.445  16.689  0.00  0.00    +0.000 C 
ATOM     21  O   UNL     1       5.588   6.452  17.216  0.00  0.00    +0.000 OA
ATOM     22  H   UNL     1       3.875   3.812  16.672  0.00  0.00    +0.000 HD
BRANCH  20  23
ATOM     23  C   UNL     1       5.725   5.060  15.386  0.00  0.00    +0.000 A 
ATOM     24  C   UNL     1       6.977   5.510  14.955  0.00  0.00    +0.000 A 
ATOM     25  C   UNL     1       7.504   5.033  13.752  0.00  0.00    +0.000 A 
ATOM     26  C   UNL     1       6.793   4.105  12.987  0.00  0.00    +0.000 A 
ATOM     27  C   UNL     1       5.552   3.651  13.412  0.00  0.00    +0.000 A 
ATOM     28  C   UNL     1       5.020   4.127  14.606  0.00  0.00    +0.000 A 
ENDBRANCH  20  23
ENDBRANCH  10  19
TORSDOF 2
ENDMDL
