MODEL 1
REMARK VINA RESULT:      -8.3      0.000      0.000
REMARK  Name = 
REMARK  6 active torsions:
REMARK  status: ('A' for Active; 'I' for Inactive)
REMARK    1  A    between atoms: C_1  and  N_2
REMARK    2  A    between atoms: N_2  and  C_3
REMARK    3  A    between atoms: N_2  and  C_4
REMARK    4  A    between atoms: C_4  and  C_5
REMARK    5  A    between atoms: C_5  and  N_6
REMARK    6  A    between atoms: C_7  and  C_9
REMARK                            x       y       z     vdW  Elec       q    Type
REMARK                         _______ _______ _______ _____ _____    ______ ____
ROOT
ATOM      1  C   UNL     1       6.304   5.694  17.890  0.00  0.00    +0.000 A 
ATOM      2  C   UNL     1       5.272   5.434  18.813  0.00  0.00    +0.000 A 
ATOM      3  C   UNL     1       4.173   4.647  18.434  0.00  0.00    +0.000 A 
ATOM      4  C   UNL     1       3.007   4.193  19.120  0.00  0.00    +0.000 A 
ATOM      5  C   UNL     1       2.513   4.376  20.428  0.00  0.00    +0.000 A 
ATOM      6  C   UNL     1       1.316   3.757  20.802  0.00  0.00    +0.000 A 
ATOM      7  C   UNL     1       0.616   2.966  19.894  0.00  0.00    +0.000 A 
ATOM      8  C   UNL     1       1.085   2.773  18.588  0.00  0.00    +0.000 A 
ATOM      9  C   UNL     1       2.280   3.405  18.230  0.00  0.00    +0.000 A 
ATOM     10  N   UNL     1       2.974   3.401  17.040  0.00  0.00    +0.000 N 
ATOM     11  C   UNL     1       4.131   4.144  17.139  0.00  0.00    +0.000 A 
ATOM     12  C   UNL     1       5.139   4.387  16.198  0.00  0.00    +0.000 A 
ATOM     13  N   UNL     1       4.929   3.827  14.974  0.00  0.00    +0.000 NA
ATOM     14  C   UNL     1       5.898   4.026  14.053  0.00  0.00    +0.000 A 
ATOM     15  C   UNL     1       7.054   4.734  14.294  0.00  0.00    +0.000 A 
ATOM     16  C   UNL     1       7.234   5.303  15.554  0.00  0.00    +0.000 A 
ATOM     17  C   UNL     1       6.257   5.158  16.573  0.00  0.00    +0.000 A 
ATOM     18  H   UNL     1       2.707   2.909  16.199  0.00  0.00    +0.000 HD
ENDROOT
BRANCH   1  20
ATOM     19  N   UNL     1       7.540   7.805  17.838  0.00  0.00    +0.000 N 
ATOM     20  C   UNL     1       7.455   6.527  18.354  0.00  0.00    +0.000 C 
ATOM     21  O   UNL     1       8.275   6.095  19.155  0.00  0.00    +0.000 OA
ATOM     22  H   UNL     1       6.855   8.179  17.196  0.00  0.00    +0.000 HD
BRANCH  19  23
ATOM     23  C   UNL     1       8.603   8.692  18.263  0.00  0.00    +0.000 C 
BRANCH  23  24
ATOM     24  C   UNL     1       8.293  10.175  17.989  0.00  0.00    +0.000 C 
BRANCH  24  26
ATOM     25  C   UNL     1       9.099  12.459  17.807  0.00  0.00    +0.000 C 
ATOM     26  N   UNL     1       9.432  11.093  18.225  0.00  0.00    +0.000 NA
ATOM     27  C   UNL     1       9.785  11.101  19.650  0.00  0.00    +0.000 C 
ENDBRANCH  24  26
ENDBRANCH  23  24
ENDBRANCH  19  23
ENDBRANCH   1  20
TORSDOF 4
ENDMDL
MODEL 2
REMARK VINA RESULT:      -8.2      2.600      7.293
REMARK  Name = 
REMARK  6 active torsions:
REMARK  status: ('A' for Active; 'I' for Inactive)
REMARK    1  A    between atoms: C_1  and  N_2
REMARK    2  A    between atoms: N_2  and  C_3
REMARK    3  A    between atoms: N_2  and  C_4
REMARK    4  A    between atoms: C_4  and  C_5
REMARK    5  A    between atoms: C_5  and  N_6
REMARK    6  A    between atoms: C_7  and  C_9
REMARK                            x       y       z     vdW  Elec       q    Type
REMARK                         _______ _______ _______ _____ _____    ______ ____
ROOT
ATOM      1  C   UNL     1       5.024   3.763  17.534  0.00  0.00    +0.000 A 
ATOM      2  C   UNL     1       4.963   3.473  16.156  0.00  0.00    +0.000 A 
ATOM      3  C   UNL     1       5.869   4.078  15.271  0.00  0.00    +0.000 A 
ATOM      4  C   UNL     1       6.079   3.981  13.862  0.00  0.00    +0.000 A 
ATOM      5  C   UNL     1       5.447   3.256  12.831  0.00  0.00    +0.000 A 
ATOM      6  C   UNL     1       5.926   3.368  11.522  0.00  0.00    +0.000 A 
ATOM      7  C   UNL     1       7.016   4.187  11.235  0.00  0.00    +0.000 A 
ATOM      8  C   UNL     1       7.657   4.920  12.242  0.00  0.00    +0.000 A 
ATOM      9  C   UNL     1       7.161   4.800  13.545  0.00  0.00    +0.000 A 
ATOM     10  N   UNL     1       7.576   5.388  14.719  0.00  0.00    +0.000 N 
ATOM     11  C   UNL     1       6.811   4.961  15.783  0.00  0.00    +0.000 A 
ATOM     12  C   UNL     1       6.896   5.272  17.146  0.00  0.00    +0.000 A 
ATOM     13  N   UNL     1       7.870   6.168  17.472  0.00  0.00    +0.000 NA
ATOM     14  C   UNL     1       7.989   6.468  18.784  0.00  0.00    +0.000 A 
ATOM     15  C   UNL     1       7.205   5.917  19.773  0.00  0.00    +0.000 A 
ATOM     16  C   UNL     1       6.211   5.012  19.406  0.00  0.00    +0.000 A 
ATOM     17  C   UNL     1       6.005   4.656  18.047  0.00  0.00    +0.000 A 
ATOM     18  H   UNL     1       8.349   6.030  14.820  0.00  0.00    +0.000 HD
ENDROOT
BRANCH   1  20
ATOM     19  N   UNL     1       2.723   3.094  18.024  0.00  0.00    +0.000 N 
ATOM     20  C   UNL     1       4.043   3.080  18.430  0.00  0.00    +0.000 C 
ATOM     21  O   UNL     1       4.398   2.533  19.467  0.00  0.00    +0.000 OA
ATOM     22  H   UNL     1       2.425   3.520  17.159  0.00  0.00    +0.000 HD
BRANCH  19  23
ATOM     23  C   UNL     1       1.713   2.422  18.816  0.00  0.00    +0.000 C 
BRANCH  23  24
ATOM     24  C   UNL     1       0.739   3.400  19.500  0.00  0.00    +0.000 C 
BRANCH  24  26
ATOM     25  C   UNL     1       1.711   2.592  21.574  0.00  0.00    +0.000 C 
ATOM     26  N   UNL     1       1.094   3.739  20.898  0.00  0.00    +0.000 NA
ATOM     27  C   UNL     1       2.031   4.868  20.919  0.00  0.00    +0.000 C 
ENDBRANCH  24  26
ENDBRANCH  23  24
ENDBRANCH  19  23
ENDBRANCH   1  20
TORSDOF 4
ENDMDL
MODEL 3
REMARK VINA RESULT:      -8.1      3.869      6.786
REMARK  Name = 
REMARK  6 active torsions:
REMARK  status: ('A' for Active; 'I' for Inactive)
REMARK    1  A    between atoms: C_1  and  N_2
REMARK    2  A    between atoms: N_2  and  C_3
REMARK    3  A    between atoms: N_2  and  C_4
REMARK    4  A    between atoms: C_4  and  C_5
REMARK    5  A    between atoms: C_5  and  N_6
REMARK    6  A    between atoms: C_7  and  C_9
REMARK                            x       y       z     vdW  Elec       q    Type
REMARK                         _______ _______ _______ _____ _____    ______ ____
ROOT
ATOM      1  C   UNL     1       2.629   6.393  19.200  0.00  0.00    +0.000 A 
ATOM      2  C   UNL     1       3.523   6.553  18.123  0.00  0.00    +0.000 A 
ATOM      3  C   UNL     1       4.098   5.425  17.515  0.00  0.00    +0.000 A 
ATOM      4  C   UNL     1       4.998   5.252  16.420  0.00  0.00    +0.000 A 
ATOM      5  C   UNL     1       5.659   6.145  15.552  0.00  0.00    +0.000 A 
ATOM      6  C   UNL     1       6.478   5.635  14.539  0.00  0.00    +0.000 A 
ATOM      7  C   UNL     1       6.642   4.261  14.386  0.00  0.00    +0.000 A 
ATOM      8  C   UNL     1       5.998   3.355  15.239  0.00  0.00    +0.000 A 
ATOM      9  C   UNL     1       5.188   3.882  16.251  0.00  0.00    +0.000 A 
ATOM     10  N   UNL     1       4.444   3.251  17.223  0.00  0.00    +0.000 N 
ATOM     11  C   UNL     1       3.768   4.166  18.001  0.00  0.00    +0.000 A 
ATOM     12  C   UNL     1       2.885   3.974  19.070  0.00  0.00    +0.000 A 
ATOM     13  N   UNL     1       2.685   2.673  19.424  0.00  0.00    +0.000 NA
ATOM     14  C   UNL     1       1.819   2.458  20.439  0.00  0.00    +0.000 A 
ATOM     15  C   UNL     1       1.143   3.459  21.098  0.00  0.00    +0.000 A 
ATOM     16  C   UNL     1       1.377   4.780  20.720  0.00  0.00    +0.000 A 
ATOM     17  C   UNL     1       2.286   5.096  19.676  0.00  0.00    +0.000 A 
ATOM     18  H   UNL     1       4.367   2.252  17.356  0.00  0.00    +0.000 HD
ENDROOT
BRANCH   1  20
ATOM     19  N   UNL     1       1.891   7.637  21.173  0.00  0.00    +0.000 N 
ATOM     20  C   UNL     1       2.038   7.627  19.799  0.00  0.00    +0.000 C 
ATOM     21  O   UNL     1       1.707   8.580  19.104  0.00  0.00    +0.000 OA
ATOM     22  H   UNL     1       2.184   6.866  21.756  0.00  0.00    +0.000 HD
BRANCH  19  23
ATOM     23  C   UNL     1       1.362   8.810  21.838  0.00  0.00    +0.000 C 
BRANCH  23  24
ATOM     24  C   UNL     1      -0.176   8.881  21.793  0.00  0.00    +0.000 C 
BRANCH  24  26
ATOM     25  C   UNL     1      -1.089  10.721  23.089  0.00  0.00    +0.000 C 
ATOM     26  N   UNL     1      -0.724  10.257  21.745  0.00  0.00    +0.000 NA
ATOM     27  C   UNL     1       0.270  11.174  21.175  0.00  0.00    +0.000 C 
ENDBRANCH  24  26
ENDBRANCH  23  24
ENDBRANCH  19  23
ENDBRANCH   1  20
TORSDOF 4
ENDMDL
MODEL 4
REMARK VINA RESULT:      -7.9      4.025      6.805
REMARK  Name = 
REMARK  6 active torsions:
REMARK  status: ('A' for Active; 'I' for Inactive)
REMARK    1  A    between atoms: C_1  and  N_2
REMARK    2  A    between atoms: N_2  and  C_3
REMARK    3  A    between atoms: N_2  and  C_4
REMARK    4  A    between atoms: C_4  and  C_5
REMARK    5  A    between atoms: C_5  and  N_6
REMARK    6  A    between atoms: C_7  and  C_9
REMARK                            x       y       z     vdW  Elec       q    Type
REMARK                         _______ _______ _______ _____ _____    ______ ____
ROOT
ATOM      1  C   UNL     1       2.538   6.281  19.279  0.00  0.00    +0.000 A 
ATOM      2  C   UNL     1       3.426   6.495  18.206  0.00  0.00    +0.000 A 
ATOM      3  C   UNL     1       4.055   5.402  17.587  0.00  0.00    +0.000 A 
ATOM      4  C   UNL     1       4.964   5.284  16.493  0.00  0.00    +0.000 A 
ATOM      5  C   UNL     1       5.581   6.216  15.634  0.00  0.00    +0.000 A 
ATOM      6  C   UNL     1       6.425   5.757  14.617  0.00  0.00    +0.000 A 
ATOM      7  C   UNL     1       6.655   4.393  14.451  0.00  0.00    +0.000 A 
ATOM      8  C   UNL     1       6.055   3.449  15.294  0.00  0.00    +0.000 A 
ATOM      9  C   UNL     1       5.220   3.926  16.310  0.00  0.00    +0.000 A 
ATOM     10  N   UNL     1       4.506   3.250  17.275  0.00  0.00    +0.000 N 
ATOM     11  C   UNL     1       3.786   4.124  18.061  0.00  0.00    +0.000 A 
ATOM     12  C   UNL     1       2.912   3.879  19.127  0.00  0.00    +0.000 A 
ATOM     13  N   UNL     1       2.775   2.567  19.468  0.00  0.00    +0.000 NA
ATOM     14  C   UNL     1       1.919   2.300  20.479  0.00  0.00    +0.000 A 
ATOM     15  C   UNL     1       1.195   3.261  21.147  0.00  0.00    +0.000 A 
ATOM     16  C   UNL     1       1.365   4.595  20.782  0.00  0.00    +0.000 A 
ATOM     17  C   UNL     1       2.258   4.965  19.742  0.00  0.00    +0.000 A 
ATOM     18  H   UNL     1       4.477   2.248  17.398  0.00  0.00    +0.000 HD
ENDROOT
BRANCH   1  20
ATOM     19  N   UNL     1       1.673   8.559  19.055  0.00  0.00    +0.000 N 
ATOM     20  C   UNL     1       1.888   7.479  19.890  0.00  0.00    +0.000 C 
ATOM     21  O   UNL     1       1.560   7.496  21.070  0.00  0.00    +0.000 OA
ATOM     22  H   UNL     1       1.918   8.544  18.075  0.00  0.00    +0.000 HD
BRANCH  19  23
ATOM     23  C   UNL     1       1.014   9.746  19.558  0.00  0.00    +0.000 C 
BRANCH  23  24
ATOM     24  C   UNL     1       0.213  10.492  18.474  0.00  0.00    +0.000 C 
BRANCH  24  26
ATOM     25  C   UNL     1      -1.872  11.582  19.073  0.00  0.00    +0.000 C 
ATOM     26  N   UNL     1      -1.256  10.342  18.587  0.00  0.00    +0.000 NA
ATOM     27  C   UNL     1      -1.829  10.002  17.280  0.00  0.00    +0.000 C 
ENDBRANCH  24  26
ENDBRANCH  23  24
ENDBRANCH  19  23
ENDBRANCH   1  20
TORSDOF 4
ENDMDL
MODEL 5
REMARK VINA RESULT:      -7.8      3.731      6.306
REMARK  Name = 
REMARK  6 active torsions:
REMARK  status: ('A' for Active; 'I' for Inactive)
REMARK    1  A    between atoms: C_1  and  N_2
REMARK    2  A    between atoms: N_2  and  C_3
REMARK    3  A    between atoms: N_2  and  C_4
REMARK    4  A    between atoms: C_4  and  C_5
REMARK    5  A    between atoms: C_5  and  N_6
REMARK    6  A    between atoms: C_7  and  C_9
REMARK                            x       y       z     vdW  Elec       q    Type
REMARK                         _______ _______ _______ _____ _____    ______ ____
ROOT
ATOM      1  C   UNL     1       3.822   5.006  18.034  0.00  0.00    +0.000 A 
ATOM      2  C   UNL     1       3.426   6.338  17.806  0.00  0.00    +0.000 A 
ATOM      3  C   UNL     1       2.637   7.009  18.754  0.00  0.00    +0.000 A 
ATOM      4  C   UNL     1       2.104   8.331  18.829  0.00  0.00    +0.000 A 
ATOM      5  C   UNL     1       2.154   9.452  17.975  0.00  0.00    +0.000 A 
ATOM      6  C   UNL     1       1.528  10.640  18.366  0.00  0.00    +0.000 A 
ATOM      7  C   UNL     1       0.860  10.719  19.586  0.00  0.00    +0.000 A 
ATOM      8  C   UNL     1       0.794   9.618  20.449  0.00  0.00    +0.000 A 
ATOM      9  C   UNL     1       1.420   8.436  20.039  0.00  0.00    +0.000 A 
ATOM     10  N   UNL     1       1.521   7.212  20.663  0.00  0.00    +0.000 N 
ATOM     11  C   UNL     1       2.260   6.329  19.905  0.00  0.00    +0.000 A 
ATOM     12  C   UNL     1       2.635   5.004  20.161  0.00  0.00    +0.000 A 
ATOM     13  N   UNL     1       2.165   4.490  21.332  0.00  0.00    +0.000 NA
ATOM     14  C   UNL     1       2.531   3.220  21.615  0.00  0.00    +0.000 A 
ATOM     15  C   UNL     1       3.340   2.455  20.805  0.00  0.00    +0.000 A 
ATOM     16  C   UNL     1       3.796   3.006  19.608  0.00  0.00    +0.000 A 
ATOM     17  C   UNL     1       3.443   4.327  19.226  0.00  0.00    +0.000 A 
ATOM     18  H   UNL     1       1.134   6.973  21.566  0.00  0.00    +0.000 HD
ENDROOT
BRANCH   1  20
ATOM     19  N   UNL     1       5.925   4.888  16.790  0.00  0.00    +0.000 N 
ATOM     20  C   UNL     1       4.671   4.347  16.997  0.00  0.00    +0.000 C 
ATOM     21  O   UNL     1       4.273   3.374  16.368  0.00  0.00    +0.000 OA
ATOM     22  H   UNL     1       6.272   5.674  17.322  0.00  0.00    +0.000 HD
BRANCH  19  23
ATOM     23  C   UNL     1       6.827   4.287  15.829  0.00  0.00    +0.000 C 
BRANCH  23  24
ATOM     24  C   UNL     1       6.721   4.921  14.429  0.00  0.00    +0.000 C 
BRANCH  24  26
ATOM     25  C   UNL     1       5.196   3.681  13.003  0.00  0.00    +0.000 C 
ATOM     26  N   UNL     1       6.604   3.944  13.322  0.00  0.00    +0.000 NA
ATOM     27  C   UNL     1       7.278   4.459  12.124  0.00  0.00    +0.000 C 
ENDBRANCH  24  26
ENDBRANCH  23  24
ENDBRANCH  19  23
ENDBRANCH   1  20
TORSDOF 4
ENDMDL
MODEL 6
REMARK VINA RESULT:      -7.7      3.808      6.218
REMARK  Name = 
REMARK  6 active torsions:
REMARK  status: ('A' for Active; 'I' for Inactive)
REMARK    1  A    between atoms: C_1  and  N_2
REMARK    2  A    between atoms: N_2  and  C_3
REMARK    3  A    between atoms: N_2  and  C_4
REMARK    4  A    between atoms: C_4  and  C_5
REMARK    5  A    between atoms: C_5  and  N_6
REMARK    6  A    between atoms: C_7  and  C_9
REMARK                            x       y       z     vdW  Elec       q    Type
REMARK                         _______ _______ _______ _____ _____    ______ ____
ROOT
ATOM      1  C   UNL     1       2.537   6.237  19.332  0.00  0.00    +0.000 A 
ATOM      2  C   UNL     1       3.423   6.464  18.260  0.00  0.00    +0.000 A 
ATOM      3  C   UNL     1       4.047   5.379  17.623  0.00  0.00    +0.000 A 
ATOM      4  C   UNL     1       4.953   5.275  16.525  0.00  0.00    +0.000 A 
ATOM      5  C   UNL     1       5.574   6.218  15.680  0.00  0.00    +0.000 A 
ATOM      6  C   UNL     1       6.413   5.772  14.655  0.00  0.00    +0.000 A 
ATOM      7  C   UNL     1       6.637   4.410  14.466  0.00  0.00    +0.000 A 
ATOM      8  C   UNL     1       6.035   3.455  15.295  0.00  0.00    +0.000 A 
ATOM      9  C   UNL     1       5.203   3.919  16.320  0.00  0.00    +0.000 A 
ATOM     10  N   UNL     1       4.488   3.231  17.275  0.00  0.00    +0.000 N 
ATOM     11  C   UNL     1       3.773   4.095  18.076  0.00  0.00    +0.000 A 
ATOM     12  C   UNL     1       2.900   3.837  19.140  0.00  0.00    +0.000 A 
ATOM     13  N   UNL     1       2.758   2.519  19.459  0.00  0.00    +0.000 NA
ATOM     14  C   UNL     1       1.903   2.239  20.467  0.00  0.00    +0.000 A 
ATOM     15  C   UNL     1       1.184   3.193  21.153  0.00  0.00    +0.000 A 
ATOM     16  C   UNL     1       1.359   4.532  20.809  0.00  0.00    +0.000 A 
ATOM     17  C   UNL     1       2.252   4.915  19.774  0.00  0.00    +0.000 A 
ATOM     18  H   UNL     1       4.455   2.227  17.382  0.00  0.00    +0.000 HD
ENDROOT
BRANCH   1  20
ATOM     19  N   UNL     1       1.700   8.529  19.151  0.00  0.00    +0.000 N 
ATOM     20  C   UNL     1       1.893   7.428  19.963  0.00  0.00    +0.000 C 
ATOM     21  O   UNL     1       1.551   7.421  21.139  0.00  0.00    +0.000 OA
ATOM     22  H   UNL     1       1.956   8.535  18.174  0.00  0.00    +0.000 HD
BRANCH  19  23
ATOM     23  C   UNL     1       1.049   9.712  19.674  0.00  0.00    +0.000 C 
BRANCH  23  24
ATOM     24  C   UNL     1       0.713  10.744  18.581  0.00  0.00    +0.000 C 
BRANCH  24  26
ATOM     25  C   UNL     1       1.283  12.311  20.347  0.00  0.00    +0.000 C 
ATOM     26  N   UNL     1       1.131  12.129  18.899  0.00  0.00    +0.000 NA
ATOM     27  C   UNL     1       2.407  12.433  18.241  0.00  0.00    +0.000 C 
ENDBRANCH  24  26
ENDBRANCH  23  24
ENDBRANCH  19  23
ENDBRANCH   1  20
TORSDOF 4
ENDMDL
MODEL 7
REMARK VINA RESULT:      -7.5      2.827      5.685
REMARK  Name = 
REMARK  6 active torsions:
REMARK  status: ('A' for Active; 'I' for Inactive)
REMARK    1  A    between atoms: C_1  and  N_2
REMARK    2  A    between atoms: N_2  and  C_3
REMARK    3  A    between atoms: N_2  and  C_4
REMARK    4  A    between atoms: C_4  and  C_5
REMARK    5  A    between atoms: C_5  and  N_6
REMARK    6  A    between atoms: C_7  and  C_9
REMARK                            x       y       z     vdW  Elec       q    Type
REMARK                         _______ _______ _______ _____ _____    ______ ____
ROOT
ATOM      1  C   UNL     1       5.348   5.127  16.486  0.00  0.00    +0.000 A 
ATOM      2  C   UNL     1       4.122   4.486  16.754  0.00  0.00    +0.000 A 
ATOM      3  C   UNL     1       3.779   4.151  18.074  0.00  0.00    +0.000 A 
ATOM      4  C   UNL     1       2.635   3.535  18.665  0.00  0.00    +0.000 A 
ATOM      5  C   UNL     1       1.430   3.019  18.146  0.00  0.00    +0.000 A 
ATOM      6  C   UNL     1       0.477   2.490  19.023  0.00  0.00    +0.000 A 
ATOM      7  C   UNL     1       0.713   2.472  20.396  0.00  0.00    +0.000 A 
ATOM      8  C   UNL     1       1.905   2.975  20.933  0.00  0.00    +0.000 A 
ATOM      9  C   UNL     1       2.849   3.495  20.041  0.00  0.00    +0.000 A 
ATOM     10  N   UNL     1       4.089   4.048  20.271  0.00  0.00    +0.000 N 
ATOM     11  C   UNL     1       4.673   4.460  19.092  0.00  0.00    +0.000 A 
ATOM     12  C   UNL     1       5.900   5.093  18.858  0.00  0.00    +0.000 A 
ATOM     13  N   UNL     1       6.657   5.308  19.971  0.00  0.00    +0.000 NA
ATOM     14  C   UNL     1       7.836   5.939  19.776  0.00  0.00    +0.000 A 
ATOM     15  C   UNL     1       8.284   6.370  18.547  0.00  0.00    +0.000 A 
ATOM     16  C   UNL     1       7.491   6.126  17.427  0.00  0.00    +0.000 A 
ATOM     17  C   UNL     1       6.246   5.453  17.541  0.00  0.00    +0.000 A 
ATOM     18  H   UNL     1       4.526   4.170  21.173  0.00  0.00    +0.000 HD
ENDROOT
BRANCH   1  20
ATOM     19  N   UNL     1       6.307   4.507  14.322  0.00  0.00    +0.000 N 
ATOM     20  C   UNL     1       5.654   5.471  15.065  0.00  0.00    +0.000 C 
ATOM     21  O   UNL     1       5.334   6.553  14.586  0.00  0.00    +0.000 OA
ATOM     22  H   UNL     1       6.552   3.603  14.701  0.00  0.00    +0.000 HD
BRANCH  19  23
ATOM     23  C   UNL     1       6.608   4.745  12.926  0.00  0.00    +0.000 C 
BRANCH  23  24
ATOM     24  C   UNL     1       6.805   3.445  12.124  0.00  0.00    +0.000 C 
BRANCH  24  26
ATOM     25  C   UNL     1       4.479   3.302  11.441  0.00  0.00    +0.000 C 
ATOM     26  N   UNL     1       5.602   2.582  12.053  0.00  0.00    +0.000 NA
ATOM     27  C   UNL     1       5.891   1.382  11.259  0.00  0.00    +0.000 C 
ENDBRANCH  24  26
ENDBRANCH  23  24
ENDBRANCH  19  23
ENDBRANCH   1  20
TORSDOF 4
ENDMDL
MODEL 8
REMARK VINA RESULT:      -7.5      3.731      6.299
REMARK  Name = 
REMARK  6 active torsions:
REMARK  status: ('A' for Active; 'I' for Inactive)
REMARK    1  A    between atoms: C_1  and  N_2
REMARK    2  A    between atoms: N_2  and  C_3
REMARK    3  A    between atoms: N_2  and  C_4
REMARK    4  A    between atoms: C_4  and  C_5
REMARK    5  A    between atoms: C_5  and  N_6
REMARK    6  A    between atoms: C_7  and  C_9
REMARK                            x       y       z     vdW  Elec       q    Type
REMARK                         _______ _______ _______ _____ _____    ______ ____
ROOT
ATOM      1  C   UNL     1       4.172   5.832  17.662  0.00  0.00    +0.000 A 
ATOM      2  C   UNL     1       3.509   7.071  17.761  0.00  0.00    +0.000 A 
ATOM      3  C   UNL     1       2.638   7.318  18.835  0.00  0.00    +0.000 A 
ATOM      4  C   UNL     1       1.854   8.446  19.223  0.00  0.00    +0.000 A 
ATOM      5  C   UNL     1       1.646   9.726  18.669  0.00  0.00    +0.000 A 
ATOM      6  C   UNL     1       0.810  10.631  19.330  0.00  0.00    +0.000 A 
ATOM      7  C   UNL     1       0.187  10.276  20.524  0.00  0.00    +0.000 A 
ATOM      8  C   UNL     1       0.375   9.009  21.091  0.00  0.00    +0.000 A 
ATOM      9  C   UNL     1       1.210   8.114  20.414  0.00  0.00    +0.000 A 
ATOM     10  N   UNL     1       1.577   6.823  20.721  0.00  0.00    +0.000 N 
ATOM     11  C   UNL     1       2.449   6.318  19.780  0.00  0.00    +0.000 A 
ATOM     12  C   UNL     1       3.091   5.076  19.709  0.00  0.00    +0.000 A 
ATOM     13  N   UNL     1       2.778   4.209  20.714  0.00  0.00    +0.000 NA
ATOM     14  C   UNL     1       3.401   3.011  20.683  0.00  0.00    +0.000 A 
ATOM     15  C   UNL     1       4.316   2.645  19.721  0.00  0.00    +0.000 A 
ATOM     16  C   UNL     1       4.606   3.550  18.701  0.00  0.00    +0.000 A 
ATOM     17  C   UNL     1       3.982   4.824  18.648  0.00  0.00    +0.000 A 
ATOM     18  H   UNL     1       1.281   6.300  21.533  0.00  0.00    +0.000 HD
ENDROOT
BRANCH   1  20
ATOM     19  N   UNL     1       5.289   4.328  16.089  0.00  0.00    +0.000 N 
ATOM     20  C   UNL     1       5.096   5.630  16.506  0.00  0.00    +0.000 C 
ATOM     21  O   UNL     1       5.647   6.576  15.955  0.00  0.00    +0.000 OA
ATOM     22  H   UNL     1       4.820   3.544  16.521  0.00  0.00    +0.000 HD
BRANCH  19  23
ATOM     23  C   UNL     1       6.140   4.047  14.951  0.00  0.00    +0.000 C 
BRANCH  23  24
ATOM     24  C   UNL     1       5.376   4.059  13.614  0.00  0.00    +0.000 C 
BRANCH  24  26
ATOM     25  C   UNL     1       5.002   2.888  11.520  0.00  0.00    +0.000 C 
ATOM     26  N   UNL     1       5.988   3.227  12.552  0.00  0.00    +0.000 NA
ATOM     27  C   UNL     1       7.105   3.947  11.930  0.00  0.00    +0.000 C 
ENDBRANCH  24  26
ENDBRANCH  23  24
ENDBRANCH  19  23
ENDBRANCH   1  20
TORSDOF 4
ENDMDL
MODEL 9
REMARK VINA RESULT:      -7.4      2.778      7.284
REMARK  Name = 
REMARK  6 active torsions:
REMARK  status: ('A' for Active; 'I' for Inactive)
REMARK    1  A    between atoms: C_1  and  N_2
REMARK    2  A    between atoms: N_2  and  C_3
REMARK    3  A    between atoms: N_2  and  C_4
REMARK    4  A    between atoms: C_4  and  C_5
REMARK    5  A    between atoms: C_5  and  N_6
REMARK    6  A    between atoms: C_7  and  C_9
REMARK                            x       y       z     vdW  Elec       q    Type
REMARK                         _______ _______ _______ _____ _____    ______ ____
ROOT
ATOM      1  C   UNL     1       4.794   3.954  17.335  0.00  0.00    +0.000 A 
ATOM      2  C   UNL     1       4.782   3.667  15.956  0.00  0.00    +0.000 A 
ATOM      3  C   UNL     1       5.789   4.181  15.123  0.00  0.00    +0.000 A 
ATOM      4  C   UNL     1       6.067   4.060  13.728  0.00  0.00    +0.000 A 
ATOM      5  C   UNL     1       5.427   3.394  12.662  0.00  0.00    +0.000 A 
ATOM      6  C   UNL     1       5.987   3.457  11.382  0.00  0.00    +0.000 A 
ATOM      7  C   UNL     1       7.163   4.169  11.157  0.00  0.00    +0.000 A 
ATOM      8  C   UNL     1       7.813   4.840  12.200  0.00  0.00    +0.000 A 
ATOM      9  C   UNL     1       7.237   4.772  13.473  0.00  0.00    +0.000 A 
ATOM     10  N   UNL     1       7.640   5.322  14.670  0.00  0.00    +0.000 N 
ATOM     11  C   UNL     1       6.780   4.973  15.690  0.00  0.00    +0.000 A 
ATOM     12  C   UNL     1       6.818   5.278  17.056  0.00  0.00    +0.000 A 
ATOM     13  N   UNL     1       7.854   6.079  17.437  0.00  0.00    +0.000 NA
ATOM     14  C   UNL     1       7.927   6.371  18.754  0.00  0.00    +0.000 A 
ATOM     15  C   UNL     1       7.041   5.900  19.697  0.00  0.00    +0.000 A 
ATOM     16  C   UNL     1       5.987   5.092  19.273  0.00  0.00    +0.000 A 
ATOM     17  C   UNL     1       5.825   4.752  17.904  0.00  0.00    +0.000 A 
ATOM     18  H   UNL     1       8.464   5.889  14.815  0.00  0.00    +0.000 HD
ENDROOT
BRANCH   1  20
ATOM     19  N   UNL     1       4.091   2.482  19.158  0.00  0.00    +0.000 N 
ATOM     20  C   UNL     1       3.704   3.370  18.174  0.00  0.00    +0.000 C 
ATOM     21  O   UNL     1       2.530   3.670  17.996  0.00  0.00    +0.000 OA
ATOM     22  H   UNL     1       5.059   2.247  19.328  0.00  0.00    +0.000 HD
BRANCH  19  23
ATOM     23  C   UNL     1       3.102   1.898  20.041  0.00  0.00    +0.000 C 
BRANCH  23  24
ATOM     24  C   UNL     1       2.971   2.652  21.377  0.00  0.00    +0.000 C 
BRANCH  24  26
ATOM     25  C   UNL     1       2.137   4.917  21.114  0.00  0.00    +0.000 C 
ATOM     26  N   UNL     1       1.787   3.536  21.468  0.00  0.00    +0.000 NA
ATOM     27  C   UNL     1       0.734   3.062  20.561  0.00  0.00    +0.000 C 
ENDBRANCH  24  26
ENDBRANCH  23  24
ENDBRANCH  19  23
ENDBRANCH   1  20
TORSDOF 4
ENDMDL
