MODEL 1
REMARK VINA RESULT:      -7.7      0.000      0.000
REMARK  Name = 
REMARK  4 active torsions:
REMARK  status: ('A' for Active; 'I' for Inactive)
REMARK    1  A    between atoms: C_1  and  C_2
REMARK    2  A    between atoms: C_4  and  N_5
REMARK    3  A    between atoms: C_6  and  C_8
REMARK    4  A    between atoms: C_8  and  C_9
REMARK                            x       y       z     vdW  Elec       q    Type
REMARK                         _______ _______ _______ _____ _____    ______ ____
ROOT
ATOM      1  C   UNL     1       8.224   7.975  18.260  0.00  0.00    +0.000 C 
ATOM      2  C   UNL     1       7.314   6.892  17.695  0.00  0.00    +0.000 C 
ATOM      3  C   UNL     1       7.418   5.622  18.531  0.00  0.00    +0.000 C 
ATOM      4  C   UNL     1       6.346   4.652  18.046  0.00  0.00    +0.000 C 
ATOM      5  C   UNL     1       6.387   4.557  16.544  0.00  0.00    +0.000 A 
ATOM      6  C   UNL     1       5.773   3.474  15.895  0.00  0.00    +0.000 A 
ATOM      7  C   UNL     1       5.835   3.354  14.508  0.00  0.00    +0.000 A 
ATOM      8  C   UNL     1       6.513   4.315  13.759  0.00  0.00    +0.000 A 
ATOM      9  C   UNL     1       7.118   5.401  14.397  0.00  0.00    +0.000 A 
ATOM     10  C   UNL     1       7.044   5.533  15.782  0.00  0.00    +0.000 A 
ATOM     11  O   UNL     1       7.674   6.626  16.330  0.00  0.00    +0.000 OA
ENDROOT
BRANCH   4  12
ATOM     12  N   UNL     1       5.017   5.067  18.479  0.00  0.00    +0.000 N 
ATOM     13  C   UNL     1       4.184   4.208  19.168  0.00  0.00    +0.000 C 
ATOM     14  O   UNL     1       4.539   3.049  19.423  0.00  0.00    +0.000 OA
ATOM     15  H   UNL     1       4.770   6.041  18.367  0.00  0.00    +0.000 HD
BRANCH  13  16
ATOM     16  C   UNL     1       2.778   4.786  19.552  0.00  0.00    +0.000 C 
ATOM     17  C   UNL     1       1.523   3.955  19.113  0.00  0.00    +0.000 C 
ATOM     18  C   UNL     1       0.912   4.211  20.502  0.00  0.00    +0.000 C 
ATOM     19  C   UNL     1       2.334   4.472  21.021  0.00  0.00    +0.000 C 
BRANCH  16  20
ATOM     20  C   UNL     1       2.727   6.191  19.191  0.00  0.00    +0.000 C 
ATOM     21  N   UNL     1       2.671   7.305  18.871  0.00  0.00    +0.000 NA
ENDBRANCH  16  20
ENDBRANCH  13  16
ENDBRANCH   4  12
TORSDOF 3
ENDMDL
MODEL 2
REMARK VINA RESULT:      -7.5      1.033      1.324
REMARK  Name = 
REMARK  4 active torsions:
REMARK  status: ('A' for Active; 'I' for Inactive)
REMARK    1  A    between atoms: C_1  and  C_2
REMARK    2  A    between atoms: C_4  and  N_5
REMARK    3  A    between atoms: C_6  and  C_8
REMARK    4  A    between atoms: C_8  and  C_9
REMARK                            x       y       z     vdW  Elec       q    Type
REMARK                         _______ _______ _______ _____ _____    ______ ____
ROOT
ATOM      1  C   UNL     1       8.153   7.800  18.251  0.00  0.00    +0.000 C 
ATOM      2  C   UNL     1       7.265   6.762  17.577  0.00  0.00    +0.000 C 
ATOM      3  C   UNL     1       7.289   5.453  18.359  0.00  0.00    +0.000 C 
ATOM      4  C   UNL     1       6.236   4.528  17.757  0.00  0.00    +0.000 C 
ATOM      5  C   UNL     1       6.379   4.500  16.258  0.00  0.00    +0.000 A 
ATOM      6  C   UNL     1       5.793   3.460  15.520  0.00  0.00    +0.000 A 
ATOM      7  C   UNL     1       5.948   3.401  14.137  0.00  0.00    +0.000 A 
ATOM      8  C   UNL     1       6.693   4.380  13.481  0.00  0.00    +0.000 A 
ATOM      9  C   UNL     1       7.272   5.423  14.207  0.00  0.00    +0.000 A 
ATOM     10  C   UNL     1       7.105   5.495  15.589  0.00  0.00    +0.000 A 
ATOM     11  O   UNL     1       7.714   6.549  16.229  0.00  0.00    +0.000 OA
ENDROOT
BRANCH   4  12
ATOM     12  N   UNL     1       4.888   4.951  18.117  0.00  0.00    +0.000 N 
ATOM     13  C   UNL     1       4.131   4.242  19.029  0.00  0.00    +0.000 C 
ATOM     14  O   UNL     1       4.574   3.212  19.556  0.00  0.00    +0.000 OA
ATOM     15  H   UNL     1       4.569   5.846  17.771  0.00  0.00    +0.000 HD
BRANCH  13  16
ATOM     16  C   UNL     1       2.693   4.804  19.303  0.00  0.00    +0.000 C 
ATOM     17  C   UNL     1       2.126   4.629  20.754  0.00  0.00    +0.000 C 
ATOM     18  C   UNL     1       1.607   6.077  20.688  0.00  0.00    +0.000 C 
ATOM     19  C   UNL     1       2.650   6.343  19.592  0.00  0.00    +0.000 C 
BRANCH  16  20
ATOM     20  C   UNL     1       1.801   4.360  18.248  0.00  0.00    +0.000 C 
ATOM     21  N   UNL     1       1.067   3.988  17.430  0.00  0.00    +0.000 NA
ENDBRANCH  16  20
ENDBRANCH  13  16
ENDBRANCH   4  12
TORSDOF 3
ENDMDL
MODEL 3
REMARK VINA RESULT:      -7.4      1.992      5.958
REMARK  Name = 
REMARK  4 active torsions:
REMARK  status: ('A' for Active; 'I' for Inactive)
REMARK    1  A    between atoms: C_1  and  C_2
REMARK    2  A    between atoms: C_4  and  N_5
REMARK    3  A    between atoms: C_6  and  C_8
REMARK    4  A    between atoms: C_8  and  C_9
REMARK                            x       y       z     vdW  Elec       q    Type
REMARK                         _______ _______ _______ _____ _____    ______ ____
ROOT
ATOM      1  C   UNL     1       1.868   8.233  20.647  0.00  0.00    +0.000 C 
ATOM      2  C   UNL     1       2.272   6.933  19.963  0.00  0.00    +0.000 C 
ATOM      3  C   UNL     1       2.207   7.087  18.448  0.00  0.00    +0.000 C 
ATOM      4  C   UNL     1       2.810   5.834  17.823  0.00  0.00    +0.000 C 
ATOM      5  C   UNL     1       2.220   4.608  18.470  0.00  0.00    +0.000 A 
ATOM      6  C   UNL     1       2.324   3.363  17.830  0.00  0.00    +0.000 A 
ATOM      7  C   UNL     1       1.751   2.227  18.398  0.00  0.00    +0.000 A 
ATOM      8  C   UNL     1       1.068   2.328  19.610  0.00  0.00    +0.000 A 
ATOM      9  C   UNL     1       0.969   3.562  20.257  0.00  0.00    +0.000 A 
ATOM     10  C   UNL     1       1.555   4.697  19.700  0.00  0.00    +0.000 A 
ATOM     11  O   UNL     1       1.404   5.873  20.397  0.00  0.00    +0.000 OA
ENDROOT
BRANCH   4  12
ATOM     12  N   UNL     1       4.262   5.815  17.960  0.00  0.00    +0.000 N 
ATOM     13  C   UNL     1       5.085   6.274  16.951  0.00  0.00    +0.000 C 
ATOM     14  O   UNL     1       4.610   6.701  15.890  0.00  0.00    +0.000 OA
ATOM     15  H   UNL     1       4.644   5.569  18.863  0.00  0.00    +0.000 HD
BRANCH  13  16
ATOM     16  C   UNL     1       6.625   6.175  17.232  0.00  0.00    +0.000 C 
ATOM     17  C   UNL     1       7.381   7.515  17.531  0.00  0.00    +0.000 C 
ATOM     18  C   UNL     1       8.128   6.797  18.670  0.00  0.00    +0.000 C 
ATOM     19  C   UNL     1       6.984   5.773  18.702  0.00  0.00    +0.000 C 
BRANCH  16  20
ATOM     20  C   UNL     1       7.242   5.349  16.210  0.00  0.00    +0.000 C 
ATOM     21  N   UNL     1       7.721   4.711  15.367  0.00  0.00    +0.000 NA
ENDBRANCH  16  20
ENDBRANCH  13  16
ENDBRANCH   4  12
TORSDOF 3
ENDMDL
MODEL 4
REMARK VINA RESULT:      -7.3      2.162      5.851
REMARK  Name = 
REMARK  4 active torsions:
REMARK  status: ('A' for Active; 'I' for Inactive)
REMARK    1  A    between atoms: C_1  and  C_2
REMARK    2  A    between atoms: C_4  and  N_5
REMARK    3  A    between atoms: C_6  and  C_8
REMARK    4  A    between atoms: C_8  and  C_9
REMARK                            x       y       z     vdW  Elec       q    Type
REMARK                         _______ _______ _______ _____ _____    ______ ____
ROOT
ATOM      1  C   UNL     1       1.649   8.059  21.055  0.00  0.00    +0.000 C 
ATOM      2  C   UNL     1       2.124   6.847  20.262  0.00  0.00    +0.000 C 
ATOM      3  C   UNL     1       2.183   7.176  18.775  0.00  0.00    +0.000 C 
ATOM      4  C   UNL     1       2.851   6.005  18.062  0.00  0.00    +0.000 C 
ATOM      5  C   UNL     1       2.226   4.711  18.513  0.00  0.00    +0.000 A 
ATOM      6  C   UNL     1       2.397   3.548  17.745  0.00  0.00    +0.000 A 
ATOM      7  C   UNL     1       1.794   2.352  18.130  0.00  0.00    +0.000 A 
ATOM      8  C   UNL     1       1.012   2.311  19.284  0.00  0.00    +0.000 A 
ATOM      9  C   UNL     1       0.844   3.461  20.058  0.00  0.00    +0.000 A 
ATOM     10  C   UNL     1       1.460   4.655  19.685  0.00  0.00    +0.000 A 
ATOM     11  O   UNL     1       1.237   5.742  20.497  0.00  0.00    +0.000 OA
ENDROOT
BRANCH   4  12
ATOM     12  N   UNL     1       4.286   5.975  18.317  0.00  0.00    +0.000 N 
ATOM     13  C   UNL     1       5.198   6.326  17.341  0.00  0.00    +0.000 C 
ATOM     14  O   UNL     1       4.818   6.661  16.211  0.00  0.00    +0.000 OA
ATOM     15  H   UNL     1       4.591   5.807  19.267  0.00  0.00    +0.000 HD
BRANCH  13  16
ATOM     16  C   UNL     1       6.708   6.227  17.753  0.00  0.00    +0.000 C 
ATOM     17  C   UNL     1       7.023   5.604  19.157  0.00  0.00    +0.000 C 
ATOM     18  C   UNL     1       8.169   4.808  18.506  0.00  0.00    +0.000 C 
ATOM     19  C   UNL     1       7.455   4.986  17.158  0.00  0.00    +0.000 C 
BRANCH  16  20
ATOM     20  C   UNL     1       7.353   7.502  17.500  0.00  0.00    +0.000 C 
ATOM     21  N   UNL     1       7.894   8.513  17.323  0.00  0.00    +0.000 NA
ENDBRANCH  16  20
ENDBRANCH  13  16
ENDBRANCH   4  12
TORSDOF 3
ENDMDL
MODEL 5
REMARK VINA RESULT:      -6.9      1.211      1.676
REMARK  Name = 
REMARK  4 active torsions:
REMARK  status: ('A' for Active; 'I' for Inactive)
REMARK    1  A    between atoms: C_1  and  C_2
REMARK    2  A    between atoms: C_4  and  N_5
REMARK    3  A    between atoms: C_6  and  C_8
REMARK    4  A    between atoms: C_8  and  C_9
REMARK                            x       y       z     vdW  Elec       q    Type
REMARK                         _______ _______ _______ _____ _____    ______ ____
ROOT
ATOM      1  C   UNL     1       8.199   7.847  18.340  0.00  0.00    +0.000 C 
ATOM      2  C   UNL     1       7.322   6.747  17.753  0.00  0.00    +0.000 C 
ATOM      3  C   UNL     1       7.552   5.434  18.492  0.00  0.00    +0.000 C 
ATOM      4  C   UNL     1       6.512   4.432  18.001  0.00  0.00    +0.000 C 
ATOM      5  C   UNL     1       6.468   4.440  16.496  0.00  0.00    +0.000 A 
ATOM      6  C   UNL     1       5.881   3.365  15.809  0.00  0.00    +0.000 A 
ATOM      7  C   UNL     1       5.867   3.340  14.416  0.00  0.00    +0.000 A 
ATOM      8  C   UNL     1       6.440   4.389  13.699  0.00  0.00    +0.000 A 
ATOM      9  C   UNL     1       7.018   5.467  14.375  0.00  0.00    +0.000 A 
ATOM     10  C   UNL     1       7.019   5.503  15.768  0.00  0.00    +0.000 A 
ATOM     11  O   UNL     1       7.615   6.595  16.355  0.00  0.00    +0.000 OA
ENDROOT
BRANCH   4  12
ATOM     12  N   UNL     1       5.189   4.733  18.536  0.00  0.00    +0.000 N 
ATOM     13  C   UNL     1       4.543   3.862  19.391  0.00  0.00    +0.000 C 
ATOM     14  O   UNL     1       5.067   2.788  19.716  0.00  0.00    +0.000 OA
ATOM     15  H   UNL     1       4.809   5.654  18.358  0.00  0.00    +0.000 HD
BRANCH  13  16
ATOM     16  C   UNL     1       3.119   4.310  19.870  0.00  0.00    +0.000 C 
ATOM     17  C   UNL     1       2.860   5.851  19.989  0.00  0.00    +0.000 C 
ATOM     18  C   UNL     1       1.488   5.636  19.326  0.00  0.00    +0.000 C 
ATOM     19  C   UNL     1       2.038   4.329  18.736  0.00  0.00    +0.000 C 
BRANCH  16  20
ATOM     20  C   UNL     1       2.750   3.543  21.046  0.00  0.00    +0.000 C 
ATOM     21  N   UNL     1       2.423   2.924  21.971  0.00  0.00    +0.000 NA
ENDBRANCH  16  20
ENDBRANCH  13  16
ENDBRANCH   4  12
TORSDOF 3
ENDMDL
MODEL 6
REMARK VINA RESULT:      -6.5      1.276      1.656
REMARK  Name = 
REMARK  4 active torsions:
REMARK  status: ('A' for Active; 'I' for Inactive)
REMARK    1  A    between atoms: C_1  and  C_2
REMARK    2  A    between atoms: C_4  and  N_5
REMARK    3  A    between atoms: C_6  and  C_8
REMARK    4  A    between atoms: C_8  and  C_9
REMARK                            x       y       z     vdW  Elec       q    Type
REMARK                         _______ _______ _______ _____ _____    ______ ____
ROOT
ATOM      1  C   UNL     1       7.984   7.384  18.183  0.00  0.00    +0.000 C 
ATOM      2  C   UNL     1       7.207   6.393  17.326  0.00  0.00    +0.000 C 
ATOM      3  C   UNL     1       7.299   4.991  17.918  0.00  0.00    +0.000 C 
ATOM      4  C   UNL     1       6.346   4.090  17.140  0.00  0.00    +0.000 C 
ATOM      5  C   UNL     1       6.553   4.286  15.662  0.00  0.00    +0.000 A 
ATOM      6  C   UNL     1       6.079   3.323  14.757  0.00  0.00    +0.000 A 
ATOM      7  C   UNL     1       6.296   3.472  13.389  0.00  0.00    +0.000 A 
ATOM      8  C   UNL     1       6.990   4.584  12.915  0.00  0.00    +0.000 A 
ATOM      9  C   UNL     1       7.457   5.551  13.808  0.00  0.00    +0.000 A 
ATOM     10  C   UNL     1       7.227   5.414  15.176  0.00  0.00    +0.000 A 
ATOM     11  O   UNL     1       7.726   6.406  15.986  0.00  0.00    +0.000 OA
ENDROOT
BRANCH   4  12
ATOM     12  N   UNL     1       4.955   4.362  17.485  0.00  0.00    +0.000 N 
ATOM     13  C   UNL     1       4.391   3.867  18.644  0.00  0.00    +0.000 C 
ATOM     14  O   UNL     1       5.052   3.160  19.418  0.00  0.00    +0.000 OA
ATOM     15  H   UNL     1       4.450   5.024  16.911  0.00  0.00    +0.000 HD
BRANCH  13  16
ATOM     16  C   UNL     1       2.882   4.224  18.873  0.00  0.00    +0.000 C 
ATOM     17  C   UNL     1       2.320   5.466  18.099  0.00  0.00    +0.000 C 
ATOM     18  C   UNL     1       1.057   4.648  17.776  0.00  0.00    +0.000 C 
ATOM     19  C   UNL     1       1.885   3.376  18.012  0.00  0.00    +0.000 C 
BRANCH  16  20
ATOM     20  C   UNL     1       2.604   4.224  20.298  0.00  0.00    +0.000 C 
ATOM     21  N   UNL     1       2.347   4.230  21.429  0.00  0.00    +0.000 NA
ENDBRANCH  16  20
ENDBRANCH  13  16
ENDBRANCH   4  12
TORSDOF 3
ENDMDL
MODEL 7
REMARK VINA RESULT:      -6.4      6.572      9.231
REMARK  Name = 
REMARK  4 active torsions:
REMARK  status: ('A' for Active; 'I' for Inactive)
REMARK    1  A    between atoms: C_1  and  C_2
REMARK    2  A    between atoms: C_4  and  N_5
REMARK    3  A    between atoms: C_6  and  C_8
REMARK    4  A    between atoms: C_8  and  C_9
REMARK                            x       y       z     vdW  Elec       q    Type
REMARK                         _______ _______ _______ _____ _____    ______ ____
ROOT
ATOM      1  C   UNL     1       2.791   8.000  17.844  0.00  0.00    +0.000 C 
ATOM      2  C   UNL     1       1.683   8.714  18.607  0.00  0.00    +0.000 C 
ATOM      3  C   UNL     1       1.728  10.212  18.331  0.00  0.00    +0.000 C 
ATOM      4  C   UNL     1       0.485  10.841  18.954  0.00  0.00    +0.000 C 
ATOM      5  C   UNL     1       0.321  10.351  20.368  0.00  0.00    +0.000 A 
ATOM      6  C   UNL     1      -0.507  11.053  21.258  0.00  0.00    +0.000 A 
ATOM      7  C   UNL     1      -0.639  10.634  22.580  0.00  0.00    +0.000 A 
ATOM      8  C   UNL     1       0.057   9.509  23.023  0.00  0.00    +0.000 A 
ATOM      9  C   UNL     1       0.875   8.800  22.141  0.00  0.00    +0.000 A 
ATOM     10  C   UNL     1       0.997   9.207  20.813  0.00  0.00    +0.000 A 
ATOM     11  O   UNL     1       1.828   8.458  20.014  0.00  0.00    +0.000 OA
ENDROOT
BRANCH   4  12
ATOM     12  N   UNL     1      -0.712  10.531  18.181  0.00  0.00    +0.000 N 
ATOM     13  C   UNL     1      -1.646  11.503  17.881  0.00  0.00    +0.000 C 
ATOM     14  O   UNL     1      -1.499  12.667  18.277  0.00  0.00    +0.000 OA
ATOM     15  H   UNL     1      -0.779   9.610  17.768  0.00  0.00    +0.000 HD
BRANCH  13  16
ATOM     16  C   UNL     1      -2.891  11.019  17.060  0.00  0.00    +0.000 C 
ATOM     17  C   UNL     1      -2.829  11.195  15.503  0.00  0.00    +0.000 C 
ATOM     18  C   UNL     1      -3.420   9.781  15.356  0.00  0.00    +0.000 C 
ATOM     19  C   UNL     1      -2.912   9.479  16.774  0.00  0.00    +0.000 C 
BRANCH  16  20
ATOM     20  C   UNL     1      -4.098  11.538  17.678  0.00  0.00    +0.000 C 
ATOM     21  N   UNL     1      -5.064  11.922  18.192  0.00  0.00    +0.000 NA
ENDBRANCH  16  20
ENDBRANCH  13  16
ENDBRANCH   4  12
TORSDOF 3
ENDMDL
MODEL 8
REMARK VINA RESULT:      -6.2      2.954      5.307
REMARK  Name = 
REMARK  4 active torsions:
REMARK  status: ('A' for Active; 'I' for Inactive)
REMARK    1  A    between atoms: C_1  and  C_2
REMARK    2  A    between atoms: C_4  and  N_5
REMARK    3  A    between atoms: C_6  and  C_8
REMARK    4  A    between atoms: C_8  and  C_9
REMARK                            x       y       z     vdW  Elec       q    Type
REMARK                         _______ _______ _______ _____ _____    ______ ____
ROOT
ATOM      1  C   UNL     1       5.347   5.656  16.555  0.00  0.00    +0.000 C 
ATOM      2  C   UNL     1       4.110   5.560  17.438  0.00  0.00    +0.000 C 
ATOM      3  C   UNL     1       4.460   5.902  18.882  0.00  0.00    +0.000 C 
ATOM      4  C   UNL     1       3.159   5.987  19.673  0.00  0.00    +0.000 C 
ATOM      5  C   UNL     1       2.306   4.780  19.382  0.00  0.00    +0.000 A 
ATOM      6  C   UNL     1       1.256   4.441  20.250  0.00  0.00    +0.000 A 
ATOM      7  C   UNL     1       0.483   3.306  20.014  0.00  0.00    +0.000 A 
ATOM      8  C   UNL     1       0.754   2.501  18.908  0.00  0.00    +0.000 A 
ATOM      9  C   UNL     1       1.791   2.837  18.034  0.00  0.00    +0.000 A 
ATOM     10  C   UNL     1       2.556   3.981  18.258  0.00  0.00    +0.000 A 
ATOM     11  O   UNL     1       3.562   4.235  17.355  0.00  0.00    +0.000 OA
ENDROOT
BRANCH   4  12
ATOM     12  N   UNL     1       2.420   7.203  19.354  0.00  0.00    +0.000 N 
ATOM     13  C   UNL     1       1.784   7.938  20.335  0.00  0.00    +0.000 C 
ATOM     14  O   UNL     1       1.811   7.571  21.518  0.00  0.00    +0.000 OA
ATOM     15  H   UNL     1       2.488   7.559  18.409  0.00  0.00    +0.000 HD
BRANCH  13  16
ATOM     16  C   UNL     1       1.013   9.210  19.841  0.00  0.00    +0.000 C 
ATOM     17  C   UNL     1      -0.546   9.207  20.009  0.00  0.00    +0.000 C 
ATOM     18  C   UNL     1      -0.459  10.662  20.504  0.00  0.00    +0.000 C 
ATOM     19  C   UNL     1       1.010  10.396  20.864  0.00  0.00    +0.000 C 
BRANCH  16  20
ATOM     20  C   UNL     1       1.476   9.559  18.510  0.00  0.00    +0.000 C 
ATOM     21  N   UNL     1       1.877   9.848  17.461  0.00  0.00    +0.000 NA
ENDBRANCH  16  20
ENDBRANCH  13  16
ENDBRANCH   4  12
TORSDOF 3
ENDMDL
MODEL 9
REMARK VINA RESULT:      -6.2      2.215      5.847
REMARK  Name = 
REMARK  4 active torsions:
REMARK  status: ('A' for Active; 'I' for Inactive)
REMARK    1  A    between atoms: C_1  and  C_2
REMARK    2  A    between atoms: C_4  and  N_5
REMARK    3  A    between atoms: C_6  and  C_8
REMARK    4  A    between atoms: C_8  and  C_9
REMARK                            x       y       z     vdW  Elec       q    Type
REMARK                         _______ _______ _______ _____ _____    ______ ____
ROOT
ATOM      1  C   UNL     1       7.452   5.559  19.404  0.00  0.00    +0.000 C 
ATOM      2  C   UNL     1       6.317   4.874  18.653  0.00  0.00    +0.000 C 
ATOM      3  C   UNL     1       5.454   5.907  17.938  0.00  0.00    +0.000 C 
ATOM      4  C   UNL     1       4.467   5.158  17.048  0.00  0.00    +0.000 C 
ATOM      5  C   UNL     1       3.808   4.056  17.835  0.00  0.00    +0.000 A 
ATOM      6  C   UNL     1       2.616   3.480  17.366  0.00  0.00    +0.000 A 
ATOM      7  C   UNL     1       1.975   2.486  18.102  0.00  0.00    +0.000 A 
ATOM      8  C   UNL     1       2.519   2.060  19.313  0.00  0.00    +0.000 A 
ATOM      9  C   UNL     1       3.710   2.622  19.781  0.00  0.00    +0.000 A 
ATOM     10  C   UNL     1       4.363   3.605  19.040  0.00  0.00    +0.000 A 
ATOM     11  O   UNL     1       5.524   4.110  19.576  0.00  0.00    +0.000 OA
ENDROOT
BRANCH   4  12
ATOM     12  N   UNL     1       5.127   4.600  15.873  0.00  0.00    +0.000 N 
ATOM     13  C   UNL     1       5.552   5.407  14.836  0.00  0.00    +0.000 C 
ATOM     14  O   UNL     1       5.367   6.631  14.869  0.00  0.00    +0.000 OA
ATOM     15  H   UNL     1       5.373   3.619  15.894  0.00  0.00    +0.000 HD
BRANCH  13  16
ATOM     16  C   UNL     1       6.226   4.666  13.630  0.00  0.00    +0.000 C 
ATOM     17  C   UNL     1       6.231   3.098  13.671  0.00  0.00    +0.000 C 
ATOM     18  C   UNL     1       5.846   3.094  12.181  0.00  0.00    +0.000 C 
ATOM     19  C   UNL     1       5.306   4.519  12.371  0.00  0.00    +0.000 C 
BRANCH  16  20
ATOM     20  C   UNL     1       7.521   5.266  13.368  0.00  0.00    +0.000 C 
ATOM     21  N   UNL     1       8.544   5.778  13.172  0.00  0.00    +0.000 NA
ENDBRANCH  16  20
ENDBRANCH  13  16
ENDBRANCH   4  12
TORSDOF 3
ENDMDL
