MODEL 1
REMARK VINA RESULT:     -10.2      0.000      0.000
REMARK  Name = 
REMARK  3 active torsions:
REMARK  status: ('A' for Active; 'I' for Inactive)
REMARK    1  A    between atoms: C_6  and  C_7
REMARK    2  A    between atoms: C_12  and  C_13
REMARK    3  A    between atoms: C_18  and  C_19
REMARK                            x       y       z     vdW  Elec       q    Type
REMARK                         _______ _______ _______ _____ _____    ______ ____
ROOT
ATOM      1  C   UNL     1       4.378   5.572  17.519  0.00  0.00    +0.000 A 
ATOM      2  C   UNL     1       4.202   4.621  18.546  0.00  0.00    +0.000 A 
ATOM      3  C   UNL     1       3.411   4.860  19.678  0.00  0.00    +0.000 A 
ATOM      4  C   UNL     1       2.810   6.114  19.753  0.00  0.00    +0.000 A 
ATOM      5  N   UNL     1       1.996   6.689  20.690  0.00  0.00    +0.000 N 
ATOM      6  C   UNL     1       1.689   7.969  20.278  0.00  0.00    +0.000 A 
ATOM      7  N   UNL     1       2.243   8.223  19.103  0.00  0.00    +0.000 NA
ATOM      8  C   UNL     1       2.951   7.091  18.781  0.00  0.00    +0.000 A 
ATOM      9  C   UNL     1       3.738   6.821  17.652  0.00  0.00    +0.000 A 
ATOM     10  H   UNL     1       1.661   6.245  21.536  0.00  0.00    +0.000 HD
ENDROOT
BRANCH   1  16
ATOM     11  C   UNL     1       6.976   3.629  11.843  0.00  0.00    +0.000 A 
ATOM     12  C   UNL     1       5.654   3.199  11.916  0.00  0.00    +0.000 A 
ATOM     13  C   UNL     1       4.884   3.505  13.038  0.00  0.00    +0.000 A 
ATOM     14  C   UNL     1       5.431   4.241  14.102  0.00  0.00    +0.000 A 
ATOM     15  C   UNL     1       4.665   4.554  15.239  0.00  0.00    +0.000 A 
ATOM     16  C   UNL     1       5.202   5.265  16.327  0.00  0.00    +0.000 A 
ATOM     17  C   UNL     1       6.542   5.676  16.231  0.00  0.00    +0.000 A 
ATOM     18  C   UNL     1       7.313   5.393  15.100  0.00  0.00    +0.000 A 
ATOM     19  C   UNL     1       6.772   4.671  14.029  0.00  0.00    +0.000 A 
ATOM     20  C   UNL     1       7.534   4.362  12.891  0.00  0.00    +0.000 A 
ENDBRANCH   1  16
BRANCH   6  21
ATOM     21  C   UNL     1       0.841   8.871  21.053  0.00  0.00    +0.000 A 
ATOM     22  C   UNL     1       0.772   8.731  22.449  0.00  0.00    +0.000 A 
ATOM     23  C   UNL     1      -0.010   9.579  23.242  0.00  0.00    +0.000 A 
ATOM     24  C   UNL     1      -0.733  10.562  22.568  0.00  0.00    +0.000 A 
ATOM     25  N   UNL     1      -1.588  11.539  23.001  0.00  0.00    +0.000 N 
ATOM     26  C   UNL     1      -2.035  12.246  21.905  0.00  0.00    +0.000 A 
ATOM     27  N   UNL     1      -1.524  11.749  20.792  0.00  0.00    +0.000 NA
ATOM     28  C   UNL     1      -0.708  10.723  21.190  0.00  0.00    +0.000 A 
ATOM     29  C   UNL     1       0.090   9.873  20.414  0.00  0.00    +0.000 A 
ATOM     30  H   UNL     1      -1.858  11.704  23.963  0.00  0.00    +0.000 HD
BRANCH  26  31
ATOM     31  C   UNL     1      -2.962  13.371  21.998  0.00  0.00    +0.000 A 
ATOM     32  C   UNL     1      -2.670  14.567  21.321  0.00  0.00    +0.000 A 
ATOM     33  C   UNL     1      -3.523  15.677  21.374  0.00  0.00    +0.000 A 
ATOM     34  C   UNL     1      -4.675  15.537  22.149  0.00  0.00    +0.000 A 
ATOM     35  N   UNL     1      -5.706  16.386  22.440  0.00  0.00    +0.000 N 
ATOM     36  C   UNL     1      -6.575  15.733  23.268  0.00  0.00    +0.000 A 
ATOM     37  N   UNL     1      -6.174  14.510  23.525  0.00  0.00    +0.000 NA
ATOM     38  C   UNL     1      -4.992  14.372  22.840  0.00  0.00    +0.000 A 
ATOM     39  C   UNL     1      -4.133  13.272  22.769  0.00  0.00    +0.000 A 
ATOM     40  H   UNL     1      -5.811  17.334  22.111  0.00  0.00    +0.000 HD
ENDBRANCH  26  31
ENDBRANCH   6  21
TORSDOF 3
ENDMDL
MODEL 2
REMARK VINA RESULT:      -9.8      1.436      1.441
REMARK  Name = 
REMARK  3 active torsions:
REMARK  status: ('A' for Active; 'I' for Inactive)
REMARK    1  A    between atoms: C_6  and  C_7
REMARK    2  A    between atoms: C_12  and  C_13
REMARK    3  A    between atoms: C_18  and  C_19
REMARK                            x       y       z     vdW  Elec       q    Type
REMARK                         _______ _______ _______ _____ _____    ______ ____
ROOT
ATOM      1  C   UNL     1       4.338   5.551  17.515  0.00  0.00    +0.000 A 
ATOM      2  C   UNL     1       4.092   4.574  18.504  0.00  0.00    +0.000 A 
ATOM      3  C   UNL     1       3.284   4.811  19.624  0.00  0.00    +0.000 A 
ATOM      4  C   UNL     1       2.738   6.088  19.728  0.00  0.00    +0.000 A 
ATOM      5  N   UNL     1       1.927   6.668  20.664  0.00  0.00    +0.000 N 
ATOM      6  C   UNL     1       1.689   7.974  20.290  0.00  0.00    +0.000 A 
ATOM      7  N   UNL     1       2.284   8.242  19.139  0.00  0.00    +0.000 NA
ATOM      8  C   UNL     1       2.949   7.091  18.794  0.00  0.00    +0.000 A 
ATOM      9  C   UNL     1       3.752   6.823  17.677  0.00  0.00    +0.000 A 
ATOM     10  H   UNL     1       1.551   6.211  21.485  0.00  0.00    +0.000 HD
ENDROOT
BRANCH   1  16
ATOM     11  C   UNL     1       7.013   3.621  11.870  0.00  0.00    +0.000 A 
ATOM     12  C   UNL     1       5.691   3.188  11.925  0.00  0.00    +0.000 A 
ATOM     13  C   UNL     1       4.906   3.492  13.038  0.00  0.00    +0.000 A 
ATOM     14  C   UNL     1       5.438   4.226  14.110  0.00  0.00    +0.000 A 
ATOM     15  C   UNL     1       4.657   4.537  15.238  0.00  0.00    +0.000 A 
ATOM     16  C   UNL     1       5.177   5.247  16.333  0.00  0.00    +0.000 A 
ATOM     17  C   UNL     1       6.518   5.660  16.256  0.00  0.00    +0.000 A 
ATOM     18  C   UNL     1       7.304   5.380  15.134  0.00  0.00    +0.000 A 
ATOM     19  C   UNL     1       6.779   4.659  14.056  0.00  0.00    +0.000 A 
ATOM     20  C   UNL     1       7.556   4.353  12.927  0.00  0.00    +0.000 A 
ENDBRANCH   1  16
BRANCH   6  21
ATOM     21  C   UNL     1       0.863   8.887  21.075  0.00  0.00    +0.000 A 
ATOM     22  C   UNL     1       0.084   8.384  22.131  0.00  0.00    +0.000 A 
ATOM     23  C   UNL     1      -0.712   9.217  22.927  0.00  0.00    +0.000 A 
ATOM     24  C   UNL     1      -0.704  10.572  22.603  0.00  0.00    +0.000 A 
ATOM     25  N   UNL     1      -1.347  11.654  23.142  0.00  0.00    +0.000 N 
ATOM     26  C   UNL     1      -0.982  12.778  22.433  0.00  0.00    +0.000 A 
ATOM     27  N   UNL     1      -0.155  12.460  21.452  0.00  0.00    +0.000 NA
ATOM     28  C   UNL     1       0.036  11.108  21.559  0.00  0.00    +0.000 A 
ATOM     29  C   UNL     1       0.836  10.261  20.781  0.00  0.00    +0.000 A 
ATOM     30  H   UNL     1      -1.995  11.628  23.920  0.00  0.00    +0.000 HD
BRANCH  26  31
ATOM     31  C   UNL     1      -1.478  14.118  22.739  0.00  0.00    +0.000 A 
ATOM     32  C   UNL     1      -1.062  15.207  21.954  0.00  0.00    +0.000 A 
ATOM     33  C   UNL     1      -1.506  16.512  22.201  0.00  0.00    +0.000 A 
ATOM     34  C   UNL     1      -2.375  16.677  23.280  0.00  0.00    +0.000 A 
ATOM     35  N   UNL     1      -2.989  17.775  23.817  0.00  0.00    +0.000 N 
ATOM     36  C   UNL     1      -3.733  17.366  24.887  0.00  0.00    +0.000 A 
ATOM     37  N   UNL     1      -3.644  16.069  25.073  0.00  0.00    +0.000 NA
ATOM     38  C   UNL     1      -2.802  15.625  24.084  0.00  0.00    +0.000 A 
ATOM     39  C   UNL     1      -2.354  14.328  23.818  0.00  0.00    +0.000 A 
ATOM     40  H   UNL     1      -2.906  18.726  23.490  0.00  0.00    +0.000 HD
ENDBRANCH  26  31
ENDBRANCH   6  21
TORSDOF 3
ENDMDL
MODEL 3
REMARK VINA RESULT:      -9.6      1.820      2.237
REMARK  Name = 
REMARK  3 active torsions:
REMARK  status: ('A' for Active; 'I' for Inactive)
REMARK    1  A    between atoms: C_6  and  C_7
REMARK    2  A    between atoms: C_12  and  C_13
REMARK    3  A    between atoms: C_18  and  C_19
REMARK                            x       y       z     vdW  Elec       q    Type
REMARK                         _______ _______ _______ _____ _____    ______ ____
ROOT
ATOM      1  C   UNL     1       4.480   5.400  17.343  0.00  0.00    +0.000 A 
ATOM      2  C   UNL     1       4.341   4.455  18.383  0.00  0.00    +0.000 A 
ATOM      3  C   UNL     1       3.577   4.695  19.533  0.00  0.00    +0.000 A 
ATOM      4  C   UNL     1       2.963   5.941  19.613  0.00  0.00    +0.000 A 
ATOM      5  N   UNL     1       2.166   6.515  20.566  0.00  0.00    +0.000 N 
ATOM      6  C   UNL     1       1.835   7.788  20.152  0.00  0.00    +0.000 A 
ATOM      7  N   UNL     1       2.355   8.038  18.961  0.00  0.00    +0.000 NA
ATOM      8  C   UNL     1       3.068   6.913  18.630  0.00  0.00    +0.000 A 
ATOM      9  C   UNL     1       3.829   6.642  17.483  0.00  0.00    +0.000 A 
ATOM     10  H   UNL     1       1.859   6.074  21.423  0.00  0.00    +0.000 HD
ENDROOT
BRANCH   1  16
ATOM     11  C   UNL     1       6.934   3.497  11.590  0.00  0.00    +0.000 A 
ATOM     12  C   UNL     1       5.601   3.106  11.674  0.00  0.00    +0.000 A 
ATOM     13  C   UNL     1       4.857   3.412  12.814  0.00  0.00    +0.000 A 
ATOM     14  C   UNL     1       5.442   4.108  13.884  0.00  0.00    +0.000 A 
ATOM     15  C   UNL     1       4.703   4.422  15.040  0.00  0.00    +0.000 A 
ATOM     16  C   UNL     1       5.276   5.093  16.133  0.00  0.00    +0.000 A 
ATOM     17  C   UNL     1       6.627   5.464  16.026  0.00  0.00    +0.000 A 
ATOM     18  C   UNL     1       7.373   5.181  14.877  0.00  0.00    +0.000 A 
ATOM     19  C   UNL     1       6.795   4.498  13.801  0.00  0.00    +0.000 A 
ATOM     20  C   UNL     1       7.530   4.190  12.645  0.00  0.00    +0.000 A 
ENDBRANCH   1  16
BRANCH   6  21
ATOM     21  C   UNL     1       0.996   8.686  20.941  0.00  0.00    +0.000 A 
ATOM     22  C   UNL     1       0.031   8.150  21.810  0.00  0.00    +0.000 A 
ATOM     23  C   UNL     1      -0.787   8.964  22.603  0.00  0.00    +0.000 A 
ATOM     24  C   UNL     1      -0.604  10.339  22.469  0.00  0.00    +0.000 A 
ATOM     25  N   UNL     1      -1.212  11.413  23.063  0.00  0.00    +0.000 N 
ATOM     26  C   UNL     1      -0.645  12.567  22.564  0.00  0.00    +0.000 A 
ATOM     27  N   UNL     1       0.278  12.278  21.664  0.00  0.00    +0.000 NA
ATOM     28  C   UNL     1       0.323  10.911  21.610  0.00  0.00    +0.000 A 
ATOM     29  C   UNL     1       1.141  10.080  20.834  0.00  0.00    +0.000 A 
ATOM     30  H   UNL     1      -1.963  11.366  23.741  0.00  0.00    +0.000 HD
BRANCH  26  31
ATOM     31  C   UNL     1      -1.051  13.906  22.983  0.00  0.00    +0.000 A 
ATOM     32  C   UNL     1      -2.129  14.057  23.872  0.00  0.00    +0.000 A 
ATOM     33  C   UNL     1      -2.561  15.317  24.307  0.00  0.00    +0.000 A 
ATOM     34  C   UNL     1      -1.871  16.418  23.799  0.00  0.00    +0.000 A 
ATOM     35  N   UNL     1      -2.012  17.766  23.982  0.00  0.00    +0.000 N 
ATOM     36  C   UNL     1      -1.067  18.399  23.226  0.00  0.00    +0.000 A 
ATOM     37  N   UNL     1      -0.317  17.545  22.569  0.00  0.00    +0.000 NA
ATOM     38  C   UNL     1      -0.806  16.308  22.912  0.00  0.00    +0.000 A 
ATOM     39  C   UNL     1      -0.383  15.042  22.494  0.00  0.00    +0.000 A 
ATOM     40  H   UNL     1      -2.697  18.222  24.566  0.00  0.00    +0.000 HD
ENDBRANCH  26  31
ENDBRANCH   6  21
TORSDOF 3
ENDMDL
MODEL 4
REMARK VINA RESULT:      -9.1      2.692     13.379
REMARK  Name = 
REMARK  3 active torsions:
REMARK  status: ('A' for Active; 'I' for Inactive)
REMARK    1  A    between atoms: C_6  and  C_7
REMARK    2  A    between atoms: C_12  and  C_13
REMARK    3  A    between atoms: C_18  and  C_19
REMARK                            x       y       z     vdW  Elec       q    Type
REMARK                         _______ _______ _______ _____ _____    ______ ____
ROOT
ATOM      1  C   UNL     1      -1.154  11.409  22.120  0.00  0.00    +0.000 A 
ATOM      2  C   UNL     1      -0.897  10.671  23.296  0.00  0.00    +0.000 A 
ATOM      3  C   UNL     1      -0.098   9.520  23.313  0.00  0.00    +0.000 A 
ATOM      4  C   UNL     1       0.426   9.118  22.087  0.00  0.00    +0.000 A 
ATOM      5  N   UNL     1       1.223   8.066  21.728  0.00  0.00    +0.000 N 
ATOM      6  C   UNL     1       1.440   8.125  20.367  0.00  0.00    +0.000 A 
ATOM      7  N   UNL     1       0.846   9.188  19.848  0.00  0.00    +0.000 NA
ATOM      8  C   UNL     1       0.203   9.796  20.898  0.00  0.00    +0.000 A 
ATOM      9  C   UNL     1      -0.590  10.952  20.912  0.00  0.00    +0.000 A 
ATOM     10  H   UNL     1       1.603   7.370  22.357  0.00  0.00    +0.000 HD
ENDROOT
BRANCH   1  16
ATOM     11  C   UNL     1      -4.663  16.745  23.523  0.00  0.00    +0.000 A 
ATOM     12  C   UNL     1      -4.179  16.187  24.703  0.00  0.00    +0.000 A 
ATOM     13  C   UNL     1      -3.389  15.039  24.657  0.00  0.00    +0.000 A 
ATOM     14  C   UNL     1      -3.078  14.433  23.430  0.00  0.00    +0.000 A 
ATOM     15  C   UNL     1      -2.283  13.274  23.370  0.00  0.00    +0.000 A 
ATOM     16  C   UNL     1      -1.983  12.636  22.154  0.00  0.00    +0.000 A 
ATOM     17  C   UNL     1      -2.494  13.213  20.980  0.00  0.00    +0.000 A 
ATOM     18  C   UNL     1      -3.268  14.377  21.016  0.00  0.00    +0.000 A 
ATOM     19  C   UNL     1      -3.573  14.995  22.234  0.00  0.00    +0.000 A 
ATOM     20  C   UNL     1      -4.361  16.155  22.294  0.00  0.00    +0.000 A 
ENDBRANCH   1  16
BRANCH   6  21
ATOM     21  C   UNL     1       2.248   7.143  19.648  0.00  0.00    +0.000 A 
ATOM     22  C   UNL     1       2.448   5.868  20.204  0.00  0.00    +0.000 A 
ATOM     23  C   UNL     1       3.197   4.883  19.550  0.00  0.00    +0.000 A 
ATOM     24  C   UNL     1       3.750   5.242  18.323  0.00  0.00    +0.000 A 
ATOM     25  N   UNL     1       4.527   4.559  17.426  0.00  0.00    +0.000 N 
ATOM     26  C   UNL     1       4.802   5.393  16.362  0.00  0.00    +0.000 A 
ATOM     27  N   UNL     1       4.257   6.582  16.552  0.00  0.00    +0.000 NA
ATOM     28  C   UNL     1       3.594   6.494  17.746  0.00  0.00    +0.000 A 
ATOM     29  C   UNL     1       2.830   7.463  18.410  0.00  0.00    +0.000 A 
ATOM     30  H   UNL     1       4.857   3.608  17.535  0.00  0.00    +0.000 HD
BRANCH  26  31
ATOM     31  C   UNL     1       5.607   4.988  15.212  0.00  0.00    +0.000 A 
ATOM     32  C   UNL     1       6.884   5.546  15.031  0.00  0.00    +0.000 A 
ATOM     33  C   UNL     1       7.700   5.195  13.947  0.00  0.00    +0.000 A 
ATOM     34  C   UNL     1       7.170   4.270  13.047  0.00  0.00    +0.000 A 
ATOM     35  N   UNL     1       7.655   3.713  11.896  0.00  0.00    +0.000 N 
ATOM     36  C   UNL     1       6.706   2.866  11.399  0.00  0.00    +0.000 A 
ATOM     37  N   UNL     1       5.637   2.834  12.161  0.00  0.00    +0.000 NA
ATOM     38  C   UNL     1       5.908   3.704  13.189  0.00  0.00    +0.000 A 
ATOM     39  C   UNL     1       5.110   4.060  14.281  0.00  0.00    +0.000 A 
ATOM     40  H   UNL     1       8.555   3.896  11.476  0.00  0.00    +0.000 HD
ENDBRANCH  26  31
ENDBRANCH   6  21
TORSDOF 3
ENDMDL
MODEL 5
REMARK VINA RESULT:      -8.9      2.243     13.779
REMARK  Name = 
REMARK  3 active torsions:
REMARK  status: ('A' for Active; 'I' for Inactive)
REMARK    1  A    between atoms: C_6  and  C_7
REMARK    2  A    between atoms: C_12  and  C_13
REMARK    3  A    between atoms: C_18  and  C_19
REMARK                            x       y       z     vdW  Elec       q    Type
REMARK                         _______ _______ _______ _____ _____    ______ ____
ROOT
ATOM      1  C   UNL     1      -2.773  14.810  21.400  0.00  0.00    +0.000 A 
ATOM      2  C   UNL     1      -1.867  15.399  20.492  0.00  0.00    +0.000 A 
ATOM      3  C   UNL     1      -0.830  14.683  19.878  0.00  0.00    +0.000 A 
ATOM      4  C   UNL     1      -0.720  13.340  20.228  0.00  0.00    +0.000 A 
ATOM      5  N   UNL     1       0.152  12.358  19.844  0.00  0.00    +0.000 N 
ATOM      6  C   UNL     1      -0.178  11.196  20.508  0.00  0.00    +0.000 A 
ATOM      7  N   UNL     1      -1.244  11.383  21.270  0.00  0.00    +0.000 NA
ATOM      8  C   UNL     1      -1.573  12.707  21.119  0.00  0.00    +0.000 A 
ATOM      9  C   UNL     1      -2.610  13.443  21.709  0.00  0.00    +0.000 A 
ATOM     10  H   UNL     1       0.903  12.463  19.174  0.00  0.00    +0.000 HD
ENDROOT
BRANCH   1  16
ATOM     11  C   UNL     1      -7.892  18.600  22.873  0.00  0.00    +0.000 A 
ATOM     12  C   UNL     1      -7.722  18.571  21.492  0.00  0.00    +0.000 A 
ATOM     13  C   UNL     1      -6.692  17.814  20.934  0.00  0.00    +0.000 A 
ATOM     14  C   UNL     1      -5.817  17.082  21.752  0.00  0.00    +0.000 A 
ATOM     15  C   UNL     1      -4.774  16.316  21.202  0.00  0.00    +0.000 A 
ATOM     16  C   UNL     1      -3.870  15.598  22.005  0.00  0.00    +0.000 A 
ATOM     17  C   UNL     1      -4.058  15.655  23.396  0.00  0.00    +0.000 A 
ATOM     18  C   UNL     1      -5.102  16.393  23.962  0.00  0.00    +0.000 A 
ATOM     19  C   UNL     1      -5.986  17.117  23.152  0.00  0.00    +0.000 A 
ATOM     20  C   UNL     1      -7.032  17.877  23.701  0.00  0.00    +0.000 A 
ENDBRANCH   1  16
BRANCH   6  21
ATOM     21  C   UNL     1       0.559   9.946  20.336  0.00  0.00    +0.000 A 
ATOM     22  C   UNL     1       0.608   9.019  21.390  0.00  0.00    +0.000 A 
ATOM     23  C   UNL     1       1.284   7.798  21.273  0.00  0.00    +0.000 A 
ATOM     24  C   UNL     1       1.922   7.560  20.057  0.00  0.00    +0.000 A 
ATOM     25  N   UNL     1       2.665   6.507  19.596  0.00  0.00    +0.000 N 
ATOM     26  C   UNL     1       3.066   6.786  18.306  0.00  0.00    +0.000 A 
ATOM     27  N   UNL     1       2.633   7.978  17.934  0.00  0.00    +0.000 NA
ATOM     28  C   UNL     1       1.914   8.455  18.998  0.00  0.00    +0.000 A 
ATOM     29  C   UNL     1       1.222   9.666  19.128  0.00  0.00    +0.000 A 
ATOM     30  H   UNL     1       2.895   5.672  20.121  0.00  0.00    +0.000 HD
BRANCH  26  31
ATOM     31  C   UNL     1       3.875   5.874  17.502  0.00  0.00    +0.000 A 
ATOM     32  C   UNL     1       3.721   4.487  17.662  0.00  0.00    +0.000 A 
ATOM     33  C   UNL     1       4.470   3.566  16.918  0.00  0.00    +0.000 A 
ATOM     34  C   UNL     1       5.389   4.102  16.015  0.00  0.00    +0.000 A 
ATOM     35  N   UNL     1       6.280   3.529  15.150  0.00  0.00    +0.000 N 
ATOM     36  C   UNL     1       6.950   4.530  14.505  0.00  0.00    +0.000 A 
ATOM     37  N   UNL     1       6.543   5.716  14.894  0.00  0.00    +0.000 NA
ATOM     38  C   UNL     1       5.575   5.468  15.835  0.00  0.00    +0.000 A 
ATOM     39  C   UNL     1       4.814   6.372  16.582  0.00  0.00    +0.000 A 
ATOM     40  H   UNL     1       6.428   2.541  15.010  0.00  0.00    +0.000 HD
ENDBRANCH  26  31
ENDBRANCH   6  21
TORSDOF 3
ENDMDL
MODEL 6
REMARK VINA RESULT:      -8.6      1.945      3.443
REMARK  Name = 
REMARK  3 active torsions:
REMARK  status: ('A' for Active; 'I' for Inactive)
REMARK    1  A    between atoms: C_6  and  C_7
REMARK    2  A    between atoms: C_12  and  C_13
REMARK    3  A    between atoms: C_18  and  C_19
REMARK                            x       y       z     vdW  Elec       q    Type
REMARK                         _______ _______ _______ _____ _____    ______ ____
ROOT
ATOM      1  C   UNL     1       2.580   6.998  18.691  0.00  0.00    +0.000 A 
ATOM      2  C   UNL     1       2.200   6.665  20.009  0.00  0.00    +0.000 A 
ATOM      3  C   UNL     1       1.426   7.511  20.814  0.00  0.00    +0.000 A 
ATOM      4  C   UNL     1       1.058   8.729  20.250  0.00  0.00    +0.000 A 
ATOM      5  N   UNL     1       0.328   9.783  20.729  0.00  0.00    +0.000 N 
ATOM      6  C   UNL     1       0.272  10.757  19.755  0.00  0.00    +0.000 A 
ATOM      7  N   UNL     1       0.903  10.357  18.662  0.00  0.00    +0.000 NA
ATOM      8  C   UNL     1       1.407   9.116  18.965  0.00  0.00    +0.000 A 
ATOM      9  C   UNL     1       2.171   8.245  18.176  0.00  0.00    +0.000 A 
ATOM     10  H   UNL     1      -0.110   9.832  21.640  0.00  0.00    +0.000 HD
ENDROOT
BRANCH   1  16
ATOM     11  C   UNL     1       6.585   3.911  14.547  0.00  0.00    +0.000 A 
ATOM     12  C   UNL     1       6.745   5.286  14.404  0.00  0.00    +0.000 A 
ATOM     13  C   UNL     1       5.999   6.159  15.196  0.00  0.00    +0.000 A 
ATOM     14  C   UNL     1       5.080   5.665  16.136  0.00  0.00    +0.000 A 
ATOM     15  C   UNL     1       4.321   6.534  16.939  0.00  0.00    +0.000 A 
ATOM     16  C   UNL     1       3.376   6.061  17.866  0.00  0.00    +0.000 A 
ATOM     17  C   UNL     1       3.227   4.668  17.981  0.00  0.00    +0.000 A 
ATOM     18  C   UNL     1       3.988   3.787  17.207  0.00  0.00    +0.000 A 
ATOM     19  C   UNL     1       4.915   4.271  16.276  0.00  0.00    +0.000 A 
ATOM     20  C   UNL     1       5.677   3.403  15.478  0.00  0.00    +0.000 A 
ENDBRANCH   1  16
BRANCH   6  21
ATOM     21  C   UNL     1      -0.427  12.026  19.940  0.00  0.00    +0.000 A 
ATOM     22  C   UNL     1       0.170  13.218  19.496  0.00  0.00    +0.000 A 
ATOM     23  C   UNL     1      -0.463  14.459  19.631  0.00  0.00    +0.000 A 
ATOM     24  C   UNL     1      -1.713  14.451  20.248  0.00  0.00    +0.000 A 
ATOM     25  N   UNL     1      -2.599  15.450  20.550  0.00  0.00    +0.000 N 
ATOM     26  C   UNL     1      -3.697  14.888  21.167  0.00  0.00    +0.000 A 
ATOM     27  N   UNL     1      -3.539  13.582  21.294  0.00  0.00    +0.000 NA
ATOM     28  C   UNL     1      -2.330  13.301  20.717  0.00  0.00    +0.000 A 
ATOM     29  C   UNL     1      -1.687  12.066  20.561  0.00  0.00    +0.000 A 
ATOM     30  H   UNL     1      -2.463  16.436  20.364  0.00  0.00    +0.000 HD
BRANCH  26  31
ATOM     31  C   UNL     1      -4.847  15.665  21.623  0.00  0.00    +0.000 A 
ATOM     32  C   UNL     1      -6.087  15.508  20.981  0.00  0.00    +0.000 A 
ATOM     33  C   UNL     1      -7.223  16.226  21.376  0.00  0.00    +0.000 A 
ATOM     34  C   UNL     1      -7.054  17.118  22.435  0.00  0.00    +0.000 A 
ATOM     35  N   UNL     1      -7.909  17.977  23.070  0.00  0.00    +0.000 N 
ATOM     36  C   UNL     1      -7.210  18.631  24.045  0.00  0.00    +0.000 A 
ATOM     37  N   UNL     1      -5.956  18.245  24.085  0.00  0.00    +0.000 NA
ATOM     38  C   UNL     1      -5.841  17.306  23.089  0.00  0.00    +0.000 A 
ATOM     39  C   UNL     1      -4.719  16.576  22.686  0.00  0.00    +0.000 A 
ATOM     40  H   UNL     1      -8.886  18.114  22.857  0.00  0.00    +0.000 HD
ENDBRANCH  26  31
ENDBRANCH   6  21
TORSDOF 3
ENDMDL
MODEL 7
REMARK VINA RESULT:      -8.6      2.675     13.145
REMARK  Name = 
REMARK  3 active torsions:
REMARK  status: ('A' for Active; 'I' for Inactive)
REMARK    1  A    between atoms: C_6  and  C_7
REMARK    2  A    between atoms: C_12  and  C_13
REMARK    3  A    between atoms: C_18  and  C_19
REMARK                            x       y       z     vdW  Elec       q    Type
REMARK                         _______ _______ _______ _____ _____    ______ ____
ROOT
ATOM      1  C   UNL     1      -1.036  11.584  22.039  0.00  0.00    +0.000 A 
ATOM      2  C   UNL     1      -0.925  10.777  23.192  0.00  0.00    +0.000 A 
ATOM      3  C   UNL     1      -0.197   9.579  23.216  0.00  0.00    +0.000 A 
ATOM      4  C   UNL     1       0.409   9.205  22.020  0.00  0.00    +0.000 A 
ATOM      5  N   UNL     1       1.174   8.125  21.674  0.00  0.00    +0.000 N 
ATOM      6  C   UNL     1       1.513   8.235  20.342  0.00  0.00    +0.000 A 
ATOM      7  N   UNL     1       1.028   9.356  19.832  0.00  0.00    +0.000 NA
ATOM      8  C   UNL     1       0.330   9.951  20.854  0.00  0.00    +0.000 A 
ATOM      9  C   UNL     1      -0.394  11.151  20.861  0.00  0.00    +0.000 A 
ATOM     10  H   UNL     1       1.457   7.378  22.296  0.00  0.00    +0.000 HD
ENDROOT
BRANCH   1  16
ATOM     11  C   UNL     1      -3.573  17.559  21.262  0.00  0.00    +0.000 A 
ATOM     12  C   UNL     1      -2.508  17.392  20.381  0.00  0.00    +0.000 A 
ATOM     13  C   UNL     1      -1.810  16.185  20.355  0.00  0.00    +0.000 A 
ATOM     14  C   UNL     1      -2.167  15.133  21.214  0.00  0.00    +0.000 A 
ATOM     15  C   UNL     1      -1.470  13.911  21.197  0.00  0.00    +0.000 A 
ATOM     16  C   UNL     1      -1.793  12.856  22.067  0.00  0.00    +0.000 A 
ATOM     17  C   UNL     1      -2.865  13.056  22.954  0.00  0.00    +0.000 A 
ATOM     18  C   UNL     1      -3.584  14.255  22.971  0.00  0.00    +0.000 A 
ATOM     19  C   UNL     1      -3.243  15.305  22.110  0.00  0.00    +0.000 A 
ATOM     20  C   UNL     1      -3.942  16.522  22.121  0.00  0.00    +0.000 A 
ENDBRANCH   1  16
BRANCH   6  21
ATOM     21  C   UNL     1       2.324   7.241  19.644  0.00  0.00    +0.000 A 
ATOM     22  C   UNL     1       2.575   6.000  20.251  0.00  0.00    +0.000 A 
ATOM     23  C   UNL     1       3.330   5.004  19.619  0.00  0.00    +0.000 A 
ATOM     24  C   UNL     1       3.835   5.318  18.359  0.00  0.00    +0.000 A 
ATOM     25  N   UNL     1       4.602   4.614  17.470  0.00  0.00    +0.000 N 
ATOM     26  C   UNL     1       4.821   5.403  16.361  0.00  0.00    +0.000 A 
ATOM     27  N   UNL     1       4.250   6.586  16.513  0.00  0.00    +0.000 NA
ATOM     28  C   UNL     1       3.627   6.537  17.731  0.00  0.00    +0.000 A 
ATOM     29  C   UNL     1       2.859   7.517  18.373  0.00  0.00    +0.000 A 
ATOM     30  H   UNL     1       4.960   3.678  17.612  0.00  0.00    +0.000 HD
BRANCH  26  31
ATOM     31  C   UNL     1       5.600   4.966  15.206  0.00  0.00    +0.000 A 
ATOM     32  C   UNL     1       6.900   5.467  15.017  0.00  0.00    +0.000 A 
ATOM     33  C   UNL     1       7.692   5.083  13.928  0.00  0.00    +0.000 A 
ATOM     34  C   UNL     1       7.117   4.183  13.030  0.00  0.00    +0.000 A 
ATOM     35  N   UNL     1       7.570   3.608  11.875  0.00  0.00    +0.000 N 
ATOM     36  C   UNL     1       6.581   2.804  11.384  0.00  0.00    +0.000 A 
ATOM     37  N   UNL     1       5.517   2.817  12.152  0.00  0.00    +0.000 NA
ATOM     38  C   UNL     1       5.832   3.673  13.179  0.00  0.00    +0.000 A 
ATOM     39  C   UNL     1       5.058   4.062  14.276  0.00  0.00    +0.000 A 
ATOM     40  H   UNL     1       8.474   3.752  11.450  0.00  0.00    +0.000 HD
ENDBRANCH  26  31
ENDBRANCH   6  21
TORSDOF 3
ENDMDL
MODEL 8
REMARK VINA RESULT:      -8.6      2.528     13.258
REMARK  Name = 
REMARK  3 active torsions:
REMARK  status: ('A' for Active; 'I' for Inactive)
REMARK    1  A    between atoms: C_6  and  C_7
REMARK    2  A    between atoms: C_12  and  C_13
REMARK    3  A    between atoms: C_18  and  C_19
REMARK                            x       y       z     vdW  Elec       q    Type
REMARK                         _______ _______ _______ _____ _____    ______ ____
ROOT
ATOM      1  C   UNL     1      -2.687  14.319  21.220  0.00  0.00    +0.000 A 
ATOM      2  C   UNL     1      -2.273  14.189  22.564  0.00  0.00    +0.000 A 
ATOM      3  C   UNL     1      -1.431  13.159  23.005  0.00  0.00    +0.000 A 
ATOM      4  C   UNL     1      -1.028  12.240  22.041  0.00  0.00    +0.000 A 
ATOM      5  N   UNL     1      -0.233  11.128  22.105  0.00  0.00    +0.000 N 
ATOM      6  C   UNL     1      -0.168  10.563  20.849  0.00  0.00    +0.000 A 
ATOM      7  N   UNL     1      -0.857  11.284  19.979  0.00  0.00    +0.000 NA
ATOM      8  C   UNL     1      -1.407  12.309  20.709  0.00  0.00    +0.000 A 
ATOM      9  C   UNL     1      -2.239  13.356  20.292  0.00  0.00    +0.000 A 
ATOM     10  H   UNL     1       0.241  10.787  22.932  0.00  0.00    +0.000 HD
ENDROOT
BRANCH   1  16
ATOM     11  C   UNL     1      -7.411  18.373  19.224  0.00  0.00    +0.000 A 
ATOM     12  C   UNL     1      -7.917  17.077  19.298  0.00  0.00    +0.000 A 
ATOM     13  C   UNL     1      -7.091  16.032  19.715  0.00  0.00    +0.000 A 
ATOM     14  C   UNL     1      -5.750  16.271  20.055  0.00  0.00    +0.000 A 
ATOM     15  C   UNL     1      -4.908  15.226  20.475  0.00  0.00    +0.000 A 
ATOM     16  C   UNL     1      -3.556  15.439  20.794  0.00  0.00    +0.000 A 
ATOM     17  C   UNL     1      -3.070  16.754  20.698  0.00  0.00    +0.000 A 
ATOM     18  C   UNL     1      -3.897  17.810  20.304  0.00  0.00    +0.000 A 
ATOM     19  C   UNL     1      -5.238  17.583  19.974  0.00  0.00    +0.000 A 
ATOM     20  C   UNL     1      -6.081  18.627  19.561  0.00  0.00    +0.000 A 
ENDBRANCH   1  16
BRANCH   6  21
ATOM     21  C   UNL     1       0.596   9.351  20.562  0.00  0.00    +0.000 A 
ATOM     22  C   UNL     1       0.680   8.338  21.532  0.00  0.00    +0.000 A 
ATOM     23  C   UNL     1       1.383   7.149  21.303  0.00  0.00    +0.000 A 
ATOM     24  C   UNL     1       2.011   7.032  20.065  0.00  0.00    +0.000 A 
ATOM     25  N   UNL     1       2.773   6.041  19.507  0.00  0.00    +0.000 N 
ATOM     26  C   UNL     1       3.151   6.439  18.242  0.00  0.00    +0.000 A 
ATOM     27  N   UNL     1       2.685   7.648  17.978  0.00  0.00    +0.000 NA
ATOM     28  C   UNL     1       1.968   8.014  19.086  0.00  0.00    +0.000 A 
ATOM     29  C   UNL     1       1.250   9.192  19.329  0.00  0.00    +0.000 A 
ATOM     30  H   UNL     1       3.028   5.169  19.955  0.00  0.00    +0.000 HD
BRANCH  26  31
ATOM     31  C   UNL     1       3.971   5.620  17.353  0.00  0.00    +0.000 A 
ATOM     32  C   UNL     1       3.903   4.219  17.443  0.00  0.00    +0.000 A 
ATOM     33  C   UNL     1       4.666   3.385  16.616  0.00  0.00    +0.000 A 
ATOM     34  C   UNL     1       5.510   4.020  15.706  0.00  0.00    +0.000 A 
ATOM     35  N   UNL     1       6.390   3.547  14.771  0.00  0.00    +0.000 N 
ATOM     36  C   UNL     1       6.972   4.618  14.154  0.00  0.00    +0.000 A 
ATOM     37  N   UNL     1       6.519   5.756  14.626  0.00  0.00    +0.000 NA
ATOM     38  C   UNL     1       5.611   5.403  15.594  0.00  0.00    +0.000 A 
ATOM     39  C   UNL     1       4.836   6.220  16.422  0.00  0.00    +0.000 A 
ATOM     40  H   UNL     1       6.587   2.578  14.571  0.00  0.00    +0.000 HD
ENDBRANCH  26  31
ENDBRANCH   6  21
TORSDOF 3
ENDMDL
MODEL 9
REMARK VINA RESULT:      -8.2      2.309     13.540
REMARK  Name = 
REMARK  3 active torsions:
REMARK  status: ('A' for Active; 'I' for Inactive)
REMARK    1  A    between atoms: C_6  and  C_7
REMARK    2  A    between atoms: C_12  and  C_13
REMARK    3  A    between atoms: C_18  and  C_19
REMARK                            x       y       z     vdW  Elec       q    Type
REMARK                         _______ _______ _______ _____ _____    ______ ____
ROOT
ATOM      1  C   UNL     1      -1.988  13.881  22.230  0.00  0.00    +0.000 A 
ATOM      2  C   UNL     1      -0.749  14.525  22.024  0.00  0.00    +0.000 A 
ATOM      3  C   UNL     1       0.393  13.852  21.572  0.00  0.00    +0.000 A 
ATOM      4  C   UNL     1       0.252  12.485  21.348  0.00  0.00    +0.000 A 
ATOM      5  N   UNL     1       1.130  11.526  20.922  0.00  0.00    +0.000 N 
ATOM      6  C   UNL     1       0.473  10.315  20.884  0.00  0.00    +0.000 A 
ATOM      7  N   UNL     1      -0.795  10.464  21.233  0.00  0.00    +0.000 NA
ATOM      8  C   UNL     1      -0.935  11.795  21.539  0.00  0.00    +0.000 A 
ATOM      9  C   UNL     1      -2.067  12.496  21.980  0.00  0.00    +0.000 A 
ATOM     10  H   UNL     1       2.096  11.683  20.663  0.00  0.00    +0.000 HD
ENDROOT
BRANCH   1  16
ATOM     11  C   UNL     1      -7.776  16.767  23.185  0.00  0.00    +0.000 A 
ATOM     12  C   UNL     1      -7.823  16.017  22.013  0.00  0.00    +0.000 A 
ATOM     13  C   UNL     1      -6.701  15.297  21.604  0.00  0.00    +0.000 A 
ATOM     14  C   UNL     1      -5.518  15.324  22.359  0.00  0.00    +0.000 A 
ATOM     15  C   UNL     1      -4.379  14.604  21.956  0.00  0.00    +0.000 A 
ATOM     16  C   UNL     1      -3.177  14.639  22.683  0.00  0.00    +0.000 A 
ATOM     17  C   UNL     1      -3.154  15.414  23.855  0.00  0.00    +0.000 A 
ATOM     18  C   UNL     1      -4.282  16.119  24.285  0.00  0.00    +0.000 A 
ATOM     19  C   UNL     1      -5.470  16.089  23.544  0.00  0.00    +0.000 A 
ATOM     20  C   UNL     1      -6.609  16.803  23.949  0.00  0.00    +0.000 A 
ENDBRANCH   1  16
BRANCH   6  21
ATOM     21  C   UNL     1       1.123   9.071  20.478  0.00  0.00    +0.000 A 
ATOM     22  C   UNL     1       1.051   7.946  21.316  0.00  0.00    +0.000 A 
ATOM     23  C   UNL     1       1.639   6.723  20.968  0.00  0.00    +0.000 A 
ATOM     24  C   UNL     1       2.317   6.689  19.751  0.00  0.00    +0.000 A 
ATOM     25  N   UNL     1       3.002   5.696  19.104  0.00  0.00    +0.000 N 
ATOM     26  C   UNL     1       3.486   6.201  17.915  0.00  0.00    +0.000 A 
ATOM     27  N   UNL     1       3.161   7.476  17.787  0.00  0.00    +0.000 NA
ATOM     28  C   UNL     1       2.428   7.781  18.903  0.00  0.00    +0.000 A 
ATOM     29  C   UNL     1       1.822   8.992  19.262  0.00  0.00    +0.000 A 
ATOM     30  H   UNL     1       3.143   4.755  19.449  0.00  0.00    +0.000 HD
BRANCH  26  31
ATOM     31  C   UNL     1       4.264   5.411  16.965  0.00  0.00    +0.000 A 
ATOM     32  C   UNL     1       4.230   4.008  17.038  0.00  0.00    +0.000 A 
ATOM     33  C   UNL     1       4.955   3.201  16.153  0.00  0.00    +0.000 A 
ATOM     34  C   UNL     1       5.727   3.865  15.200  0.00  0.00    +0.000 A 
ATOM     35  N   UNL     1       6.555   3.423  14.205  0.00  0.00    +0.000 N 
ATOM     36  C   UNL     1       7.075   4.514  13.567  0.00  0.00    +0.000 A 
ATOM     37  N   UNL     1       6.629   5.636  14.083  0.00  0.00    +0.000 NA
ATOM     38  C   UNL     1       5.792   5.251  15.102  0.00  0.00    +0.000 A 
ATOM     39  C   UNL     1       5.056   6.041  15.989  0.00  0.00    +0.000 A 
ATOM     40  H   UNL     1       6.757   2.461  13.978  0.00  0.00    +0.000 HD
ENDBRANCH  26  31
ENDBRANCH   6  21
TORSDOF 3
ENDMDL
