MODEL 1
REMARK VINA RESULT:      -7.6      0.000      0.000
REMARK  Name = 
REMARK  18 active torsions:
REMARK  status: ('A' for Active; 'I' for Inactive)
REMARK    1  A    between atoms: C_1  and  S_2
REMARK    2  A    between atoms: S_2  and  C_3
REMARK    3  A    between atoms: C_5  and  C_6
REMARK    4  A    between atoms: C_6  and  O_8
REMARK    5  A    between atoms: C_10  and  C_12
REMARK    6  A    between atoms: C_12  and  C_13
REMARK    7  A    between atoms: C_12  and  O_18
REMARK    8  A    between atoms: C_13  and  C_14
REMARK    9  A    between atoms: C_14  and  C_15
REMARK   10  A    between atoms: C_15  and  C_16
REMARK   11  A    between atoms: C_16  and  N_17
REMARK   12  A    between atoms: O_18  and  P_19
REMARK   13  A    between atoms: P_19  and  O_21
REMARK   14  A    between atoms: P_19  and  C_22
REMARK   15  A    between atoms: C_22  and  C_23
REMARK   16  A    between atoms: C_23  and  C_24
REMARK   17  A    between atoms: C_24  and  C_25
REMARK   18  A    between atoms: C_25  and  C_26
REMARK                            x       y       z     vdW  Elec       q    Type
REMARK                         _______ _______ _______ _____ _____    ______ ____
ROOT
ATOM      1  C   UNL     1       5.339   5.199  16.341  0.00  0.00    +0.000 C 
ENDROOT
BRANCH   1   6
ATOM      2  C   UNL     1       2.599   6.343  19.680  0.00  0.00    +0.000 C 
ATOM      3  C   UNL     1       1.698   5.125  19.570  0.00  0.00    +0.000 C 
ATOM      4  C   UNL     1       2.584   4.040  18.936  0.00  0.00    +0.000 C 
ATOM      5  N   UNL     1       3.466   4.829  18.035  0.00  0.00    +0.000 N 
ATOM      6  C   UNL     1       4.440   4.254  17.231  0.00  0.00    +0.000 C 
ATOM      7  O   UNL     1       4.504   3.022  17.178  0.00  0.00    +0.000 OA
ATOM      8  C   UNL     1       3.563   6.200  18.504  0.00  0.00    +0.000 C 
BRANCH   4   9
ATOM      9  C   UNL     1       1.631   2.949  18.393  0.00  0.00    +0.000 C 
ATOM     10  O   UNL     1       0.464   3.171  18.103  0.00  0.00    +0.000 OA
BRANCH   9  11
ATOM     11  O   UNL     1       2.125   1.695  18.372  0.00  0.00    +0.000 OA
ATOM     12  H   UNL     1       3.021   1.635  18.779  0.00  0.00    +0.000 HD
ENDBRANCH   9  11
ENDBRANCH   4   9
BRANCH   2  14
ATOM     13  C   UNL     1       1.339   8.187  21.331  0.00  0.00    +0.000 C 
ATOM     14  S   UNL     1       1.715   7.936  19.581  0.00  0.00    +0.000 S 
ENDBRANCH   2  14
ENDBRANCH   1   6
BRANCH   1  15
ATOM     15  C   UNL     1       5.139   4.893  14.840  0.00  0.00    +0.000 C 
BRANCH  15  16
ATOM     16  C   UNL     1       6.101   3.838  14.257  0.00  0.00    +0.000 C 
BRANCH  16  17
ATOM     17  C   UNL     1       6.997   4.355  13.117  0.00  0.00    +0.000 C 
BRANCH  17  18
ATOM     18  C   UNL     1       6.809   3.609  11.794  0.00  0.00    +0.000 C 
BRANCH  18  19
ATOM     19  N   UNL     1       6.168   2.317  12.017  0.00  0.00    +0.000 NA
ATOM     20  H   UNL     1       5.199   2.354  11.701  0.00  0.00    +0.000 HD
ATOM     21  H   UNL     1       6.128   2.130  13.018  0.00  0.00    +0.000 HD
ENDBRANCH  18  19
ENDBRANCH  17  18
ENDBRANCH  16  17
ENDBRANCH  15  16
ENDBRANCH   1  15
BRANCH   1  22
ATOM     22  O   UNL     1       6.670   4.952  16.770  0.00  0.00    +0.000 OA
BRANCH  22  23
ATOM     23  P   UNL     1       7.378   5.117  18.193  0.00  0.00    +0.000 P 
ATOM     24  O   UNL     1       6.488   4.660  19.307  0.00  0.00    +0.000 OA
BRANCH  23  25
ATOM     25  O   UNL     1       8.637   4.128  18.078  0.00  0.00    +0.000 OA
ATOM     26  H   UNL     1       8.752   3.607  18.893  0.00  0.00    +0.000 HD
ENDBRANCH  23  25
BRANCH  23  27
ATOM     27  C   UNL     1       8.110   6.723  18.465  0.00  0.00    +0.000 C 
BRANCH  27  28
ATOM     28  C   UNL     1       7.469   7.922  17.767  0.00  0.00    +0.000 C 
BRANCH  28  29
ATOM     29  C   UNL     1       8.369   9.176  17.709  0.00  0.00    +0.000 C 
BRANCH  29  30
ATOM     30  C   UNL     1       8.796   9.693  19.088  0.00  0.00    +0.000 C 
BRANCH  30  31
ATOM     31  C   UNL     1       9.852  10.775  19.036  0.00  0.00    +0.000 A 
ATOM     32  C   UNL     1      10.418  11.276  20.219  0.00  0.00    +0.000 A 
ATOM     33  C   UNL     1      11.434  12.233  20.172  0.00  0.00    +0.000 A 
ATOM     34  C   UNL     1      11.891  12.707  18.944  0.00  0.00    +0.000 A 
ATOM     35  C   UNL     1      11.331  12.223  17.764  0.00  0.00    +0.000 A 
ATOM     36  C   UNL     1      10.314  11.266  17.809  0.00  0.00    +0.000 A 
ENDBRANCH  30  31
ENDBRANCH  29  30
ENDBRANCH  28  29
ENDBRANCH  27  28
ENDBRANCH  23  27
ENDBRANCH  22  23
ENDBRANCH   1  22
TORSDOF 17
ENDMDL
MODEL 2
REMARK VINA RESULT:      -7.3      1.126      1.365
REMARK  Name = 
REMARK  18 active torsions:
REMARK  status: ('A' for Active; 'I' for Inactive)
REMARK    1  A    between atoms: C_1  and  S_2
REMARK    2  A    between atoms: S_2  and  C_3
REMARK    3  A    between atoms: C_5  and  C_6
REMARK    4  A    between atoms: C_6  and  O_8
REMARK    5  A    between atoms: C_10  and  C_12
REMARK    6  A    between atoms: C_12  and  C_13
REMARK    7  A    between atoms: C_12  and  O_18
REMARK    8  A    between atoms: C_13  and  C_14
REMARK    9  A    between atoms: C_14  and  C_15
REMARK   10  A    between atoms: C_15  and  C_16
REMARK   11  A    between atoms: C_16  and  N_17
REMARK   12  A    between atoms: O_18  and  P_19
REMARK   13  A    between atoms: P_19  and  O_21
REMARK   14  A    between atoms: P_19  and  C_22
REMARK   15  A    between atoms: C_22  and  C_23
REMARK   16  A    between atoms: C_23  and  C_24
REMARK   17  A    between atoms: C_24  and  C_25
REMARK   18  A    between atoms: C_25  and  C_26
REMARK                            x       y       z     vdW  Elec       q    Type
REMARK                         _______ _______ _______ _____ _____    ______ ____
ROOT
ATOM      1  C   UNL     1       4.605   5.180  16.795  0.00  0.00    +0.000 C 
ENDROOT
BRANCH   1   6
ATOM      2  C   UNL     1       2.312   6.722  20.306  0.00  0.00    +0.000 C 
ATOM      3  C   UNL     1       1.526   5.445  20.555  0.00  0.00    +0.000 C 
ATOM      4  C   UNL     1       2.405   4.326  19.972  0.00  0.00    +0.000 C 
ATOM      5  N   UNL     1       3.058   4.997  18.817  0.00  0.00    +0.000 N 
ATOM      6  C   UNL     1       3.948   4.353  17.969  0.00  0.00    +0.000 C 
ATOM      7  O   UNL     1       4.123   3.140  18.114  0.00  0.00    +0.000 OA
ATOM      8  C   UNL     1       3.093   6.433  19.026  0.00  0.00    +0.000 C 
BRANCH   4   9
ATOM      9  C   UNL     1       1.490   3.092  19.789  0.00  0.00    +0.000 C 
ATOM     10  O   UNL     1       1.266   2.292  20.685  0.00  0.00    +0.000 OA
BRANCH   9  11
ATOM     11  O   UNL     1       1.044   2.873  18.536  0.00  0.00    +0.000 OA
ATOM     12  H   UNL     1       1.026   1.915  18.303  0.00  0.00    +0.000 HD
ENDBRANCH   9  11
ENDBRANCH   4   9
BRANCH   2  14
ATOM     13  C   UNL     1       1.125   8.729  21.814  0.00  0.00    +0.000 C 
ATOM     14  S   UNL     1       1.273   8.205  20.090  0.00  0.00    +0.000 S 
ENDBRANCH   2  14
ENDBRANCH   1   6
BRANCH   1  15
ATOM     15  C   UNL     1       5.168   4.237  15.708  0.00  0.00    +0.000 C 
BRANCH  15  16
ATOM     16  C   UNL     1       6.047   4.922  14.643  0.00  0.00    +0.000 C 
BRANCH  16  17
ATOM     17  C   UNL     1       6.544   3.984  13.529  0.00  0.00    +0.000 C 
BRANCH  17  18
ATOM     18  C   UNL     1       5.421   3.360  12.697  0.00  0.00    +0.000 C 
BRANCH  18  19
ATOM     19  N   UNL     1       5.933   2.269  11.875  0.00  0.00    +0.000 NA
ATOM     20  H   UNL     1       5.950   1.406  12.418  0.00  0.00    +0.000 HD
ATOM     21  H   UNL     1       6.904   2.461  11.628  0.00  0.00    +0.000 HD
ENDBRANCH  18  19
ENDBRANCH  17  18
ENDBRANCH  16  17
ENDBRANCH  15  16
ENDBRANCH   1  15
BRANCH   1  22
ATOM     22  O   UNL     1       5.620   5.957  17.414  0.00  0.00    +0.000 OA
BRANCH  22  23
ATOM     23  P   UNL     1       6.775   5.571  18.448  0.00  0.00    +0.000 P 
ATOM     24  O   UNL     1       6.213   5.156  19.773  0.00  0.00    +0.000 OA
BRANCH  23  25
ATOM     25  O   UNL     1       7.472   4.307  17.745  0.00  0.00    +0.000 OA
ATOM     26  H   UNL     1       6.810   3.647  17.471  0.00  0.00    +0.000 HD
ENDBRANCH  23  25
BRANCH  23  27
ATOM     27  C   UNL     1       8.085   6.780  18.566  0.00  0.00    +0.000 C 
BRANCH  27  28
ATOM     28  C   UNL     1       8.143   7.870  17.497  0.00  0.00    +0.000 C 
BRANCH  28  29
ATOM     29  C   UNL     1       7.944   9.301  18.042  0.00  0.00    +0.000 C 
BRANCH  29  30
ATOM     30  C   UNL     1       9.143   9.832  18.836  0.00  0.00    +0.000 C 
BRANCH  30  31
ATOM     31  C   UNL     1       9.716  11.122  18.292  0.00  0.00    +0.000 A 
ATOM     32  C   UNL     1       8.871  12.192  17.961  0.00  0.00    +0.000 A 
ATOM     33  C   UNL     1       9.401  13.405  17.512  0.00  0.00    +0.000 A 
ATOM     34  C   UNL     1      10.779  13.559  17.383  0.00  0.00    +0.000 A 
ATOM     35  C   UNL     1      11.626  12.500  17.701  0.00  0.00    +0.000 A 
ATOM     36  C   UNL     1      11.099  11.287  18.149  0.00  0.00    +0.000 A 
ENDBRANCH  30  31
ENDBRANCH  29  30
ENDBRANCH  28  29
ENDBRANCH  27  28
ENDBRANCH  23  27
ENDBRANCH  22  23
ENDBRANCH   1  22
TORSDOF 17
ENDMDL
MODEL 3
REMARK VINA RESULT:      -7.0      1.607      2.011
REMARK  Name = 
REMARK  18 active torsions:
REMARK  status: ('A' for Active; 'I' for Inactive)
REMARK    1  A    between atoms: C_1  and  S_2
REMARK    2  A    between atoms: S_2  and  C_3
REMARK    3  A    between atoms: C_5  and  C_6
REMARK    4  A    between atoms: C_6  and  O_8
REMARK    5  A    between atoms: C_10  and  C_12
REMARK    6  A    between atoms: C_12  and  C_13
REMARK    7  A    between atoms: C_12  and  O_18
REMARK    8  A    between atoms: C_13  and  C_14
REMARK    9  A    between atoms: C_14  and  C_15
REMARK   10  A    between atoms: C_15  and  C_16
REMARK   11  A    between atoms: C_16  and  N_17
REMARK   12  A    between atoms: O_18  and  P_19
REMARK   13  A    between atoms: P_19  and  O_21
REMARK   14  A    between atoms: P_19  and  C_22
REMARK   15  A    between atoms: C_22  and  C_23
REMARK   16  A    between atoms: C_23  and  C_24
REMARK   17  A    between atoms: C_24  and  C_25
REMARK   18  A    between atoms: C_25  and  C_26
REMARK                            x       y       z     vdW  Elec       q    Type
REMARK                         _______ _______ _______ _____ _____    ______ ____
ROOT
ATOM      1  C   UNL     1       4.489   5.388  17.006  0.00  0.00    +0.000 C 
ENDROOT
BRANCH   1   6
ATOM      2  C   UNL     1       2.106   7.763  19.946  0.00  0.00    +0.000 C 
ATOM      3  C   UNL     1       1.465   6.569  20.633  0.00  0.00    +0.000 C 
ATOM      4  C   UNL     1       2.448   5.410  20.398  0.00  0.00    +0.000 C 
ATOM      5  N   UNL     1       3.006   5.727  19.056  0.00  0.00    +0.000 N 
ATOM      6  C   UNL     1       3.944   4.930  18.416  0.00  0.00    +0.000 C 
ATOM      7  O   UNL     1       4.249   3.852  18.935  0.00  0.00    +0.000 OA
ATOM      8  C   UNL     1       2.891   7.150  18.789  0.00  0.00    +0.000 C 
BRANCH   4   9
ATOM      9  C   UNL     1       1.666   4.103  20.668  0.00  0.00    +0.000 C 
ATOM     10  O   UNL     1       0.538   3.904  20.243  0.00  0.00    +0.000 OA
BRANCH   9  11
ATOM     11  O   UNL     1       2.254   3.231  21.512  0.00  0.00    +0.000 OA
ATOM     12  H   UNL     1       2.280   2.314  21.150  0.00  0.00    +0.000 HD
ENDBRANCH   9  11
ENDBRANCH   4   9
BRANCH   2  14
ATOM     13  C   UNL     1       0.218   9.572  20.883  0.00  0.00    +0.000 C 
ATOM     14  S   UNL     1       0.911   8.991  19.318  0.00  0.00    +0.000 S 
ENDBRANCH   2  14
ENDBRANCH   1   6
BRANCH   1  15
ATOM     15  C   UNL     1       4.879   4.166  16.145  0.00  0.00    +0.000 C 
BRANCH  15  16
ATOM     16  C   UNL     1       5.085   4.464  14.647  0.00  0.00    +0.000 C 
BRANCH  16  17
ATOM     17  C   UNL     1       6.242   3.685  13.997  0.00  0.00    +0.000 C 
BRANCH  17  18
ATOM     18  C   UNL     1       6.165   3.622  12.469  0.00  0.00    +0.000 C 
BRANCH  18  19
ATOM     19  N   UNL     1       6.226   2.240  12.006  0.00  0.00    +0.000 NA
ATOM     20  H   UNL     1       6.077   1.606  12.792  0.00  0.00    +0.000 HD
ATOM     21  H   UNL     1       7.164   2.041  11.661  0.00  0.00    +0.000 HD
ENDBRANCH  18  19
ENDBRANCH  17  18
ENDBRANCH  16  17
ENDBRANCH  15  16
ENDBRANCH   1  15
BRANCH   1  22
ATOM     22  O   UNL     1       5.601   6.223  17.294  0.00  0.00    +0.000 OA
BRANCH  22  23
ATOM     23  P   UNL     1       7.153   5.899  17.492  0.00  0.00    +0.000 P 
ATOM     24  O   UNL     1       7.368   4.484  17.936  0.00  0.00    +0.000 OA
BRANCH  23  25
ATOM     25  O   UNL     1       7.746   6.090  16.013  0.00  0.00    +0.000 OA
ATOM     26  H   UNL     1       8.343   5.357  15.775  0.00  0.00    +0.000 HD
ENDBRANCH  23  25
BRANCH  23  27
ATOM     27  C   UNL     1       8.033   7.105  18.473  0.00  0.00    +0.000 C 
BRANCH  27  28
ATOM     28  C   UNL     1       8.103   8.535  17.942  0.00  0.00    +0.000 C 
BRANCH  28  29
ATOM     29  C   UNL     1       8.965   9.487  18.801  0.00  0.00    +0.000 C 
BRANCH  29  30
ATOM     30  C   UNL     1       9.107  10.895  18.209  0.00  0.00    +0.000 C 
BRANCH  30  31
ATOM     31  C   UNL     1       9.373  11.969  19.240  0.00  0.00    +0.000 A 
ATOM     32  C   UNL     1       9.237  13.325  18.908  0.00  0.00    +0.000 A 
ATOM     33  C   UNL     1       9.426  14.317  19.873  0.00  0.00    +0.000 A 
ATOM     34  C   UNL     1       9.761  13.966  21.179  0.00  0.00    +0.000 A 
ATOM     35  C   UNL     1       9.908  12.623  21.518  0.00  0.00    +0.000 A 
ATOM     36  C   UNL     1       9.719  11.629  20.554  0.00  0.00    +0.000 A 
ENDBRANCH  30  31
ENDBRANCH  29  30
ENDBRANCH  28  29
ENDBRANCH  27  28
ENDBRANCH  23  27
ENDBRANCH  22  23
ENDBRANCH   1  22
TORSDOF 17
ENDMDL
MODEL 4
REMARK VINA RESULT:      -6.9      2.032      2.779
REMARK  Name = 
REMARK  18 active torsions:
REMARK  status: ('A' for Active; 'I' for Inactive)
REMARK    1  A    between atoms: C_1  and  S_2
REMARK    2  A    between atoms: S_2  and  C_3
REMARK    3  A    between atoms: C_5  and  C_6
REMARK    4  A    between atoms: C_6  and  O_8
REMARK    5  A    between atoms: C_10  and  C_12
REMARK    6  A    between atoms: C_12  and  C_13
REMARK    7  A    between atoms: C_12  and  O_18
REMARK    8  A    between atoms: C_13  and  C_14
REMARK    9  A    between atoms: C_14  and  C_15
REMARK   10  A    between atoms: C_15  and  C_16
REMARK   11  A    between atoms: C_16  and  N_17
REMARK   12  A    between atoms: O_18  and  P_19
REMARK   13  A    between atoms: P_19  and  O_21
REMARK   14  A    between atoms: P_19  and  C_22
REMARK   15  A    between atoms: C_22  and  C_23
REMARK   16  A    between atoms: C_23  and  C_24
REMARK   17  A    between atoms: C_24  and  C_25
REMARK   18  A    between atoms: C_25  and  C_26
REMARK                            x       y       z     vdW  Elec       q    Type
REMARK                         _______ _______ _______ _____ _____    ______ ____
ROOT
ATOM      1  C   UNL     1       5.754   5.711  15.814  0.00  0.00    +0.000 C 
ENDROOT
BRANCH   1   6
ATOM      2  C   UNL     1       2.381   3.407  17.624  0.00  0.00    +0.000 C 
ATOM      3  C   UNL     1       1.986   4.471  18.634  0.00  0.00    +0.000 C 
ATOM      4  C   UNL     1       2.466   5.794  18.016  0.00  0.00    +0.000 C 
ATOM      5  N   UNL     1       3.696   5.383  17.288  0.00  0.00    +0.000 N 
ATOM      6  C   UNL     1       4.489   6.271  16.575  0.00  0.00    +0.000 C 
ATOM      7  O   UNL     1       4.223   7.475  16.636  0.00  0.00    +0.000 OA
ATOM      8  C   UNL     1       3.638   3.969  16.964  0.00  0.00    +0.000 C 
BRANCH   4   9
ATOM      9  C   UNL     1       2.504   6.833  19.161  0.00  0.00    +0.000 C 
ATOM     10  O   UNL     1       2.203   8.007  19.003  0.00  0.00    +0.000 OA
BRANCH   9  11
ATOM     11  O   UNL     1       3.012   6.399  20.332  0.00  0.00    +0.000 OA
ATOM     12  H   UNL     1       3.997   6.386  20.334  0.00  0.00    +0.000 HD
ENDBRANCH   9  11
ENDBRANCH   4   9
BRANCH   2  14
ATOM     13  C   UNL     1       3.469   2.295  19.924  0.00  0.00    +0.000 C 
ATOM     14  S   UNL     1       2.730   1.774  18.359  0.00  0.00    +0.000 S 
ENDBRANCH   2  14
ENDBRANCH   1   6
BRANCH   1  15
ATOM     15  C   UNL     1       5.346   5.071  14.468  0.00  0.00    +0.000 C 
BRANCH  15  16
ATOM     16  C   UNL     1       6.115   3.787  14.097  0.00  0.00    +0.000 C 
BRANCH  16  17
ATOM     17  C   UNL     1       6.547   3.707  12.623  0.00  0.00    +0.000 C 
BRANCH  17  18
ATOM     18  C   UNL     1       5.893   2.562  11.846  0.00  0.00    +0.000 C 
BRANCH  18  19
ATOM     19  N   UNL     1       6.899   1.614  11.380  0.00  0.00    +0.000 NA
ATOM     20  H   UNL     1       6.724   1.379  10.402  0.00  0.00    +0.000 HD
ATOM     21  H   UNL     1       6.804   0.740  11.897  0.00  0.00    +0.000 HD
ENDBRANCH  18  19
ENDBRANCH  17  18
ENDBRANCH  16  17
ENDBRANCH  15  16
ENDBRANCH   1  15
BRANCH   1  22
ATOM     22  O   UNL     1       6.334   4.770  16.705  0.00  0.00    +0.000 OA
BRANCH  22  23
ATOM     23  P   UNL     1       7.028   4.944  18.134  0.00  0.00    +0.000 P 
ATOM     24  O   UNL     1       6.296   4.185  19.198  0.00  0.00    +0.000 OA
BRANCH  23  25
ATOM     25  O   UNL     1       8.474   4.285  17.908  0.00  0.00    +0.000 OA
ATOM     26  H   UNL     1       9.095   4.550  18.610  0.00  0.00    +0.000 HD
ENDBRANCH  23  25
BRANCH  23  27
ATOM     27  C   UNL     1       7.385   6.638  18.572  0.00  0.00    +0.000 C 
BRANCH  27  28
ATOM     28  C   UNL     1       8.091   7.506  17.532  0.00  0.00    +0.000 C 
BRANCH  28  29
ATOM     29  C   UNL     1       8.052   9.019  17.837  0.00  0.00    +0.000 C 
BRANCH  29  30
ATOM     30  C   UNL     1       9.086   9.466  18.877  0.00  0.00    +0.000 C 
BRANCH  30  31
ATOM     31  C   UNL     1       9.351  10.956  18.877  0.00  0.00    +0.000 A 
ATOM     32  C   UNL     1       8.754  11.785  17.915  0.00  0.00    +0.000 A 
ATOM     33  C   UNL     1       8.950  13.168  17.947  0.00  0.00    +0.000 A 
ATOM     34  C   UNL     1       9.752  13.736  18.935  0.00  0.00    +0.000 A 
ATOM     35  C   UNL     1      10.356  12.922  19.889  0.00  0.00    +0.000 A 
ATOM     36  C   UNL     1      10.161  11.539  19.859  0.00  0.00    +0.000 A 
ENDBRANCH  30  31
ENDBRANCH  29  30
ENDBRANCH  28  29
ENDBRANCH  27  28
ENDBRANCH  23  27
ENDBRANCH  22  23
ENDBRANCH   1  22
TORSDOF 17
ENDMDL
MODEL 5
REMARK VINA RESULT:      -6.8      0.919      1.253
REMARK  Name = 
REMARK  18 active torsions:
REMARK  status: ('A' for Active; 'I' for Inactive)
REMARK    1  A    between atoms: C_1  and  S_2
REMARK    2  A    between atoms: S_2  and  C_3
REMARK    3  A    between atoms: C_5  and  C_6
REMARK    4  A    between atoms: C_6  and  O_8
REMARK    5  A    between atoms: C_10  and  C_12
REMARK    6  A    between atoms: C_12  and  C_13
REMARK    7  A    between atoms: C_12  and  O_18
REMARK    8  A    between atoms: C_13  and  C_14
REMARK    9  A    between atoms: C_14  and  C_15
REMARK   10  A    between atoms: C_15  and  C_16
REMARK   11  A    between atoms: C_16  and  N_17
REMARK   12  A    between atoms: O_18  and  P_19
REMARK   13  A    between atoms: P_19  and  O_21
REMARK   14  A    between atoms: P_19  and  C_22
REMARK   15  A    between atoms: C_22  and  C_23
REMARK   16  A    between atoms: C_23  and  C_24
REMARK   17  A    between atoms: C_24  and  C_25
REMARK   18  A    between atoms: C_25  and  C_26
REMARK                            x       y       z     vdW  Elec       q    Type
REMARK                         _______ _______ _______ _____ _____    ______ ____
ROOT
ATOM      1  C   UNL     1       5.191   4.155  16.717  0.00  0.00    +0.000 C 
ENDROOT
BRANCH   1   6
ATOM      2  C   UNL     1       2.500   5.977  19.783  0.00  0.00    +0.000 C 
ATOM      3  C   UNL     1       1.467   4.863  19.770  0.00  0.00    +0.000 C 
ATOM      4  C   UNL     1       2.239   3.620  19.300  0.00  0.00    +0.000 C 
ATOM      5  N   UNL     1       3.236   4.196  18.357  0.00  0.00    +0.000 N 
ATOM      6  C   UNL     1       4.160   3.426  17.666  0.00  0.00    +0.000 C 
ATOM      7  O   UNL     1       4.082   2.197  17.753  0.00  0.00    +0.000 OA
ATOM      8  C   UNL     1       3.477   5.592  18.675  0.00  0.00    +0.000 C 
BRANCH   4   9
ATOM      9  C   UNL     1       1.183   2.587  18.840  0.00  0.00    +0.000 C 
ATOM     10  O   UNL     1       0.025   2.888  18.589  0.00  0.00    +0.000 OA
BRANCH   9  11
ATOM     11  O   UNL     1       1.579   1.299  18.847  0.00  0.00    +0.000 OA
ATOM     12  H   UNL     1       1.932   1.007  17.975  0.00  0.00    +0.000 HD
ENDBRANCH   9  11
ENDBRANCH   4   9
BRANCH   2  14
ATOM     13  C   UNL     1       1.265   8.063  21.139  0.00  0.00    +0.000 C 
ATOM     14  S   UNL     1       1.811   7.636  19.469  0.00  0.00    +0.000 S 
ENDBRANCH   2  14
ENDBRANCH   1   6
BRANCH   1  15
ATOM     15  C   UNL     1       5.392   3.357  15.409  0.00  0.00    +0.000 C 
BRANCH  15  16
ATOM     16  C   UNL     1       5.537   4.217  14.138  0.00  0.00    +0.000 C 
BRANCH  16  17
ATOM     17  C   UNL     1       6.148   3.477  12.936  0.00  0.00    +0.000 C 
BRANCH  17  18
ATOM     18  C   UNL     1       5.467   3.793  11.601  0.00  0.00    +0.000 C 
BRANCH  18  19
ATOM     19  N   UNL     1       4.194   3.089  11.493  0.00  0.00    +0.000 NA
ATOM     20  H   UNL     1       3.513   3.509  12.127  0.00  0.00    +0.000 HD
ATOM     21  H   UNL     1       4.313   2.127  11.809  0.00  0.00    +0.000 HD
ENDBRANCH  18  19
ENDBRANCH  17  18
ENDBRANCH  16  17
ENDBRANCH  15  16
ENDBRANCH   1  15
BRANCH   1  22
ATOM     22  O   UNL     1       6.386   4.254  17.478  0.00  0.00    +0.000 OA
BRANCH  22  23
ATOM     23  P   UNL     1       6.941   5.399  18.444  0.00  0.00    +0.000 P 
ATOM     24  O   UNL     1       6.503   5.185  19.861  0.00  0.00    +0.000 OA
BRANCH  23  25
ATOM     25  O   UNL     1       8.532   5.207  18.344  0.00  0.00    +0.000 OA
ATOM     26  H   UNL     1       8.961   5.362  19.204  0.00  0.00    +0.000 HD
ENDBRANCH  23  25
BRANCH  23  27
ATOM     27  C   UNL     1       6.664   7.059  17.846  0.00  0.00    +0.000 C 
BRANCH  27  28
ATOM     28  C   UNL     1       7.877   7.846  17.351  0.00  0.00    +0.000 C 
BRANCH  28  29
ATOM     29  C   UNL     1       8.551   8.717  18.433  0.00  0.00    +0.000 C 
BRANCH  29  30
ATOM     30  C   UNL     1       8.557  10.215  18.104  0.00  0.00    +0.000 C 
BRANCH  30  31
ATOM     31  C   UNL     1       9.740  10.963  18.679  0.00  0.00    +0.000 A 
ATOM     32  C   UNL     1      10.718  11.506  17.832  0.00  0.00    +0.000 A 
ATOM     33  C   UNL     1      11.781  12.247  18.356  0.00  0.00    +0.000 A 
ATOM     34  C   UNL     1      11.882  12.446  19.731  0.00  0.00    +0.000 A 
ATOM     35  C   UNL     1      10.921  11.904  20.581  0.00  0.00    +0.000 A 
ATOM     36  C   UNL     1       9.858  11.163  20.060  0.00  0.00    +0.000 A 
ENDBRANCH  30  31
ENDBRANCH  29  30
ENDBRANCH  28  29
ENDBRANCH  27  28
ENDBRANCH  23  27
ENDBRANCH  22  23
ENDBRANCH   1  22
TORSDOF 17
ENDMDL
MODEL 6
REMARK VINA RESULT:      -6.7      1.239      1.455
REMARK  Name = 
REMARK  18 active torsions:
REMARK  status: ('A' for Active; 'I' for Inactive)
REMARK    1  A    between atoms: C_1  and  S_2
REMARK    2  A    between atoms: S_2  and  C_3
REMARK    3  A    between atoms: C_5  and  C_6
REMARK    4  A    between atoms: C_6  and  O_8
REMARK    5  A    between atoms: C_10  and  C_12
REMARK    6  A    between atoms: C_12  and  C_13
REMARK    7  A    between atoms: C_12  and  O_18
REMARK    8  A    between atoms: C_13  and  C_14
REMARK    9  A    between atoms: C_14  and  C_15
REMARK   10  A    between atoms: C_15  and  C_16
REMARK   11  A    between atoms: C_16  and  N_17
REMARK   12  A    between atoms: O_18  and  P_19
REMARK   13  A    between atoms: P_19  and  O_21
REMARK   14  A    between atoms: P_19  and  C_22
REMARK   15  A    between atoms: C_22  and  C_23
REMARK   16  A    between atoms: C_23  and  C_24
REMARK   17  A    between atoms: C_24  and  C_25
REMARK   18  A    between atoms: C_25  and  C_26
REMARK                            x       y       z     vdW  Elec       q    Type
REMARK                         _______ _______ _______ _____ _____    ______ ____
ROOT
ATOM      1  C   UNL     1       4.865   4.859  16.160  0.00  0.00    +0.000 C 
ENDROOT
BRANCH   1   6
ATOM      2  C   UNL     1       2.683   6.296  19.784  0.00  0.00    +0.000 C 
ATOM      3  C   UNL     1       1.843   5.044  19.971  0.00  0.00    +0.000 C 
ATOM      4  C   UNL     1       2.662   3.922  19.313  0.00  0.00    +0.000 C 
ATOM      5  N   UNL     1       3.334   4.629  18.189  0.00  0.00    +0.000 N 
ATOM      6  C   UNL     1       4.184   3.996  17.294  0.00  0.00    +0.000 C 
ATOM      7  O   UNL     1       4.304   2.769  17.366  0.00  0.00    +0.000 OA
ATOM      8  C   UNL     1       3.436   6.048  18.480  0.00  0.00    +0.000 C 
BRANCH   4   9
ATOM      9  C   UNL     1       1.690   2.743  19.071  0.00  0.00    +0.000 C 
ATOM     10  O   UNL     1       0.477   2.851  19.175  0.00  0.00    +0.000 OA
BRANCH   9  11
ATOM     11  O   UNL     1       2.264   1.543  18.857  0.00  0.00    +0.000 OA
ATOM     12  H   UNL     1       2.700   1.183  19.664  0.00  0.00    +0.000 HD
ENDBRANCH   9  11
ENDBRANCH   4   9
BRANCH   2  14
ATOM     13  C   UNL     1       1.262   8.046  21.407  0.00  0.00    +0.000 C 
ATOM     14  S   UNL     1       1.711   7.835  19.669  0.00  0.00    +0.000 S 
ENDBRANCH   2  14
ENDBRANCH   1   6
BRANCH   1  15
ATOM     15  C   UNL     1       5.651   3.957  15.182  0.00  0.00    +0.000 C 
BRANCH  15  16
ATOM     16  C   UNL     1       5.178   4.018  13.716  0.00  0.00    +0.000 C 
BRANCH  16  17
ATOM     17  C   UNL     1       6.284   3.753  12.679  0.00  0.00    +0.000 C 
BRANCH  17  18
ATOM     18  C   UNL     1       7.667   4.250  13.107  0.00  0.00    +0.000 C 
BRANCH  18  19
ATOM     19  N   UNL     1       7.850   5.650  12.737  0.00  0.00    +0.000 NA
ATOM     20  H   UNL     1       7.090   5.946  12.123  0.00  0.00    +0.000 HD
ATOM     21  H   UNL     1       8.704   5.743  12.188  0.00  0.00    +0.000 HD
ENDBRANCH  18  19
ENDBRANCH  17  18
ENDBRANCH  16  17
ENDBRANCH  15  16
ENDBRANCH   1  15
BRANCH   1  22
ATOM     22  O   UNL     1       5.706   5.773  16.848  0.00  0.00    +0.000 OA
BRANCH  22  23
ATOM     23  P   UNL     1       7.285   5.789  17.093  0.00  0.00    +0.000 P 
ATOM     24  O   UNL     1       7.808   4.421  17.408  0.00  0.00    +0.000 OA
BRANCH  23  25
ATOM     25  O   UNL     1       7.860   6.264  15.672  0.00  0.00    +0.000 OA
ATOM     26  H   UNL     1       8.016   7.226  15.658  0.00  0.00    +0.000 HD
ENDBRANCH  23  25
BRANCH  23  27
ATOM     27  C   UNL     1       7.836   7.052  18.230  0.00  0.00    +0.000 C 
BRANCH  27  28
ATOM     28  C   UNL     1       7.804   8.502  17.748  0.00  0.00    +0.000 C 
BRANCH  28  29
ATOM     29  C   UNL     1       8.717   9.455  18.550  0.00  0.00    +0.000 C 
BRANCH  29  30
ATOM     30  C   UNL     1       8.939  10.812  17.872  0.00  0.00    +0.000 C 
BRANCH  30  31
ATOM     31  C   UNL     1       9.746  11.786  18.702  0.00  0.00    +0.000 A 
ATOM     32  C   UNL     1      11.020  11.434  19.176  0.00  0.00    +0.000 A 
ATOM     33  C   UNL     1      11.791  12.352  19.894  0.00  0.00    +0.000 A 
ATOM     34  C   UNL     1      11.296  13.629  20.151  0.00  0.00    +0.000 A 
ATOM     35  C   UNL     1      10.031  13.986  19.693  0.00  0.00    +0.000 A 
ATOM     36  C   UNL     1       9.257  13.070  18.975  0.00  0.00    +0.000 A 
ENDBRANCH  30  31
ENDBRANCH  29  30
ENDBRANCH  28  29
ENDBRANCH  27  28
ENDBRANCH  23  27
ENDBRANCH  22  23
ENDBRANCH   1  22
TORSDOF 17
ENDMDL
MODEL 7
REMARK VINA RESULT:      -6.7      3.938      7.980
REMARK  Name = 
REMARK  18 active torsions:
REMARK  status: ('A' for Active; 'I' for Inactive)
REMARK    1  A    between atoms: C_1  and  S_2
REMARK    2  A    between atoms: S_2  and  C_3
REMARK    3  A    between atoms: C_5  and  C_6
REMARK    4  A    between atoms: C_6  and  O_8
REMARK    5  A    between atoms: C_10  and  C_12
REMARK    6  A    between atoms: C_12  and  C_13
REMARK    7  A    between atoms: C_12  and  O_18
REMARK    8  A    between atoms: C_13  and  C_14
REMARK    9  A    between atoms: C_14  and  C_15
REMARK   10  A    between atoms: C_15  and  C_16
REMARK   11  A    between atoms: C_16  and  N_17
REMARK   12  A    between atoms: O_18  and  P_19
REMARK   13  A    between atoms: P_19  and  O_21
REMARK   14  A    between atoms: P_19  and  C_22
REMARK   15  A    between atoms: C_22  and  C_23
REMARK   16  A    between atoms: C_23  and  C_24
REMARK   17  A    between atoms: C_24  and  C_25
REMARK   18  A    between atoms: C_25  and  C_26
REMARK                            x       y       z     vdW  Elec       q    Type
REMARK                         _______ _______ _______ _____ _____    ______ ____
ROOT
ATOM      1  C   UNL     1       3.592   3.568  18.273  0.00  0.00    +0.000 C 
ENDROOT
BRANCH   1   6
ATOM      2  C   UNL     1       6.459   3.947  14.867  0.00  0.00    +0.000 C 
ATOM      3  C   UNL     1       7.288   5.062  15.481  0.00  0.00    +0.000 C 
ATOM      4  C   UNL     1       7.093   4.904  16.998  0.00  0.00    +0.000 C 
ATOM      5  N   UNL     1       5.695   4.405  17.093  0.00  0.00    +0.000 N 
ATOM      6  C   UNL     1       5.069   4.126  18.299  0.00  0.00    +0.000 C 
ATOM      7  O   UNL     1       5.660   4.410  19.346  0.00  0.00    +0.000 OA
ATOM      8  C   UNL     1       5.312   3.749  15.855  0.00  0.00    +0.000 C 
BRANCH   4   9
ATOM      9  C   UNL     1       7.527   6.241  17.644  0.00  0.00    +0.000 C 
ATOM     10  O   UNL     1       7.575   7.294  17.025  0.00  0.00    +0.000 OA
BRANCH   9  11
ATOM     11  O   UNL     1       7.975   6.162  18.913  0.00  0.00    +0.000 OA
ATOM     12  H   UNL     1       7.259   6.301  19.576  0.00  0.00    +0.000 HD
ENDBRANCH   9  11
ENDBRANCH   4   9
BRANCH   2  14
ATOM     13  C   UNL     1       6.333   2.851  12.318  0.00  0.00    +0.000 C 
ATOM     14  S   UNL     1       5.803   4.333  13.209  0.00  0.00    +0.000 S 
ENDBRANCH   2  14
ENDBRANCH   1   6
BRANCH   1  15
ATOM     15  C   UNL     1       2.598   4.666  17.832  0.00  0.00    +0.000 C 
BRANCH  15  16
ATOM     16  C   UNL     1       3.186   6.089  17.768  0.00  0.00    +0.000 C 
BRANCH  16  17
ATOM     17  C   UNL     1       2.136   7.214  17.800  0.00  0.00    +0.000 C 
BRANCH  17  18
ATOM     18  C   UNL     1       2.733   8.614  17.966  0.00  0.00    +0.000 C 
BRANCH  18  19
ATOM     19  N   UNL     1       1.845   9.623  17.399  0.00  0.00    +0.000 NA
ATOM     20  H   UNL     1       2.349  10.504  17.292  0.00  0.00    +0.000 HD
ATOM     21  H   UNL     1       1.088   9.813  18.055  0.00  0.00    +0.000 HD
ENDBRANCH  18  19
ENDBRANCH  17  18
ENDBRANCH  16  17
ENDBRANCH  15  16
ENDBRANCH   1  15
BRANCH   1  22
ATOM     22  O   UNL     1       3.344   3.116  19.596  0.00  0.00    +0.000 OA
BRANCH  22  23
ATOM     23  P   UNL     1       2.244   3.534  20.676  0.00  0.00    +0.000 P 
ATOM     24  O   UNL     1       0.881   3.047  20.292  0.00  0.00    +0.000 OA
BRANCH  23  25
ATOM     25  O   UNL     1       2.733   2.764  21.996  0.00  0.00    +0.000 OA
ATOM     26  H   UNL     1       3.123   3.381  22.641  0.00  0.00    +0.000 HD
ENDBRANCH  23  25
BRANCH  23  27
ATOM     27  C   UNL     1       2.291   5.260  21.137  0.00  0.00    +0.000 C 
BRANCH  27  28
ATOM     28  C   UNL     1       1.082   6.122  20.776  0.00  0.00    +0.000 C 
BRANCH  28  29
ATOM     29  C   UNL     1       1.185   7.587  21.257  0.00  0.00    +0.000 C 
BRANCH  29  30
ATOM     30  C   UNL     1      -0.156   8.188  21.694  0.00  0.00    +0.000 C 
BRANCH  30  31
ATOM     31  C   UNL     1      -0.311   9.654  21.351  0.00  0.00    +0.000 A 
ATOM     32  C   UNL     1      -0.492  10.059  20.020  0.00  0.00    +0.000 A 
ATOM     33  C   UNL     1      -0.692  11.405  19.707  0.00  0.00    +0.000 A 
ATOM     34  C   UNL     1      -0.707  12.363  20.719  0.00  0.00    +0.000 A 
ATOM     35  C   UNL     1      -0.520  11.973  22.042  0.00  0.00    +0.000 A 
ATOM     36  C   UNL     1      -0.319  10.627  22.358  0.00  0.00    +0.000 A 
ENDBRANCH  30  31
ENDBRANCH  29  30
ENDBRANCH  28  29
ENDBRANCH  27  28
ENDBRANCH  23  27
ENDBRANCH  22  23
ENDBRANCH   1  22
TORSDOF 17
ENDMDL
MODEL 8
REMARK VINA RESULT:      -6.6      1.265      1.849
REMARK  Name = 
REMARK  18 active torsions:
REMARK  status: ('A' for Active; 'I' for Inactive)
REMARK    1  A    between atoms: C_1  and  S_2
REMARK    2  A    between atoms: S_2  and  C_3
REMARK    3  A    between atoms: C_5  and  C_6
REMARK    4  A    between atoms: C_6  and  O_8
REMARK    5  A    between atoms: C_10  and  C_12
REMARK    6  A    between atoms: C_12  and  C_13
REMARK    7  A    between atoms: C_12  and  O_18
REMARK    8  A    between atoms: C_13  and  C_14
REMARK    9  A    between atoms: C_14  and  C_15
REMARK   10  A    between atoms: C_15  and  C_16
REMARK   11  A    between atoms: C_16  and  N_17
REMARK   12  A    between atoms: O_18  and  P_19
REMARK   13  A    between atoms: P_19  and  O_21
REMARK   14  A    between atoms: P_19  and  C_22
REMARK   15  A    between atoms: C_22  and  C_23
REMARK   16  A    between atoms: C_23  and  C_24
REMARK   17  A    between atoms: C_24  and  C_25
REMARK   18  A    between atoms: C_25  and  C_26
REMARK                            x       y       z     vdW  Elec       q    Type
REMARK                         _______ _______ _______ _____ _____    ______ ____
ROOT
ATOM      1  C   UNL     1       4.743   4.543  16.841  0.00  0.00    +0.000 C 
ENDROOT
BRANCH   1   6
ATOM      2  C   UNL     1       2.427   6.882  19.863  0.00  0.00    +0.000 C 
ATOM      3  C   UNL     1       1.510   5.744  20.277  0.00  0.00    +0.000 C 
ATOM      4  C   UNL     1       2.306   4.467  19.960  0.00  0.00    +0.000 C 
ATOM      5  N   UNL     1       3.081   4.860  18.753  0.00  0.00    +0.000 N 
ATOM      6  C   UNL     1       3.948   4.001  18.094  0.00  0.00    +0.000 C 
ATOM      7  O   UNL     1       3.997   2.822  18.460  0.00  0.00    +0.000 OA
ATOM      8  C   UNL     1       3.243   6.303  18.710  0.00  0.00    +0.000 C 
BRANCH   4   9
ATOM      9  C   UNL     1       1.288   3.303  19.932  0.00  0.00    +0.000 C 
ATOM     10  O   UNL     1       0.810   2.863  18.896  0.00  0.00    +0.000 OA
BRANCH   9  11
ATOM     11  O   UNL     1       0.853   2.873  21.133  0.00  0.00    +0.000 OA
ATOM     12  H   UNL     1       1.191   3.425  21.877  0.00  0.00    +0.000 HD
ENDBRANCH   9  11
ENDBRANCH   4   9
BRANCH   2  14
ATOM     13  C   UNL     1       0.930   8.971  20.915  0.00  0.00    +0.000 C 
ATOM     14  S   UNL     1       1.549   8.387  19.321  0.00  0.00    +0.000 S 
ENDBRANCH   2  14
ENDBRANCH   1   6
BRANCH   1  15
ATOM     15  C   UNL     1       5.345   3.377  16.027  0.00  0.00    +0.000 C 
BRANCH  15  16
ATOM     16  C   UNL     1       6.206   3.801  14.821  0.00  0.00    +0.000 C 
BRANCH  16  17
ATOM     17  C   UNL     1       5.471   3.766  13.470  0.00  0.00    +0.000 C 
BRANCH  17  18
ATOM     18  C   UNL     1       6.368   3.399  12.285  0.00  0.00    +0.000 C 
BRANCH  18  19
ATOM     19  N   UNL     1       5.996   2.098  11.739  0.00  0.00    +0.000 NA
ATOM     20  H   UNL     1       6.779   1.707  11.216  0.00  0.00    +0.000 HD
ATOM     21  H   UNL     1       5.243   2.220  11.063  0.00  0.00    +0.000 HD
ENDBRANCH  18  19
ENDBRANCH  17  18
ENDBRANCH  16  17
ENDBRANCH  15  16
ENDBRANCH   1  15
BRANCH   1  22
ATOM     22  O   UNL     1       5.741   5.398  17.380  0.00  0.00    +0.000 OA
BRANCH  22  23
ATOM     23  P   UNL     1       6.535   6.634  16.752  0.00  0.00    +0.000 P 
ATOM     24  O   UNL     1       7.793   6.192  16.070  0.00  0.00    +0.000 OA
BRANCH  23  25
ATOM     25  O   UNL     1       5.505   7.198  15.658  0.00  0.00    +0.000 OA
ATOM     26  H   UNL     1       4.688   6.668  15.636  0.00  0.00    +0.000 HD
ENDBRANCH  23  25
BRANCH  23  27
ATOM     27  C   UNL     1       6.766   8.002  17.878  0.00  0.00    +0.000 C 
BRANCH  27  28
ATOM     28  C   UNL     1       7.936   8.948  17.613  0.00  0.00    +0.000 C 
BRANCH  28  29
ATOM     29  C   UNL     1       8.947   9.045  18.776  0.00  0.00    +0.000 C 
BRANCH  29  30
ATOM     30  C   UNL     1       9.021  10.437  19.415  0.00  0.00    +0.000 C 
BRANCH  30  31
ATOM     31  C   UNL     1      10.073  11.336  18.804  0.00  0.00    +0.000 A 
ATOM     32  C   UNL     1       9.780  12.103  17.665  0.00  0.00    +0.000 A 
ATOM     33  C   UNL     1      10.731  12.977  17.133  0.00  0.00    +0.000 A 
ATOM     34  C   UNL     1      11.987  13.090  17.727  0.00  0.00    +0.000 A 
ATOM     35  C   UNL     1      12.290  12.328  18.851  0.00  0.00    +0.000 A 
ATOM     36  C   UNL     1      11.342  11.452  19.386  0.00  0.00    +0.000 A 
ENDBRANCH  30  31
ENDBRANCH  29  30
ENDBRANCH  28  29
ENDBRANCH  27  28
ENDBRANCH  23  27
ENDBRANCH  22  23
ENDBRANCH   1  22
TORSDOF 17
ENDMDL
MODEL 9
REMARK VINA RESULT:      -6.6      1.526      1.834
REMARK  Name = 
REMARK  18 active torsions:
REMARK  status: ('A' for Active; 'I' for Inactive)
REMARK    1  A    between atoms: C_1  and  S_2
REMARK    2  A    between atoms: S_2  and  C_3
REMARK    3  A    between atoms: C_5  and  C_6
REMARK    4  A    between atoms: C_6  and  O_8
REMARK    5  A    between atoms: C_10  and  C_12
REMARK    6  A    between atoms: C_12  and  C_13
REMARK    7  A    between atoms: C_12  and  O_18
REMARK    8  A    between atoms: C_13  and  C_14
REMARK    9  A    between atoms: C_14  and  C_15
REMARK   10  A    between atoms: C_15  and  C_16
REMARK   11  A    between atoms: C_16  and  N_17
REMARK   12  A    between atoms: O_18  and  P_19
REMARK   13  A    between atoms: P_19  and  O_21
REMARK   14  A    between atoms: P_19  and  C_22
REMARK   15  A    between atoms: C_22  and  C_23
REMARK   16  A    between atoms: C_23  and  C_24
REMARK   17  A    between atoms: C_24  and  C_25
REMARK   18  A    between atoms: C_25  and  C_26
REMARK                            x       y       z     vdW  Elec       q    Type
REMARK                         _______ _______ _______ _____ _____    ______ ____
ROOT
ATOM      1  C   UNL     1       4.697   5.177  17.319  0.00  0.00    +0.000 C 
ENDROOT
BRANCH   1   6
ATOM      2  C   UNL     1       2.145   7.432  20.211  0.00  0.00    +0.000 C 
ATOM      3  C   UNL     1       1.365   6.227  20.709  0.00  0.00    +0.000 C 
ATOM      4  C   UNL     1       2.299   5.030  20.465  0.00  0.00    +0.000 C 
ATOM      5  N   UNL     1       3.019   5.429  19.226  0.00  0.00    +0.000 N 
ATOM      6  C   UNL     1       3.975   4.632  18.613  0.00  0.00    +0.000 C 
ATOM      7  O   UNL     1       4.159   3.493  19.054  0.00  0.00    +0.000 OA
ATOM      8  C   UNL     1       3.016   6.874  19.088  0.00  0.00    +0.000 C 
BRANCH   4   9
ATOM      9  C   UNL     1       1.419   3.759  20.525  0.00  0.00    +0.000 C 
ATOM     10  O   UNL     1       1.177   3.167  21.566  0.00  0.00    +0.000 OA
BRANCH   9  11
ATOM     11  O   UNL     1       1.028   3.259  19.336  0.00  0.00    +0.000 OA
ATOM     12  H   UNL     1       1.781   3.135  18.712  0.00  0.00    +0.000 HD
ENDBRANCH   9  11
ENDBRANCH   4   9
BRANCH   2  14
ATOM     13  C   UNL     1       1.776   8.951  17.916  0.00  0.00    +0.000 C 
ATOM     14  S   UNL     1       1.099   8.789  19.584  0.00  0.00    +0.000 S 
ENDBRANCH   2  14
ENDBRANCH   1   6
BRANCH   1  15
ATOM     15  C   UNL     1       5.249   4.013  16.467  0.00  0.00    +0.000 C 
BRANCH  15  16
ATOM     16  C   UNL     1       4.843   4.044  14.980  0.00  0.00    +0.000 C 
BRANCH  16  17
ATOM     17  C   UNL     1       5.893   4.672  14.047  0.00  0.00    +0.000 C 
BRANCH  17  18
ATOM     18  C   UNL     1       6.521   3.679  13.064  0.00  0.00    +0.000 C 
BRANCH  18  19
ATOM     19  N   UNL     1       7.312   4.380  12.058  0.00  0.00    +0.000 NA
ATOM     20  H   UNL     1       7.896   3.713  11.553  0.00  0.00    +0.000 HD
ATOM     21  H   UNL     1       7.957   5.019  12.522  0.00  0.00    +0.000 HD
ENDBRANCH  18  19
ENDBRANCH  17  18
ENDBRANCH  16  17
ENDBRANCH  15  16
ENDBRANCH   1  15
BRANCH   1  22
ATOM     22  O   UNL     1       5.726   6.028  17.802  0.00  0.00    +0.000 OA
BRANCH  22  23
ATOM     23  P   UNL     1       7.317   5.887  17.791  0.00  0.00    +0.000 P 
ATOM     24  O   UNL     1       7.752   4.517  18.212  0.00  0.00    +0.000 OA
BRANCH  23  25
ATOM     25  O   UNL     1       7.682   6.110  16.244  0.00  0.00    +0.000 OA
ATOM     26  H   UNL     1       6.919   5.917  15.670  0.00  0.00    +0.000 HD
ENDBRANCH  23  25
BRANCH  23  27
ATOM     27  C   UNL     1       8.175   7.208  18.635  0.00  0.00    +0.000 C 
BRANCH  27  28
ATOM     28  C   UNL     1       8.111   8.603  18.017  0.00  0.00    +0.000 C 
BRANCH  28  29
ATOM     29  C   UNL     1       8.928   9.670  18.779  0.00  0.00    +0.000 C 
BRANCH  29  30
ATOM     30  C   UNL     1       9.415  10.823  17.893  0.00  0.00    +0.000 C 
BRANCH  30  31
ATOM     31  C   UNL     1      10.183  11.889  18.642  0.00  0.00    +0.000 A 
ATOM     32  C   UNL     1       9.518  12.770  19.510  0.00  0.00    +0.000 A 
ATOM     33  C   UNL     1      10.232  13.718  20.247  0.00  0.00    +0.000 A 
ATOM     34  C   UNL     1      11.617  13.801  20.120  0.00  0.00    +0.000 A 
ATOM     35  C   UNL     1      12.286  12.938  19.257  0.00  0.00    +0.000 A 
ATOM     36  C   UNL     1      11.574  11.990  18.518  0.00  0.00    +0.000 A 
ENDBRANCH  30  31
ENDBRANCH  29  30
ENDBRANCH  28  29
ENDBRANCH  27  28
ENDBRANCH  23  27
ENDBRANCH  22  23
ENDBRANCH   1  22
TORSDOF 17
ENDMDL
