MODEL 1
REMARK VINA RESULT:      -7.9      0.000      0.000
REMARK  Name = 
REMARK  4 active torsions:
REMARK  status: ('A' for Active; 'I' for Inactive)
REMARK    1  A    between atoms: N_3  and  C_4
REMARK    2  A    between atoms: C_7  and  C_8
REMARK    3  A    between atoms: C_8  and  O_10
REMARK    4  A    between atoms: N_13  and  C_14
REMARK                            x       y       z     vdW  Elec       q    Type
REMARK                         _______ _______ _______ _____ _____    ______ ____
ROOT
ATOM      1  O   UNL     1       3.205   5.119  20.126  0.00  0.00    +0.000 OA
ATOM      2  C   UNL     1       2.829   6.240  19.764  0.00  0.00    +0.000 C 
ATOM      3  N   UNL     1       3.222   6.865  18.625  0.00  0.00    +0.000 N 
ATOM      4  N   UNL     1       2.007   6.817  20.655  0.00  0.00    +0.000 N 
ATOM      5  H   UNL     1       3.040   7.858  18.569  0.00  0.00    +0.000 HD
ATOM      6  H   UNL     1       1.903   6.186  21.441  0.00  0.00    +0.000 HD
ENDROOT
BRANCH   4   7
ATOM      7  C   UNL     1       1.332   7.992  20.783  0.00  0.00    +0.000 A 
ATOM      8  C   UNL     1       0.699   8.391  21.940  0.00  0.00    +0.000 A 
ATOM      9  C   UNL     1       0.125   9.648  21.686  0.00  0.00    +0.000 A 
ATOM     10  C   UNL     1      -0.608  10.562  22.460  0.00  0.00    +0.000 A 
ATOM     11  C   UNL     1      -1.061  11.730  21.850  0.00  0.00    +0.000 A 
ATOM     12 BR   UNL     1      -2.036  12.982  22.884  0.00  0.00    +0.000 Br
ATOM     13  C   UNL     1      -0.805  11.983  20.500  0.00  0.00    +0.000 A 
ATOM     14  C   UNL     1      -0.056  11.082  19.718  0.00  0.00    +0.000 A 
ATOM     15  C   UNL     1       0.406   9.926  20.349  0.00  0.00    +0.000 A 
ATOM     16  O   UNL     1       1.175   8.915  19.799  0.00  0.00    +0.000 OA
ENDBRANCH   4   7
BRANCH   3  17
ATOM     17  C   UNL     1       4.130   6.270  17.694  0.00  0.00    +0.000 A 
ATOM     18  C   UNL     1       5.284   6.926  17.244  0.00  0.00    +0.000 A 
ATOM     19  C   UNL     1       6.108   6.382  16.255  0.00  0.00    +0.000 A 
ATOM     20  C   UNL     1       5.810   5.138  15.704  0.00  0.00    +0.000 A 
ATOM     21  C   UNL     1       4.704   4.428  16.192  0.00  0.00    +0.000 A 
ATOM     22  C   UNL     1       3.872   4.991  17.185  0.00  0.00    +0.000 A 
BRANCH  20  23
ATOM     23  C   UNL     1       6.727   4.625  14.647  0.00  0.00    +0.000 C 
ATOM     24  O   UNL     1       7.701   5.244  14.256  0.00  0.00    +0.000 OA
BRANCH  23  25
ATOM     25  O   UNL     1       6.356   3.438  14.125  0.00  0.00    +0.000 OA
ATOM     26  H   UNL     1       6.649   2.656  14.624  0.00  0.00    +0.000 HD
ENDBRANCH  23  25
ENDBRANCH  20  23
ENDBRANCH   3  17
TORSDOF 4
ENDMDL
MODEL 2
REMARK VINA RESULT:      -7.7      0.404      1.053
REMARK  Name = 
REMARK  4 active torsions:
REMARK  status: ('A' for Active; 'I' for Inactive)
REMARK    1  A    between atoms: N_3  and  C_4
REMARK    2  A    between atoms: C_7  and  C_8
REMARK    3  A    between atoms: C_8  and  O_10
REMARK    4  A    between atoms: N_13  and  C_14
REMARK                            x       y       z     vdW  Elec       q    Type
REMARK                         _______ _______ _______ _____ _____    ______ ____
ROOT
ATOM      1  O   UNL     1       3.039   5.284  20.217  0.00  0.00    +0.000 OA
ATOM      2  C   UNL     1       2.597   6.382  19.862  0.00  0.00    +0.000 C 
ATOM      3  N   UNL     1       2.884   6.996  18.686  0.00  0.00    +0.000 N 
ATOM      4  N   UNL     1       1.823   6.951  20.800  0.00  0.00    +0.000 N 
ATOM      5  H   UNL     1       2.661   7.981  18.624  0.00  0.00    +0.000 HD
ATOM      6  H   UNL     1       1.799   6.333  21.603  0.00  0.00    +0.000 HD
ENDROOT
BRANCH   4   7
ATOM      7  C   UNL     1       1.117   8.103  20.955  0.00  0.00    +0.000 A 
ATOM      8  C   UNL     1       0.540   8.497  22.144  0.00  0.00    +0.000 A 
ATOM      9  C   UNL     1      -0.089   9.730  21.911  0.00  0.00    +0.000 A 
ATOM     10  C   UNL     1      -0.806  10.629  22.717  0.00  0.00    +0.000 A 
ATOM     11  C   UNL     1      -1.334  11.774  22.122  0.00  0.00    +0.000 A 
ATOM     12 BR   UNL     1      -2.288  13.006  23.198  0.00  0.00    +0.000 Br
ATOM     13  C   UNL     1      -1.168  12.017  20.757  0.00  0.00    +0.000 A 
ATOM     14  C   UNL     1      -0.437  11.132  19.941  0.00  0.00    +0.000 A 
ATOM     15  C   UNL     1       0.101  10.000  20.556  0.00  0.00    +0.000 A 
ATOM     16  O   UNL     1       0.870   9.009  19.972  0.00  0.00    +0.000 OA
ENDBRANCH   4   7
BRANCH   3  17
ATOM     17  C   UNL     1       3.742   6.413  17.702  0.00  0.00    +0.000 A 
ATOM     18  C   UNL     1       3.763   5.035  17.443  0.00  0.00    +0.000 A 
ATOM     19  C   UNL     1       4.680   4.461  16.558  0.00  0.00    +0.000 A 
ATOM     20  C   UNL     1       5.592   5.265  15.878  0.00  0.00    +0.000 A 
ATOM     21  C   UNL     1       5.539   6.654  16.062  0.00  0.00    +0.000 A 
ATOM     22  C   UNL     1       4.616   7.224  16.967  0.00  0.00    +0.000 A 
BRANCH  20  23
ATOM     23  C   UNL     1       6.545   4.583  14.958  0.00  0.00    +0.000 C 
ATOM     24  O   UNL     1       7.562   5.113  14.545  0.00  0.00    +0.000 OA
BRANCH  23  25
ATOM     25  O   UNL     1       6.159   3.347  14.581  0.00  0.00    +0.000 OA
ATOM     26  H   UNL     1       6.831   2.652  14.688  0.00  0.00    +0.000 HD
ENDBRANCH  23  25
ENDBRANCH  20  23
ENDBRANCH   3  17
TORSDOF 4
ENDMDL
MODEL 3
REMARK VINA RESULT:      -7.5      5.269      7.445
REMARK  Name = 
REMARK  4 active torsions:
REMARK  status: ('A' for Active; 'I' for Inactive)
REMARK    1  A    between atoms: N_3  and  C_4
REMARK    2  A    between atoms: C_7  and  C_8
REMARK    3  A    between atoms: C_8  and  O_10
REMARK    4  A    between atoms: N_13  and  C_14
REMARK                            x       y       z     vdW  Elec       q    Type
REMARK                         _______ _______ _______ _____ _____    ______ ____
ROOT
ATOM      1  O   UNL     1       6.415   5.064  16.520  0.00  0.00    +0.000 OA
ATOM      2  C   UNL     1       6.393   6.042  17.277  0.00  0.00    +0.000 C 
ATOM      3  N   UNL     1       5.445   6.280  18.218  0.00  0.00    +0.000 N 
ATOM      4  N   UNL     1       7.401   6.897  17.038  0.00  0.00    +0.000 N 
ATOM      5  H   UNL     1       5.406   7.219  18.593  0.00  0.00    +0.000 HD
ATOM      6  H   UNL     1       7.942   6.534  16.262  0.00  0.00    +0.000 HD
ENDROOT
BRANCH   4   7
ATOM      7  C   UNL     1       7.845   8.086  17.528  0.00  0.00    +0.000 A 
ATOM      8  C   UNL     1       8.564   8.215  18.696  0.00  0.00    +0.000 A 
ATOM      9  C   UNL     1       8.843   9.582  18.862  0.00  0.00    +0.000 A 
ATOM     10  C   UNL     1       9.549  10.325  19.822  0.00  0.00    +0.000 A 
ATOM     11  C   UNL     1       9.592  11.712  19.683  0.00  0.00    +0.000 A 
ATOM     12 BR   UNL     1      10.556  12.728  20.957  0.00  0.00    +0.000 Br
ATOM     13  C   UNL     1       8.939  12.349  18.626  0.00  0.00    +0.000 A 
ATOM     14  C   UNL     1       8.242  11.614  17.648  0.00  0.00    +0.000 A 
ATOM     15  C   UNL     1       8.224  10.225  17.792  0.00  0.00    +0.000 A 
ATOM     16  O   UNL     1       7.631   9.298  16.952  0.00  0.00    +0.000 OA
ENDBRANCH   4   7
BRANCH   3  17
ATOM     17  C   UNL     1       4.347   5.392  18.446  0.00  0.00    +0.000 A 
ATOM     18  C   UNL     1       3.106   5.551  17.813  0.00  0.00    +0.000 A 
ATOM     19  C   UNL     1       2.007   4.745  18.123  0.00  0.00    +0.000 A 
ATOM     20  C   UNL     1       2.131   3.727  19.065  0.00  0.00    +0.000 A 
ATOM     21  C   UNL     1       3.382   3.499  19.656  0.00  0.00    +0.000 A 
ATOM     22  C   UNL     1       4.485   4.326  19.344  0.00  0.00    +0.000 A 
BRANCH  20  23
ATOM     23  C   UNL     1       0.916   2.913  19.352  0.00  0.00    +0.000 C 
ATOM     24  O   UNL     1       0.330   2.273  18.497  0.00  0.00    +0.000 OA
BRANCH  23  25
ATOM     25  O   UNL     1       0.491   2.989  20.630  0.00  0.00    +0.000 OA
ATOM     26  H   UNL     1      -0.076   3.753  20.833  0.00  0.00    +0.000 HD
ENDBRANCH  23  25
ENDBRANCH  20  23
ENDBRANCH   3  17
TORSDOF 4
ENDMDL
MODEL 4
REMARK VINA RESULT:      -7.4      2.896      3.707
REMARK  Name = 
REMARK  4 active torsions:
REMARK  status: ('A' for Active; 'I' for Inactive)
REMARK    1  A    between atoms: N_3  and  C_4
REMARK    2  A    between atoms: C_7  and  C_8
REMARK    3  A    between atoms: C_8  and  O_10
REMARK    4  A    between atoms: N_13  and  C_14
REMARK                            x       y       z     vdW  Elec       q    Type
REMARK                         _______ _______ _______ _____ _____    ______ ____
ROOT
ATOM      1  O   UNL     1       2.875   7.710  17.740  0.00  0.00    +0.000 OA
ATOM      2  C   UNL     1       2.221   7.842  18.781  0.00  0.00    +0.000 C 
ATOM      3  N   UNL     1       2.074   6.889  19.736  0.00  0.00    +0.000 N 
ATOM      4  N   UNL     1       1.611   9.035  18.854  0.00  0.00    +0.000 N 
ATOM      5  H   UNL     1       1.328   7.031  20.404  0.00  0.00    +0.000 HD
ATOM      6  H   UNL     1       1.826   9.550  18.008  0.00  0.00    +0.000 HD
ENDROOT
BRANCH   4   7
ATOM      7  C   UNL     1       0.792   9.692  19.720  0.00  0.00    +0.000 A 
ATOM      8  C   UNL     1      -0.006  10.757  19.364  0.00  0.00    +0.000 A 
ATOM      9  C   UNL     1      -0.702  11.157  20.517  0.00  0.00    +0.000 A 
ATOM     10  C   UNL     1      -1.664  12.145  20.784  0.00  0.00    +0.000 A 
ATOM     11  C   UNL     1      -2.122  12.284  22.093  0.00  0.00    +0.000 A 
ATOM     12 BR   UNL     1      -3.432  13.599  22.468  0.00  0.00    +0.000 Br
ATOM     13  C   UNL     1      -1.630  11.472  23.118  0.00  0.00    +0.000 A 
ATOM     14  C   UNL     1      -0.678  10.467  22.859  0.00  0.00    +0.000 A 
ATOM     15  C   UNL     1      -0.244  10.329  21.539  0.00  0.00    +0.000 A 
ATOM     16  O   UNL     1       0.659   9.405  21.042  0.00  0.00    +0.000 OA
ENDBRANCH   4   7
BRANCH   3  17
ATOM     17  C   UNL     1       2.688   5.601  19.640  0.00  0.00    +0.000 A 
ATOM     18  C   UNL     1       1.957   4.409  19.747  0.00  0.00    +0.000 A 
ATOM     19  C   UNL     1       2.579   3.157  19.759  0.00  0.00    +0.000 A 
ATOM     20  C   UNL     1       3.963   3.064  19.636  0.00  0.00    +0.000 A 
ATOM     21  C   UNL     1       4.708   4.237  19.452  0.00  0.00    +0.000 A 
ATOM     22  C   UNL     1       4.072   5.498  19.450  0.00  0.00    +0.000 A 
BRANCH  20  23
ATOM     23  C   UNL     1       4.558   1.697  19.667  0.00  0.00    +0.000 C 
ATOM     24  O   UNL     1       5.308   1.321  20.550  0.00  0.00    +0.000 OA
BRANCH  23  25
ATOM     25  O   UNL     1       4.232   0.930  18.606  0.00  0.00    +0.000 OA
ATOM     26  H   UNL     1       4.009   1.419  17.795  0.00  0.00    +0.000 HD
ENDBRANCH  23  25
ENDBRANCH  20  23
ENDBRANCH   3  17
TORSDOF 4
ENDMDL
MODEL 5
REMARK VINA RESULT:      -7.4      5.343      7.405
REMARK  Name = 
REMARK  4 active torsions:
REMARK  status: ('A' for Active; 'I' for Inactive)
REMARK    1  A    between atoms: N_3  and  C_4
REMARK    2  A    between atoms: C_7  and  C_8
REMARK    3  A    between atoms: C_8  and  O_10
REMARK    4  A    between atoms: N_13  and  C_14
REMARK                            x       y       z     vdW  Elec       q    Type
REMARK                         _______ _______ _______ _____ _____    ______ ____
ROOT
ATOM      1  O   UNL     1       6.949   6.109  16.196  0.00  0.00    +0.000 OA
ATOM      2  C   UNL     1       6.949   6.864  17.175  0.00  0.00    +0.000 C 
ATOM      3  N   UNL     1       6.098   6.776  18.228  0.00  0.00    +0.000 N 
ATOM      4  N   UNL     1       7.867   7.839  17.070  0.00  0.00    +0.000 N 
ATOM      5  H   UNL     1       6.041   7.586  18.832  0.00  0.00    +0.000 HD
ATOM      6  H   UNL     1       8.341   7.728  16.181  0.00  0.00    +0.000 HD
ENDROOT
BRANCH   4   7
ATOM      7  C   UNL     1       8.286   8.905  17.803  0.00  0.00    +0.000 A 
ATOM      8  C   UNL     1       8.297  10.202  17.335  0.00  0.00    +0.000 A 
ATOM      9  C   UNL     1       8.785  11.012  18.374  0.00  0.00    +0.000 A 
ATOM     10  C   UNL     1       8.999  12.393  18.517  0.00  0.00    +0.000 A 
ATOM     11  C   UNL     1       9.546  12.856  19.713  0.00  0.00    +0.000 A 
ATOM     12 BR   UNL     1       9.824  14.717  19.930  0.00  0.00    +0.000 Br
ATOM     13  C   UNL     1       9.886  11.972  20.739  0.00  0.00    +0.000 A 
ATOM     14  C   UNL     1       9.660  10.587  20.614  0.00  0.00    +0.000 A 
ATOM     15  C   UNL     1       9.095  10.142  19.417  0.00  0.00    +0.000 A 
ATOM     16  O   UNL     1       8.760   8.843  19.075  0.00  0.00    +0.000 OA
ENDBRANCH   4   7
BRANCH   3  17
ATOM     17  C   UNL     1       5.091   5.765  18.323  0.00  0.00    +0.000 A 
ATOM     18  C   UNL     1       5.346   4.499  18.868  0.00  0.00    +0.000 A 
ATOM     19  C   UNL     1       4.386   3.482  18.858  0.00  0.00    +0.000 A 
ATOM     20  C   UNL     1       3.123   3.718  18.321  0.00  0.00    +0.000 A 
ATOM     21  C   UNL     1       2.821   4.999  17.840  0.00  0.00    +0.000 A 
ATOM     22  C   UNL     1       3.799   6.018  17.845  0.00  0.00    +0.000 A 
BRANCH  20  23
ATOM     23  C   UNL     1       2.156   2.585  18.336  0.00  0.00    +0.000 C 
ATOM     24  O   UNL     1       0.952   2.739  18.226  0.00  0.00    +0.000 OA
BRANCH  23  25
ATOM     25  O   UNL     1       2.724   1.377  18.534  0.00  0.00    +0.000 OA
ATOM     26  H   UNL     1       3.374   1.338  19.256  0.00  0.00    +0.000 HD
ENDBRANCH  23  25
ENDBRANCH  20  23
ENDBRANCH   3  17
TORSDOF 4
ENDMDL
MODEL 6
REMARK VINA RESULT:      -7.3      0.846      1.372
REMARK  Name = 
REMARK  4 active torsions:
REMARK  status: ('A' for Active; 'I' for Inactive)
REMARK    1  A    between atoms: N_3  and  C_4
REMARK    2  A    between atoms: C_7  and  C_8
REMARK    3  A    between atoms: C_8  and  O_10
REMARK    4  A    between atoms: N_13  and  C_14
REMARK                            x       y       z     vdW  Elec       q    Type
REMARK                         _______ _______ _______ _____ _____    ______ ____
ROOT
ATOM      1  O   UNL     1       3.049   5.026  20.183  0.00  0.00    +0.000 OA
ATOM      2  C   UNL     1       2.719   6.174  19.865  0.00  0.00    +0.000 C 
ATOM      3  N   UNL     1       3.159   6.835  18.763  0.00  0.00    +0.000 N 
ATOM      4  N   UNL     1       1.900   6.741  20.764  0.00  0.00    +0.000 N 
ATOM      5  H   UNL     1       3.013   7.836  18.748  0.00  0.00    +0.000 HD
ATOM      6  H   UNL     1       1.757   6.079  21.519  0.00  0.00    +0.000 HD
ENDROOT
BRANCH   4   7
ATOM      7  C   UNL     1       1.264   7.932  20.932  0.00  0.00    +0.000 A 
ATOM      8  C   UNL     1       1.139   8.882  19.942  0.00  0.00    +0.000 A 
ATOM      9  C   UNL     1       0.422   9.959  20.488  0.00  0.00    +0.000 A 
ATOM     10  C   UNL     1      -0.037  11.185  19.981  0.00  0.00    +0.000 A 
ATOM     11  C   UNL     1      -0.705  12.050  20.847  0.00  0.00    +0.000 A 
ATOM     12 BR   UNL     1      -1.346  13.700  20.174  0.00  0.00    +0.000 Br
ATOM     13  C   UNL     1      -0.903  11.714  22.188  0.00  0.00    +0.000 A 
ATOM     14  C   UNL     1      -0.463  10.480  22.704  0.00  0.00    +0.000 A 
ATOM     15  C   UNL     1       0.188   9.618  21.820  0.00  0.00    +0.000 A 
ATOM     16  O   UNL     1       0.684   8.354  22.086  0.00  0.00    +0.000 OA
ENDBRANCH   4   7
BRANCH   3  17
ATOM     17  C   UNL     1       4.066   6.249  17.825  0.00  0.00    +0.000 A 
ATOM     18  C   UNL     1       5.230   6.902  17.396  0.00  0.00    +0.000 A 
ATOM     19  C   UNL     1       6.053   6.369  16.399  0.00  0.00    +0.000 A 
ATOM     20  C   UNL     1       5.744   5.142  15.819  0.00  0.00    +0.000 A 
ATOM     21  C   UNL     1       4.626   4.435  16.286  0.00  0.00    +0.000 A 
ATOM     22  C   UNL     1       3.795   4.985  17.286  0.00  0.00    +0.000 A 
BRANCH  20  23
ATOM     23  C   UNL     1       6.661   4.641  14.757  0.00  0.00    +0.000 C 
ATOM     24  O   UNL     1       7.613   5.282  14.347  0.00  0.00    +0.000 OA
BRANCH  23  25
ATOM     25  O   UNL     1       6.315   3.439  14.252  0.00  0.00    +0.000 OA
ATOM     26  H   UNL     1       6.996   2.748  14.325  0.00  0.00    +0.000 HD
ENDBRANCH  23  25
ENDBRANCH  20  23
ENDBRANCH   3  17
TORSDOF 4
ENDMDL
MODEL 7
REMARK VINA RESULT:      -7.3      3.009      3.743
REMARK  Name = 
REMARK  4 active torsions:
REMARK  status: ('A' for Active; 'I' for Inactive)
REMARK    1  A    between atoms: N_3  and  C_4
REMARK    2  A    between atoms: C_7  and  C_8
REMARK    3  A    between atoms: C_8  and  O_10
REMARK    4  A    between atoms: N_13  and  C_14
REMARK                            x       y       z     vdW  Elec       q    Type
REMARK                         _______ _______ _______ _____ _____    ______ ____
ROOT
ATOM      1  O   UNL     1       2.372   7.990  17.711  0.00  0.00    +0.000 OA
ATOM      2  C   UNL     1       1.961   8.274  18.842  0.00  0.00    +0.000 C 
ATOM      3  N   UNL     1       1.989   7.441  19.914  0.00  0.00    +0.000 N 
ATOM      4  N   UNL     1       1.422   9.502  18.898  0.00  0.00    +0.000 N 
ATOM      5  H   UNL     1       1.409   7.699  20.701  0.00  0.00    +0.000 HD
ATOM      6  H   UNL     1       1.468   9.907  17.971  0.00  0.00    +0.000 HD
ENDROOT
BRANCH   4   7
ATOM      7  C   UNL     1       0.831  10.296  19.831  0.00  0.00    +0.000 A 
ATOM      8  C   UNL     1       1.040  11.655  19.927  0.00  0.00    +0.000 A 
ATOM      9  C   UNL     1       0.259  12.120  20.998  0.00  0.00    +0.000 A 
ATOM     10  C   UNL     1       0.028  13.385  21.562  0.00  0.00    +0.000 A 
ATOM     11  C   UNL     1      -0.807  13.470  22.675  0.00  0.00    +0.000 A 
ATOM     12 BR   UNL     1      -1.144  15.171  23.436  0.00  0.00    +0.000 Br
ATOM     13  C   UNL     1      -1.390  12.327  23.226  0.00  0.00    +0.000 A 
ATOM     14  C   UNL     1      -1.180  11.055  22.660  0.00  0.00    +0.000 A 
ATOM     15  C   UNL     1      -0.356  10.990  21.534  0.00  0.00    +0.000 A 
ATOM     16  O   UNL     1      -0.025   9.867  20.796  0.00  0.00    +0.000 OA
ENDBRANCH   4   7
BRANCH   3  17
ATOM     17  C   UNL     1       2.524   6.117  19.846  0.00  0.00    +0.000 A 
ATOM     18  C   UNL     1       3.806   5.847  19.347  0.00  0.00    +0.000 A 
ATOM     19  C   UNL     1       4.279   4.541  19.185  0.00  0.00    +0.000 A 
ATOM     20  C   UNL     1       3.481   3.460  19.549  0.00  0.00    +0.000 A 
ATOM     21  C   UNL     1       2.225   3.706  20.122  0.00  0.00    +0.000 A 
ATOM     22  C   UNL     1       1.752   5.028  20.273  0.00  0.00    +0.000 A 
BRANCH  20  23
ATOM     23  C   UNL     1       4.047   2.097  19.339  0.00  0.00    +0.000 C 
ATOM     24  O   UNL     1       3.590   1.306  18.533  0.00  0.00    +0.000 OA
BRANCH  23  25
ATOM     25  O   UNL     1       5.078   1.796  20.156  0.00  0.00    +0.000 OA
ATOM     26  H   UNL     1       5.327   2.497  20.783  0.00  0.00    +0.000 HD
ENDBRANCH  23  25
ENDBRANCH  20  23
ENDBRANCH   3  17
TORSDOF 4
ENDMDL
MODEL 8
REMARK VINA RESULT:      -7.2      0.860      1.687
REMARK  Name = 
REMARK  4 active torsions:
REMARK  status: ('A' for Active; 'I' for Inactive)
REMARK    1  A    between atoms: N_3  and  C_4
REMARK    2  A    between atoms: C_7  and  C_8
REMARK    3  A    between atoms: C_8  and  O_10
REMARK    4  A    between atoms: N_13  and  C_14
REMARK                            x       y       z     vdW  Elec       q    Type
REMARK                         _______ _______ _______ _____ _____    ______ ____
ROOT
ATOM      1  O   UNL     1       3.226   5.164  20.206  0.00  0.00    +0.000 OA
ATOM      2  C   UNL     1       2.758   6.263  19.885  0.00  0.00    +0.000 C 
ATOM      3  N   UNL     1       3.013   6.909  18.719  0.00  0.00    +0.000 N 
ATOM      4  N   UNL     1       1.990   6.794  20.850  0.00  0.00    +0.000 N 
ATOM      5  H   UNL     1       2.772   7.892  18.685  0.00  0.00    +0.000 HD
ATOM      6  H   UNL     1       1.991   6.157  21.638  0.00  0.00    +0.000 HD
ENDROOT
BRANCH   4   7
ATOM      7  C   UNL     1       1.266   7.930  21.044  0.00  0.00    +0.000 A 
ATOM      8  C   UNL     1       1.056   8.883  20.071  0.00  0.00    +0.000 A 
ATOM      9  C   UNL     1       0.266   9.893  20.644  0.00  0.00    +0.000 A 
ATOM     10  C   UNL     1      -0.293  11.088  20.163  0.00  0.00    +0.000 A 
ATOM     11  C   UNL     1      -1.014  11.885  21.051  0.00  0.00    +0.000 A 
ATOM     12 BR   UNL     1      -1.789  13.491  20.414  0.00  0.00    +0.000 Br
ATOM     13  C   UNL     1      -1.168  11.514  22.388  0.00  0.00    +0.000 A 
ATOM     14  C   UNL     1      -0.627  10.310  22.879  0.00  0.00    +0.000 A 
ATOM     15  C   UNL     1       0.077   9.514  21.973  0.00  0.00    +0.000 A 
ATOM     16  O   UNL     1       0.671   8.288  22.212  0.00  0.00    +0.000 OA
ENDBRANCH   4   7
BRANCH   3  17
ATOM     17  C   UNL     1       3.865   6.366  17.707  0.00  0.00    +0.000 A 
ATOM     18  C   UNL     1       3.854   5.006  17.366  0.00  0.00    +0.000 A 
ATOM     19  C   UNL     1       4.764   4.464  16.453  0.00  0.00    +0.000 A 
ATOM     20  C   UNL     1       5.700   5.285  15.829  0.00  0.00    +0.000 A 
ATOM     21  C   UNL     1       5.680   6.661  16.097  0.00  0.00    +0.000 A 
ATOM     22  C   UNL     1       4.764   7.198  17.028  0.00  0.00    +0.000 A 
BRANCH  20  23
ATOM     23  C   UNL     1       6.644   4.637  14.875  0.00  0.00    +0.000 C 
ATOM     24  O   UNL     1       7.685   5.158  14.515  0.00  0.00    +0.000 OA
BRANCH  23  25
ATOM     25  O   UNL     1       6.221   3.445  14.405  0.00  0.00    +0.000 OA
ATOM     26  H   UNL     1       5.277   3.404  14.171  0.00  0.00    +0.000 HD
ENDBRANCH  23  25
ENDBRANCH  20  23
ENDBRANCH   3  17
TORSDOF 4
ENDMDL
MODEL 9
REMARK VINA RESULT:      -7.2      3.849      8.971
REMARK  Name = 
REMARK  4 active torsions:
REMARK  status: ('A' for Active; 'I' for Inactive)
REMARK    1  A    between atoms: N_3  and  C_4
REMARK    2  A    between atoms: C_7  and  C_8
REMARK    3  A    between atoms: C_8  and  O_10
REMARK    4  A    between atoms: N_13  and  C_14
REMARK                            x       y       z     vdW  Elec       q    Type
REMARK                         _______ _______ _______ _____ _____    ______ ____
ROOT
ATOM      1  O   UNL     1       1.102   7.409  21.140  0.00  0.00    +0.000 OA
ATOM      2  C   UNL     1       1.828   7.524  20.146  0.00  0.00    +0.000 C 
ATOM      3  N   UNL     1       1.770   8.544  19.252  0.00  0.00    +0.000 N 
ATOM      4  N   UNL     1       2.669   6.487  20.003  0.00  0.00    +0.000 N 
ATOM      5  H   UNL     1       2.238   8.396  18.367  0.00  0.00    +0.000 HD
ATOM      6  H   UNL     1       2.491   5.833  20.756  0.00  0.00    +0.000 HD
ENDROOT
BRANCH   4   7
ATOM      7  C   UNL     1       3.634   6.092  19.130  0.00  0.00    +0.000 A 
ATOM      8  C   UNL     1       3.487   6.113  17.760  0.00  0.00    +0.000 A 
ATOM      9  C   UNL     1       4.688   5.642  17.206  0.00  0.00    +0.000 A 
ATOM     10  C   UNL     1       5.155   5.461  15.894  0.00  0.00    +0.000 A 
ATOM     11  C   UNL     1       6.428   4.921  15.713  0.00  0.00    +0.000 A 
ATOM     12 BR   UNL     1       7.079   4.688  13.951  0.00  0.00    +0.000 Br
ATOM     13  C   UNL     1       7.216   4.558  16.807  0.00  0.00    +0.000 A 
ATOM     14  C   UNL     1       6.767   4.750  18.128  0.00  0.00    +0.000 A 
ATOM     15  C   UNL     1       5.497   5.308  18.291  0.00  0.00    +0.000 A 
ATOM     16  O   UNL     1       4.857   5.613  19.480  0.00  0.00    +0.000 OA
ENDBRANCH   4   7
BRANCH   3  17
ATOM     17  C   UNL     1       0.847   9.628  19.378  0.00  0.00    +0.000 A 
ATOM     18  C   UNL     1       0.786  10.435  20.523  0.00  0.00    +0.000 A 
ATOM     19  C   UNL     1      -0.191  11.423  20.682  0.00  0.00    +0.000 A 
ATOM     20  C   UNL     1      -1.125  11.650  19.675  0.00  0.00    +0.000 A 
ATOM     21  C   UNL     1      -1.037  10.908  18.489  0.00  0.00    +0.000 A 
ATOM     22  C   UNL     1      -0.053   9.905  18.341  0.00  0.00    +0.000 A 
BRANCH  20  23
ATOM     23  C   UNL     1      -2.142  12.712  19.918  0.00  0.00    +0.000 C 
ATOM     24  O   UNL     1      -1.997  13.590  20.750  0.00  0.00    +0.000 OA
BRANCH  23  25
ATOM     25  O   UNL     1      -3.258  12.587  19.171  0.00  0.00    +0.000 OA
ATOM     26  H   UNL     1      -3.264  11.833  18.557  0.00  0.00    +0.000 HD
ENDBRANCH  23  25
ENDBRANCH  20  23
ENDBRANCH   3  17
TORSDOF 4
ENDMDL
