MODEL 1
REMARK VINA RESULT:      -7.9      0.000      0.000
REMARK  Name = 
REMARK  6 active torsions:
REMARK  status: ('A' for Active; 'I' for Inactive)
REMARK    1  A    between atoms: S_2  and  C_4
REMARK    2  A    between atoms: S_2  and  N_10
REMARK    3  A    between atoms: C_14  and  O_15
REMARK    4  A    between atoms: O_15  and  C_16
REMARK    5  A    between atoms: C_16  and  C_17
REMARK    6  A    between atoms: C_17  and  N_18
REMARK                            x       y       z     vdW  Elec       q    Type
REMARK                         _______ _______ _______ _____ _____    ______ ____
ROOT
ATOM      1  N   UNL     1       5.287   5.697  16.466  0.00  0.00    +0.000 N 
ATOM      2  C   UNL     1       4.914   7.009  16.514  0.00  0.00    +0.000 A 
ATOM      3  C   UNL     1       4.496   7.179  17.807  0.00  0.00    +0.000 A 
ATOM      4  C   UNL     1       3.720   5.989  17.934  0.00  0.00    +0.000 A 
ATOM      5  C   UNL     1       2.470   5.790  18.519  0.00  0.00    +0.000 A 
ATOM      6  C   UNL     1       1.857   4.545  18.302  0.00  0.00    +0.000 A 
ATOM      7  C   UNL     1       2.524   3.505  17.636  0.00  0.00    +0.000 A 
ATOM      8  C   UNL     1       3.797   3.694  17.074  0.00  0.00    +0.000 A 
ATOM      9  C   UNL     1       4.324   4.992  17.154  0.00  0.00    +0.000 A 
ENDROOT
BRANCH   1  11
ATOM     10  O   UNL     1       7.178   4.120  16.932  0.00  0.00    +0.000 OA
ATOM     11  S   UNL     1       6.885   5.272  16.097  0.00  0.00    +0.000 S 
ATOM     12  O   UNL     1       7.661   6.494  16.167  0.00  0.00    +0.000 OA
BRANCH  11  13
ATOM     13  C   UNL     1       6.833   4.706  14.393  0.00  0.00    +0.000 A 
ATOM     14  C   UNL     1       7.742   5.260  13.454  0.00  0.00    +0.000 A 
ATOM     15  C   UNL     1       7.682   4.827  12.124  0.00  0.00    +0.000 A 
ATOM     16  C   UNL     1       6.734   3.887  11.728  0.00  0.00    +0.000 A 
ATOM     17  C   UNL     1       5.846   3.360  12.666  0.00  0.00    +0.000 A 
ATOM     18  C   UNL     1       5.904   3.768  14.002  0.00  0.00    +0.000 A 
ENDBRANCH  11  13
ENDBRANCH   1  11
BRANCH   5  19
ATOM     19  O   UNL     1       1.903   6.903  19.085  0.00  0.00    +0.000 OA
BRANCH  19  20
ATOM     20  C   UNL     1       1.593   6.756  20.452  0.00  0.00    +0.000 C 
BRANCH  20  21
ATOM     21  C   UNL     1       1.452   8.115  21.150  0.00  0.00    +0.000 C 
BRANCH  21  22
ATOM     22  N   UNL     1       0.077   8.640  21.020  0.00  0.00    +0.000 NA
ATOM     23  C   UNL     1       0.058   9.969  20.375  0.00  0.00    +0.000 C 
ATOM     24  C   UNL     1       0.524  11.120  21.292  0.00  0.00    +0.000 C 
ATOM     25  O   UNL     1      -0.182  11.150  22.534  0.00  0.00    +0.000 OA
ATOM     26  C   UNL     1      -0.090   9.886  23.203  0.00  0.00    +0.000 C 
ATOM     27  C   UNL     1      -0.641   8.771  22.312  0.00  0.00    +0.000 C 
ENDBRANCH  21  22
ENDBRANCH  20  21
ENDBRANCH  19  20
ENDBRANCH   5  19
TORSDOF 6
ENDMDL
MODEL 2
REMARK VINA RESULT:      -7.7      3.133      9.746
REMARK  Name = 
REMARK  6 active torsions:
REMARK  status: ('A' for Active; 'I' for Inactive)
REMARK    1  A    between atoms: S_2  and  C_4
REMARK    2  A    between atoms: S_2  and  N_10
REMARK    3  A    between atoms: C_14  and  O_15
REMARK    4  A    between atoms: O_15  and  C_16
REMARK    5  A    between atoms: C_16  and  C_17
REMARK    6  A    between atoms: C_17  and  N_18
REMARK                            x       y       z     vdW  Elec       q    Type
REMARK                         _______ _______ _______ _____ _____    ______ ____
ROOT
ATOM      1  N   UNL     1       0.184   9.812  20.991  0.00  0.00    +0.000 N 
ATOM      2  C   UNL     1      -0.044   8.555  21.471  0.00  0.00    +0.000 A 
ATOM      3  C   UNL     1       1.190   7.964  21.427  0.00  0.00    +0.000 A 
ATOM      4  C   UNL     1       1.587   8.403  20.131  0.00  0.00    +0.000 A 
ATOM      5  C   UNL     1       2.227   7.710  19.104  0.00  0.00    +0.000 A 
ATOM      6  C   UNL     1       2.296   8.346  17.853  0.00  0.00    +0.000 A 
ATOM      7  C   UNL     1       1.856   9.667  17.676  0.00  0.00    +0.000 A 
ATOM      8  C   UNL     1       1.239  10.379  18.718  0.00  0.00    +0.000 A 
ATOM      9  C   UNL     1       1.028   9.671  19.911  0.00  0.00    +0.000 A 
ENDROOT
BRANCH   1  11
ATOM     10  O   UNL     1       0.942  12.109  21.646  0.00  0.00    +0.000 OA
ATOM     11  S   UNL     1      -0.119  11.169  21.960  0.00  0.00    +0.000 S 
ATOM     12  O   UNL     1      -0.338  10.672  23.304  0.00  0.00    +0.000 OA
BRANCH  11  13
ATOM     13  C   UNL     1      -1.655  11.856  21.331  0.00  0.00    +0.000 A 
ATOM     14  C   UNL     1      -2.616  12.354  22.249  0.00  0.00    +0.000 A 
ATOM     15  C   UNL     1      -3.817  12.870  21.751  0.00  0.00    +0.000 A 
ATOM     16  C   UNL     1      -4.073  12.873  20.382  0.00  0.00    +0.000 A 
ATOM     17  C   UNL     1      -3.118  12.372  19.498  0.00  0.00    +0.000 A 
ATOM     18  C   UNL     1      -1.904  11.869  19.977  0.00  0.00    +0.000 A 
ENDBRANCH  11  13
ENDBRANCH   1  11
BRANCH   5  19
ATOM     19  O   UNL     1       2.552   6.408  19.388  0.00  0.00    +0.000 OA
BRANCH  19  20
ATOM     20  C   UNL     1       2.746   5.604  18.247  0.00  0.00    +0.000 C 
BRANCH  20  21
ATOM     21  C   UNL     1       4.163   5.017  18.203  0.00  0.00    +0.000 C 
BRANCH  21  22
ATOM     22  N   UNL     1       5.174   6.077  18.009  0.00  0.00    +0.000 NA
ATOM     23  C   UNL     1       5.315   6.446  16.585  0.00  0.00    +0.000 C 
ATOM     24  C   UNL     1       6.088   5.409  15.742  0.00  0.00    +0.000 C 
ATOM     25  O   UNL     1       7.358   5.080  16.309  0.00  0.00    +0.000 OA
ATOM     26  C   UNL     1       7.212   4.639  17.665  0.00  0.00    +0.000 C 
ATOM     27  C   UNL     1       6.525   5.718  18.504  0.00  0.00    +0.000 C 
ENDBRANCH  21  22
ENDBRANCH  20  21
ENDBRANCH  19  20
ENDBRANCH   5  19
TORSDOF 6
ENDMDL
MODEL 3
REMARK VINA RESULT:      -7.6      2.556      3.739
REMARK  Name = 
REMARK  6 active torsions:
REMARK  status: ('A' for Active; 'I' for Inactive)
REMARK    1  A    between atoms: S_2  and  C_4
REMARK    2  A    between atoms: S_2  and  N_10
REMARK    3  A    between atoms: C_14  and  O_15
REMARK    4  A    between atoms: O_15  and  C_16
REMARK    5  A    between atoms: C_16  and  C_17
REMARK    6  A    between atoms: C_17  and  N_18
REMARK                            x       y       z     vdW  Elec       q    Type
REMARK                         _______ _______ _______ _____ _____    ______ ____
ROOT
ATOM      1  N   UNL     1       3.260   4.903  19.060  0.00  0.00    +0.000 N 
ATOM      2  C   UNL     1       3.093   4.740  20.405  0.00  0.00    +0.000 A 
ATOM      3  C   UNL     1       1.833   5.225  20.635  0.00  0.00    +0.000 A 
ATOM      4  C   UNL     1       1.918   6.410  19.848  0.00  0.00    +0.000 A 
ATOM      5  C   UNL     1       1.478   7.705  20.124  0.00  0.00    +0.000 A 
ATOM      6  C   UNL     1       1.895   8.720  19.247  0.00  0.00    +0.000 A 
ATOM      7  C   UNL     1       2.614   8.428  18.077  0.00  0.00    +0.000 A 
ATOM      8  C   UNL     1       3.031   7.120  17.781  0.00  0.00    +0.000 A 
ATOM      9  C   UNL     1       2.751   6.146  18.751  0.00  0.00    +0.000 A 
ENDROOT
BRANCH   1  11
ATOM     10  O   UNL     1       2.371   3.500  17.184  0.00  0.00    +0.000 OA
ATOM     11  S   UNL     1       3.528   3.562  18.059  0.00  0.00    +0.000 S 
ATOM     12  O   UNL     1       3.896   2.466  18.933  0.00  0.00    +0.000 OA
BRANCH  11  13
ATOM     13  C   UNL     1       4.946   4.011  17.051  0.00  0.00    +0.000 A 
ATOM     14  C   UNL     1       6.169   4.342  17.690  0.00  0.00    +0.000 A 
ATOM     15  C   UNL     1       7.264   4.708  16.898  0.00  0.00    +0.000 A 
ATOM     16  C   UNL     1       7.146   4.768  15.512  0.00  0.00    +0.000 A 
ATOM     17  C   UNL     1       5.932   4.446  14.905  0.00  0.00    +0.000 A 
ATOM     18  C   UNL     1       4.833   4.060  15.680  0.00  0.00    +0.000 A 
ENDBRANCH  11  13
ENDBRANCH   1  11
BRANCH   5  19
ATOM     19  O   UNL     1       0.839   7.864  21.328  0.00  0.00    +0.000 OA
BRANCH  19  20
ATOM     20  C   UNL     1       1.166   9.061  21.996  0.00  0.00    +0.000 C 
BRANCH  20  21
ATOM     21  C   UNL     1      -0.079   9.912  22.273  0.00  0.00    +0.000 C 
BRANCH  21  22
ATOM     22  N   UNL     1       0.223  11.354  22.158  0.00  0.00    +0.000 NA
ATOM     23  C   UNL     1      -0.939  12.188  22.529  0.00  0.00    +0.000 C 
ATOM     24  C   UNL     1      -2.051  12.228  21.459  0.00  0.00    +0.000 C 
ATOM     25  O   UNL     1      -1.556  12.594  20.169  0.00  0.00    +0.000 OA
ATOM     26  C   UNL     1      -0.484  11.729  19.771  0.00  0.00    +0.000 C 
ATOM     27  C   UNL     1       0.646  11.773  20.800  0.00  0.00    +0.000 C 
ENDBRANCH  21  22
ENDBRANCH  20  21
ENDBRANCH  19  20
ENDBRANCH   5  19
TORSDOF 6
ENDMDL
MODEL 4
REMARK VINA RESULT:      -7.6      3.198      9.653
REMARK  Name = 
REMARK  6 active torsions:
REMARK  status: ('A' for Active; 'I' for Inactive)
REMARK    1  A    between atoms: S_2  and  C_4
REMARK    2  A    between atoms: S_2  and  N_10
REMARK    3  A    between atoms: C_14  and  O_15
REMARK    4  A    between atoms: O_15  and  C_16
REMARK    5  A    between atoms: C_16  and  C_17
REMARK    6  A    between atoms: C_17  and  N_18
REMARK                            x       y       z     vdW  Elec       q    Type
REMARK                         _______ _______ _______ _____ _____    ______ ____
ROOT
ATOM      1  N   UNL     1       0.093   9.873  20.996  0.00  0.00    +0.000 N 
ATOM      2  C   UNL     1      -0.193   8.677  21.589  0.00  0.00    +0.000 A 
ATOM      3  C   UNL     1       1.024   8.051  21.656  0.00  0.00    +0.000 A 
ATOM      4  C   UNL     1       1.484   8.346  20.339  0.00  0.00    +0.000 A 
ATOM      5  C   UNL     1       2.141   7.535  19.414  0.00  0.00    +0.000 A 
ATOM      6  C   UNL     1       2.277   8.038  18.110  0.00  0.00    +0.000 A 
ATOM      7  C   UNL     1       1.886   9.346  17.784  0.00  0.00    +0.000 A 
ATOM      8  C   UNL     1       1.252  10.176  18.723  0.00  0.00    +0.000 A 
ATOM      9  C   UNL     1       0.973   9.599  19.971  0.00  0.00    +0.000 A 
ENDROOT
BRANCH   1  11
ATOM     10  O   UNL     1       0.831  12.240  21.356  0.00  0.00    +0.000 OA
ATOM     11  S   UNL     1      -0.205  11.328  21.810  0.00  0.00    +0.000 S 
ATOM     12  O   UNL     1      -0.376  10.987  23.208  0.00  0.00    +0.000 OA
BRANCH  11  13
ATOM     13  C   UNL     1      -1.770  11.916  21.153  0.00  0.00    +0.000 A 
ATOM     14  C   UNL     1      -2.031  11.777  19.765  0.00  0.00    +0.000 A 
ATOM     15  C   UNL     1      -3.246  12.255  19.259  0.00  0.00    +0.000 A 
ATOM     16  C   UNL     1      -4.168  12.875  20.099  0.00  0.00    +0.000 A 
ATOM     17  C   UNL     1      -3.887  13.007  21.458  0.00  0.00    +0.000 A 
ATOM     18  C   UNL     1      -2.687  12.519  21.984  0.00  0.00    +0.000 A 
ENDBRANCH  11  13
ENDBRANCH   1  11
BRANCH   5  19
ATOM     19  O   UNL     1       2.414   6.260  19.841  0.00  0.00    +0.000 OA
BRANCH  19  20
ATOM     20  C   UNL     1       3.081   5.467  18.886  0.00  0.00    +0.000 C 
BRANCH  20  21
ATOM     21  C   UNL     1       4.598   5.459  19.117  0.00  0.00    +0.000 C 
BRANCH  21  22
ATOM     22  N   UNL     1       5.300   4.755  18.025  0.00  0.00    +0.000 NA
ATOM     23  C   UNL     1       6.765   4.934  18.111  0.00  0.00    +0.000 C 
ATOM     24  C   UNL     1       7.253   6.330  17.668  0.00  0.00    +0.000 C 
ATOM     25  O   UNL     1       6.774   6.692  16.371  0.00  0.00    +0.000 OA
ATOM     26  C   UNL     1       5.345   6.601  16.313  0.00  0.00    +0.000 C 
ATOM     27  C   UNL     1       4.886   5.186  16.667  0.00  0.00    +0.000 C 
ENDBRANCH  21  22
ENDBRANCH  20  21
ENDBRANCH  19  20
ENDBRANCH   5  19
TORSDOF 6
ENDMDL
MODEL 5
REMARK VINA RESULT:      -7.6      1.022      1.676
REMARK  Name = 
REMARK  6 active torsions:
REMARK  status: ('A' for Active; 'I' for Inactive)
REMARK    1  A    between atoms: S_2  and  C_4
REMARK    2  A    between atoms: S_2  and  N_10
REMARK    3  A    between atoms: C_14  and  O_15
REMARK    4  A    between atoms: O_15  and  C_16
REMARK    5  A    between atoms: C_16  and  C_17
REMARK    6  A    between atoms: C_17  and  N_18
REMARK                            x       y       z     vdW  Elec       q    Type
REMARK                         _______ _______ _______ _____ _____    ______ ____
ROOT
ATOM      1  N   UNL     1       5.474   5.491  16.894  0.00  0.00    +0.000 N 
ATOM      2  C   UNL     1       4.624   6.436  16.397  0.00  0.00    +0.000 A 
ATOM      3  C   UNL     1       4.271   7.166  17.500  0.00  0.00    +0.000 A 
ATOM      4  C   UNL     1       4.032   6.086  18.399  0.00  0.00    +0.000 A 
ATOM      5  C   UNL     1       3.006   5.897  19.324  0.00  0.00    +0.000 A 
ATOM      6  C   UNL     1       2.911   4.628  19.920  0.00  0.00    +0.000 A 
ATOM      7  C   UNL     1       3.879   3.637  19.692  0.00  0.00    +0.000 A 
ATOM      8  C   UNL     1       4.932   3.837  18.784  0.00  0.00    +0.000 A 
ATOM      9  C   UNL     1       4.915   5.046  18.073  0.00  0.00    +0.000 A 
ENDROOT
BRANCH   1  11
ATOM     10  O   UNL     1       7.685   4.335  17.121  0.00  0.00    +0.000 OA
ATOM     11  S   UNL     1       7.078   5.411  16.356  0.00  0.00    +0.000 S 
ATOM     12  O   UNL     1       7.590   6.767  16.390  0.00  0.00    +0.000 OA
BRANCH  11  13
ATOM     13  C   UNL     1       6.969   4.866  14.648  0.00  0.00    +0.000 A 
ATOM     14  C   UNL     1       6.045   3.844  14.308  0.00  0.00    +0.000 A 
ATOM     15  C   UNL     1       5.979   3.414  12.977  0.00  0.00    +0.000 A 
ATOM     16  C   UNL     1       6.821   3.962  12.013  0.00  0.00    +0.000 A 
ATOM     17  C   UNL     1       7.727   4.961  12.371  0.00  0.00    +0.000 A 
ATOM     18  C   UNL     1       7.793   5.416  13.692  0.00  0.00    +0.000 A 
ENDBRANCH  11  13
ENDBRANCH   1  11
BRANCH   5  19
ATOM     19  O   UNL     1       2.094   6.919  19.406  0.00  0.00    +0.000 OA
BRANCH  19  20
ATOM     20  C   UNL     1       1.941   7.447  20.704  0.00  0.00    +0.000 C 
BRANCH  20  21
ATOM     21  C   UNL     1       0.849   8.523  20.752  0.00  0.00    +0.000 C 
BRANCH  21  22
ATOM     22  N   UNL     1       1.256   9.659  21.605  0.00  0.00    +0.000 NA
ATOM     23  C   UNL     1       0.707   9.542  22.971  0.00  0.00    +0.000 C 
ATOM     24  C   UNL     1      -0.799   9.868  23.073  0.00  0.00    +0.000 C 
ATOM     25  O   UNL     1      -1.123  11.139  22.503  0.00  0.00    +0.000 OA
ATOM     26  C   UNL     1      -0.666  11.221  21.147  0.00  0.00    +0.000 C 
ATOM     27  C   UNL     1       0.844  10.983  21.080  0.00  0.00    +0.000 C 
ENDBRANCH  21  22
ENDBRANCH  20  21
ENDBRANCH  19  20
ENDBRANCH   5  19
TORSDOF 6
ENDMDL
MODEL 6
REMARK VINA RESULT:      -7.5      4.472      7.627
REMARK  Name = 
REMARK  6 active torsions:
REMARK  status: ('A' for Active; 'I' for Inactive)
REMARK    1  A    between atoms: S_2  and  C_4
REMARK    2  A    between atoms: S_2  and  N_10
REMARK    3  A    between atoms: C_14  and  O_15
REMARK    4  A    between atoms: O_15  and  C_16
REMARK    5  A    between atoms: C_16  and  C_17
REMARK    6  A    between atoms: C_17  and  N_18
REMARK                            x       y       z     vdW  Elec       q    Type
REMARK                         _______ _______ _______ _____ _____    ______ ____
ROOT
ATOM      1  N   UNL     1       4.519   5.346  17.863  0.00  0.00    +0.000 N 
ATOM      2  C   UNL     1       4.252   6.536  17.249  0.00  0.00    +0.000 A 
ATOM      3  C   UNL     1       5.378   6.775  16.507  0.00  0.00    +0.000 A 
ATOM      4  C   UNL     1       6.353   6.438  17.490  0.00  0.00    +0.000 A 
ATOM      5  C   UNL     1       7.546   7.076  17.829  0.00  0.00    +0.000 A 
ATOM      6  C   UNL     1       8.198   6.633  18.992  0.00  0.00    +0.000 A 
ATOM      7  C   UNL     1       7.739   5.517  19.709  0.00  0.00    +0.000 A 
ATOM      8  C   UNL     1       6.554   4.853  19.352  0.00  0.00    +0.000 A 
ATOM      9  C   UNL     1       5.828   5.412  18.289  0.00  0.00    +0.000 A 
ENDROOT
BRANCH   1  11
ATOM     10  O   UNL     1       4.448   2.938  17.176  0.00  0.00    +0.000 OA
ATOM     11  S   UNL     1       3.537   3.995  17.580  0.00  0.00    +0.000 S 
ATOM     12  O   UNL     1       2.453   4.447  16.730  0.00  0.00    +0.000 OA
BRANCH  11  13
ATOM     13  C   UNL     1       2.876   3.554  19.191  0.00  0.00    +0.000 A 
ATOM     14  C   UNL     1       1.611   4.066  19.581  0.00  0.00    +0.000 A 
ATOM     15  C   UNL     1       1.112   3.732  20.846  0.00  0.00    +0.000 A 
ATOM     16  C   UNL     1       1.854   2.932  21.711  0.00  0.00    +0.000 A 
ATOM     17  C   UNL     1       3.099   2.446  21.310  0.00  0.00    +0.000 A 
ATOM     18  C   UNL     1       3.604   2.755  20.043  0.00  0.00    +0.000 A 
ENDBRANCH  11  13
ENDBRANCH   1  11
BRANCH   5  19
ATOM     19  O   UNL     1       7.848   8.188  17.085  0.00  0.00    +0.000 OA
BRANCH  19  20
ATOM     20  C   UNL     1       7.707   9.402  17.787  0.00  0.00    +0.000 C 
BRANCH  20  21
ATOM     21  C   UNL     1       9.029   9.840  18.430  0.00  0.00    +0.000 C 
BRANCH  21  22
ATOM     22  N   UNL     1       9.204  11.305  18.346  0.00  0.00    +0.000 NA
ATOM     23  C   UNL     1      10.492  11.668  17.719  0.00  0.00    +0.000 C 
ATOM     24  C   UNL     1      11.716  11.468  18.638  0.00  0.00    +0.000 C 
ATOM     25  O   UNL     1      11.565  12.122  19.900  0.00  0.00    +0.000 OA
ATOM     26  C   UNL     1      10.357  11.705  20.549  0.00  0.00    +0.000 C 
ATOM     27  C   UNL     1       9.147  11.994  19.659  0.00  0.00    +0.000 C 
ENDBRANCH  21  22
ENDBRANCH  20  21
ENDBRANCH  19  20
ENDBRANCH   5  19
TORSDOF 6
ENDMDL
MODEL 7
REMARK VINA RESULT:      -7.5      1.565      1.839
REMARK  Name = 
REMARK  6 active torsions:
REMARK  status: ('A' for Active; 'I' for Inactive)
REMARK    1  A    between atoms: S_2  and  C_4
REMARK    2  A    between atoms: S_2  and  N_10
REMARK    3  A    between atoms: C_14  and  O_15
REMARK    4  A    between atoms: O_15  and  C_16
REMARK    5  A    between atoms: C_16  and  C_17
REMARK    6  A    between atoms: C_17  and  N_18
REMARK                            x       y       z     vdW  Elec       q    Type
REMARK                         _______ _______ _______ _____ _____    ______ ____
ROOT
ATOM      1  N   UNL     1       5.393   5.581  16.856  0.00  0.00    +0.000 N 
ATOM      2  C   UNL     1       4.602   6.524  16.266  0.00  0.00    +0.000 A 
ATOM      3  C   UNL     1       4.242   7.339  17.306  0.00  0.00    +0.000 A 
ATOM      4  C   UNL     1       3.926   6.331  18.263  0.00  0.00    +0.000 A 
ATOM      5  C   UNL     1       2.860   6.245  19.159  0.00  0.00    +0.000 A 
ATOM      6  C   UNL     1       2.691   5.023  19.831  0.00  0.00    +0.000 A 
ATOM      7  C   UNL     1       3.623   3.981  19.705  0.00  0.00    +0.000 A 
ATOM      8  C   UNL     1       4.715   4.078  18.827  0.00  0.00    +0.000 A 
ATOM      9  C   UNL     1       4.775   5.238  18.039  0.00  0.00    +0.000 A 
ENDROOT
BRANCH   1  11
ATOM     10  O   UNL     1       7.522   4.300  17.184  0.00  0.00    +0.000 OA
ATOM     11  S   UNL     1       7.011   5.401  16.386  0.00  0.00    +0.000 S 
ATOM     12  O   UNL     1       7.599   6.725  16.429  0.00  0.00    +0.000 OA
BRANCH  11  13
ATOM     13  C   UNL     1       6.940   4.845  14.679  0.00  0.00    +0.000 A 
ATOM     14  C   UNL     1       7.774   5.470  13.715  0.00  0.00    +0.000 A 
ATOM     15  C   UNL     1       7.698   5.042  12.384  0.00  0.00    +0.000 A 
ATOM     16  C   UNL     1       6.806   4.041  12.012  0.00  0.00    +0.000 A 
ATOM     17  C   UNL     1       5.990   3.446  12.974  0.00  0.00    +0.000 A 
ATOM     18  C   UNL     1       6.066   3.847  14.312  0.00  0.00    +0.000 A 
ENDBRANCH  11  13
ENDBRANCH   1  11
BRANCH   5  19
ATOM     19  O   UNL     1       1.990   7.305  19.140  0.00  0.00    +0.000 OA
BRANCH  19  20
ATOM     20  C   UNL     1       1.728   7.854  20.412  0.00  0.00    +0.000 C 
BRANCH  20  21
ATOM     21  C   UNL     1       1.151   9.271  20.308  0.00  0.00    +0.000 C 
BRANCH  21  22
ATOM     22  N   UNL     1       0.782   9.597  18.915  0.00  0.00    +0.000 NA
ATOM     23  C   UNL     1       1.724  10.561  18.310  0.00  0.00    +0.000 C 
ATOM     24  C   UNL     1       1.544  12.011  18.808  0.00  0.00    +0.000 C 
ATOM     25  O   UNL     1       0.196  12.471  18.680  0.00  0.00    +0.000 OA
ATOM     26  C   UNL     1      -0.710  11.580  19.342  0.00  0.00    +0.000 C 
ATOM     27  C   UNL     1      -0.580  10.167  18.771  0.00  0.00    +0.000 C 
ENDBRANCH  21  22
ENDBRANCH  20  21
ENDBRANCH  19  20
ENDBRANCH   5  19
TORSDOF 6
ENDMDL
MODEL 8
REMARK VINA RESULT:      -7.5      4.502      9.602
REMARK  Name = 
REMARK  6 active torsions:
REMARK  status: ('A' for Active; 'I' for Inactive)
REMARK    1  A    between atoms: S_2  and  C_4
REMARK    2  A    between atoms: S_2  and  N_10
REMARK    3  A    between atoms: C_14  and  O_15
REMARK    4  A    between atoms: O_15  and  C_16
REMARK    5  A    between atoms: C_16  and  C_17
REMARK    6  A    between atoms: C_17  and  N_18
REMARK                            x       y       z     vdW  Elec       q    Type
REMARK                         _______ _______ _______ _____ _____    ______ ____
ROOT
ATOM      1  N   UNL     1       0.022  10.013  21.048  0.00  0.00    +0.000 N 
ATOM      2  C   UNL     1      -0.157   8.760  21.559  0.00  0.00    +0.000 A 
ATOM      3  C   UNL     1       1.099   8.214  21.523  0.00  0.00    +0.000 A 
ATOM      4  C   UNL     1       1.473   8.636  20.214  0.00  0.00    +0.000 A 
ATOM      5  C   UNL     1       2.134   7.942  19.201  0.00  0.00    +0.000 A 
ATOM      6  C   UNL     1       2.173   8.549  17.934  0.00  0.00    +0.000 A 
ATOM      7  C   UNL     1       1.684   9.849  17.729  0.00  0.00    +0.000 A 
ATOM      8  C   UNL     1       1.046  10.562  18.756  0.00  0.00    +0.000 A 
ATOM      9  C   UNL     1       0.866   9.876  19.967  0.00  0.00    +0.000 A 
ENDROOT
BRANCH   1  11
ATOM     10  O   UNL     1       0.680  12.362  21.621  0.00  0.00    +0.000 OA
ATOM     11  S   UNL     1      -0.326  11.381  21.985  0.00  0.00    +0.000 S 
ATOM     12  O   UNL     1      -0.491  10.912  23.347  0.00  0.00    +0.000 OA
BRANCH  11  13
ATOM     13  C   UNL     1      -1.907  11.973  21.372  0.00  0.00    +0.000 A 
ATOM     14  C   UNL     1      -2.154  11.960  19.975  0.00  0.00    +0.000 A 
ATOM     15  C   UNL     1      -3.382  12.441  19.505  0.00  0.00    +0.000 A 
ATOM     16  C   UNL     1      -4.332  12.943  20.390  0.00  0.00    +0.000 A 
ATOM     17  C   UNL     1      -4.066  12.952  21.760  0.00  0.00    +0.000 A 
ATOM     18  C   UNL     1      -2.852  12.459  22.248  0.00  0.00    +0.000 A 
ENDBRANCH  11  13
ENDBRANCH   1  11
BRANCH   5  19
ATOM     19  O   UNL     1       2.509   6.660  19.515  0.00  0.00    +0.000 OA
BRANCH  19  20
ATOM     20  C   UNL     1       2.285   5.729  18.481  0.00  0.00    +0.000 C 
BRANCH  20  21
ATOM     21  C   UNL     1       3.136   4.466  18.664  0.00  0.00    +0.000 C 
BRANCH  21  22
ATOM     22  N   UNL     1       2.299   3.308  19.039  0.00  0.00    +0.000 NA
ATOM     23  C   UNL     1       1.401   3.625  20.169  0.00  0.00    +0.000 C 
ATOM     24  C   UNL     1       2.111   3.689  21.538  0.00  0.00    +0.000 C 
ATOM     25  O   UNL     1       2.875   2.513  21.813  0.00  0.00    +0.000 OA
ATOM     26  C   UNL     1       3.809   2.254  20.757  0.00  0.00    +0.000 C 
ATOM     27  C   UNL     1       3.075   2.103  19.423  0.00  0.00    +0.000 C 
ENDBRANCH  21  22
ENDBRANCH  20  21
ENDBRANCH  19  20
ENDBRANCH   5  19
TORSDOF 6
ENDMDL
MODEL 9
REMARK VINA RESULT:      -7.5      1.186      1.686
REMARK  Name = 
REMARK  6 active torsions:
REMARK  status: ('A' for Active; 'I' for Inactive)
REMARK    1  A    between atoms: S_2  and  C_4
REMARK    2  A    between atoms: S_2  and  N_10
REMARK    3  A    between atoms: C_14  and  O_15
REMARK    4  A    between atoms: O_15  and  C_16
REMARK    5  A    between atoms: C_16  and  C_17
REMARK    6  A    between atoms: C_17  and  N_18
REMARK                            x       y       z     vdW  Elec       q    Type
REMARK                         _______ _______ _______ _____ _____    ______ ____
ROOT
ATOM      1  N   UNL     1       5.308   5.795  16.351  0.00  0.00    +0.000 N 
ATOM      2  C   UNL     1       5.035   7.132  16.318  0.00  0.00    +0.000 A 
ATOM      3  C   UNL     1       4.668   7.418  17.606  0.00  0.00    +0.000 A 
ATOM      4  C   UNL     1       3.810   6.303  17.833  0.00  0.00    +0.000 A 
ATOM      5  C   UNL     1       2.565   6.239  18.458  0.00  0.00    +0.000 A 
ATOM      6  C   UNL     1       1.854   5.033  18.341  0.00  0.00    +0.000 A 
ATOM      7  C   UNL     1       2.423   3.903  17.732  0.00  0.00    +0.000 A 
ATOM      8  C   UNL     1       3.690   3.956  17.128  0.00  0.00    +0.000 A 
ATOM      9  C   UNL     1       4.314   5.213  17.108  0.00  0.00    +0.000 A 
ENDROOT
BRANCH   1  11
ATOM     10  O   UNL     1       7.051   4.054  16.812  0.00  0.00    +0.000 OA
ATOM     11  S   UNL     1       6.859   5.225  15.974  0.00  0.00    +0.000 S 
ATOM     12  O   UNL     1       7.742   6.373  16.035  0.00  0.00    +0.000 OA
BRANCH  11  13
ATOM     13  C   UNL     1       6.745   4.661  14.273  0.00  0.00    +0.000 A 
ATOM     14  C   UNL     1       5.731   3.733  13.920  0.00  0.00    +0.000 A 
ATOM     15  C   UNL     1       5.662   3.285  12.596  0.00  0.00    +0.000 A 
ATOM     16  C   UNL     1       6.584   3.724  11.650  0.00  0.00    +0.000 A 
ATOM     17  C   UNL     1       7.577   4.631  12.020  0.00  0.00    +0.000 A 
ATOM     18  C   UNL     1       7.650   5.104  13.335  0.00  0.00    +0.000 A 
ENDBRANCH  11  13
ENDBRANCH   1  11
BRANCH   5  19
ATOM     19  O   UNL     1       2.099   7.428  18.961  0.00  0.00    +0.000 OA
BRANCH  19  20
ATOM     20  C   UNL     1       1.492   8.258  17.997  0.00  0.00    +0.000 C 
BRANCH  20  21
ATOM     21  C   UNL     1       1.723   9.743  18.304  0.00  0.00    +0.000 C 
BRANCH  21  22
ATOM     22  N   UNL     1       0.474  10.397  18.746  0.00  0.00    +0.000 NA
ATOM     23  C   UNL     1       0.643  11.857  18.894  0.00  0.00    +0.000 C 
ATOM     24  C   UNL     1       1.430  12.274  20.154  0.00  0.00    +0.000 C 
ATOM     25  O   UNL     1       0.894  11.703  21.349  0.00  0.00    +0.000 OA
ATOM     26  C   UNL     1       0.811  10.277  21.239  0.00  0.00    +0.000 C 
ATOM     27  C   UNL     1      -0.050   9.885  20.036  0.00  0.00    +0.000 C 
ENDBRANCH  21  22
ENDBRANCH  20  21
ENDBRANCH  19  20
ENDBRANCH   5  19
TORSDOF 6
ENDMDL
