MODEL 1
REMARK VINA RESULT:      -8.0      0.000      0.000
REMARK  Name = 
REMARK  5 active torsions:
REMARK  status: ('A' for Active; 'I' for Inactive)
REMARK    1  A    between atoms: C_1  and  C_2
REMARK    2  A    between atoms: C_5  and  O_6
REMARK    3  A    between atoms: O_6  and  C_7
REMARK    4  A    between atoms: C_11  and  C_12
REMARK    5  A    between atoms: N_21  and  C_22
REMARK                            x       y       z     vdW  Elec       q    Type
REMARK                         _______ _______ _______ _____ _____    ______ ____
ROOT
ATOM      1  C   UNL     1      -0.679  11.242  23.124  0.00  0.00    +0.000 C 
ATOM      2  C   UNL     1      -0.405  10.632  21.788  0.00  0.00    +0.000 A 
ATOM      3  C   UNL     1      -0.771  11.258  20.602  0.00  0.00    +0.000 A 
ATOM      4  F   UNL     1      -1.432  12.424  20.626  0.00  0.00    +0.000 F 
ATOM      5  C   UNL     1      -0.423  10.662  19.392  0.00  0.00    +0.000 A 
ATOM      6  N   UNL     1       0.305   9.519  19.285  0.00  0.00    +0.000 NA
ATOM      7  C   UNL     1       0.663   8.897  20.439  0.00  0.00    +0.000 A 
ATOM      8  N   UNL     1       1.501   7.774  20.408  0.00  0.00    +0.000 N 
ATOM      9  C   UNL     1       2.459   7.749  19.294  0.00  0.00    +0.000 C 
ATOM     10  C   UNL     1       3.451   6.566  19.488  0.00  0.00    +0.000 C 
ATOM     11  N   UNL     1       2.826   5.211  19.636  0.00  0.00    +0.000 NA
ATOM     12  C   UNL     1       1.843   5.342  20.748  0.00  0.00    +0.000 C 
ATOM     13  C   UNL     1       0.804   6.490  20.605  0.00  0.00    +0.000 C 
ATOM     14  C   UNL     1       0.285   9.422  21.687  0.00  0.00    +0.000 A 
ATOM     15  F   UNL     1       0.647   8.797  22.821  0.00  0.00    +0.000 F 
ENDROOT
BRANCH  11  16
ATOM     16  C   UNL     1       2.262   4.723  18.349  0.00  0.00    +0.000 C 
ATOM     17  C   UNL     1       3.383   4.310  17.360  0.00  0.00    +0.000 C 
ATOM     18  C   UNL     1       4.071   2.997  17.733  0.00  0.00    +0.000 C 
ATOM     19  C   UNL     1       3.079   1.844  17.798  0.00  0.00    +0.000 C 
ATOM     20  C   UNL     1       1.864   2.156  18.665  0.00  0.00    +0.000 C 
ATOM     21  C   UNL     1       1.261   3.540  18.414  0.00  0.00    +0.000 C 
ENDBRANCH  11  16
BRANCH   5  22
ATOM     22  O   UNL     1      -0.775  11.371  18.248  0.00  0.00    +0.000 OA
BRANCH  22  23
ATOM     23  C   UNL     1      -2.007  11.154  17.676  0.00  0.00    +0.000 A 
ATOM     24  C   UNL     1      -2.029  10.228  16.628  0.00  0.00    +0.000 A 
ATOM     25  C   UNL     1      -3.211   9.974  15.932  0.00  0.00    +0.000 A 
ATOM     26  C   UNL     1      -4.377  10.656  16.277  0.00  0.00    +0.000 A 
ATOM     27  C   UNL     1      -4.356  11.601  17.310  0.00  0.00    +0.000 A 
ATOM     28  C   UNL     1      -3.164  11.865  17.999  0.00  0.00    +0.000 A 
BRANCH  27  29
ATOM     29  C   UNL     1      -5.604  12.333  17.660  0.00  0.00    +0.000 C 
ATOM     30  N   UNL     1      -5.649  13.248  18.577  0.00  0.00    +0.000 NA
ATOM     31  N   UNL     1      -6.770  12.065  17.006  0.00  0.00    +0.000 N 
ATOM     32  H   UNL     1      -4.743  13.346  19.044  0.00  0.00    +0.000 HD
ATOM     33  H   UNL     1      -6.690  11.859  16.019  0.00  0.00    +0.000 HD
ATOM     34  H   UNL     1      -7.467  12.777  17.202  0.00  0.00    +0.000 HD
ENDBRANCH  27  29
ENDBRANCH  22  23
ENDBRANCH   5  22
TORSDOF 4
ENDMDL
MODEL 2
REMARK VINA RESULT:      -7.7      3.578      9.452
REMARK  Name = 
REMARK  5 active torsions:
REMARK  status: ('A' for Active; 'I' for Inactive)
REMARK    1  A    between atoms: C_1  and  C_2
REMARK    2  A    between atoms: C_5  and  O_6
REMARK    3  A    between atoms: O_6  and  C_7
REMARK    4  A    between atoms: C_11  and  C_12
REMARK    5  A    between atoms: N_21  and  C_22
REMARK                            x       y       z     vdW  Elec       q    Type
REMARK                         _______ _______ _______ _____ _____    ______ ____
ROOT
ATOM      1  C   UNL     1       1.421   4.095  20.882  0.00  0.00    +0.000 C 
ATOM      2  C   UNL     1       1.829   5.277  20.062  0.00  0.00    +0.000 A 
ATOM      3  C   UNL     1       2.594   5.146  18.909  0.00  0.00    +0.000 A 
ATOM      4  F   UNL     1       3.033   3.941  18.519  0.00  0.00    +0.000 F 
ATOM      5  C   UNL     1       2.879   6.284  18.158  0.00  0.00    +0.000 A 
ATOM      6  N   UNL     1       2.412   7.528  18.450  0.00  0.00    +0.000 NA
ATOM      7  C   UNL     1       1.668   7.666  19.578  0.00  0.00    +0.000 A 
ATOM      8  N   UNL     1       1.068   8.895  19.885  0.00  0.00    +0.000 N 
ATOM      9  C   UNL     1       0.698   9.709  18.718  0.00  0.00    +0.000 C 
ATOM     10  C   UNL     1      -0.131  10.941  19.186  0.00  0.00    +0.000 C 
ATOM     11  N   UNL     1       0.526  11.814  20.213  0.00  0.00    +0.000 NA
ATOM     12  C   UNL     1       0.908  10.903  21.330  0.00  0.00    +0.000 C 
ATOM     13  C   UNL     1       1.760   9.664  20.936  0.00  0.00    +0.000 C 
ATOM     14  C   UNL     1       1.402   6.561  20.406  0.00  0.00    +0.000 A 
ATOM     15  F   UNL     1       0.663   6.712  21.518  0.00  0.00    +0.000 F 
ENDROOT
BRANCH  11  16
ATOM     16  C   UNL     1       1.646  12.600  19.630  0.00  0.00    +0.000 C 
ATOM     17  C   UNL     1       1.161  13.495  18.460  0.00  0.00    +0.000 C 
ATOM     18  C   UNL     1       0.346  14.705  18.916  0.00  0.00    +0.000 C 
ATOM     19  C   UNL     1       1.143  15.592  19.862  0.00  0.00    +0.000 C 
ATOM     20  C   UNL     1       1.770  14.816  21.016  0.00  0.00    +0.000 C 
ATOM     21  C   UNL     1       2.451  13.514  20.591  0.00  0.00    +0.000 C 
ENDBRANCH  11  16
BRANCH   5  22
ATOM     22  O   UNL     1       3.604   6.071  16.991  0.00  0.00    +0.000 OA
BRANCH  22  23
ATOM     23  C   UNL     1       4.924   5.695  17.078  0.00  0.00    +0.000 A 
ATOM     24  C   UNL     1       5.330   4.712  16.171  0.00  0.00    +0.000 A 
ATOM     25  C   UNL     1       6.632   4.209  16.208  0.00  0.00    +0.000 A 
ATOM     26  C   UNL     1       7.530   4.684  17.162  0.00  0.00    +0.000 A 
ATOM     27  C   UNL     1       7.121   5.652  18.087  0.00  0.00    +0.000 A 
ATOM     28  C   UNL     1       5.810   6.146  18.057  0.00  0.00    +0.000 A 
BRANCH  27  29
ATOM     29  C   UNL     1       8.085   6.142  19.111  0.00  0.00    +0.000 C 
ATOM     30  N   UNL     1       8.587   7.337  19.089  0.00  0.00    +0.000 NA
ATOM     31  N   UNL     1       8.477   5.332  20.135  0.00  0.00    +0.000 N 
ATOM     32  H   UNL     1       8.276   7.852  18.261  0.00  0.00    +0.000 HD
ATOM     33  H   UNL     1       7.767   4.719  20.515  0.00  0.00    +0.000 HD
ATOM     34  H   UNL     1       8.958   5.865  20.854  0.00  0.00    +0.000 HD
ENDBRANCH  27  29
ENDBRANCH  22  23
ENDBRANCH   5  22
TORSDOF 4
ENDMDL
MODEL 3
REMARK VINA RESULT:      -7.6      4.227      8.607
REMARK  Name = 
REMARK  5 active torsions:
REMARK  status: ('A' for Active; 'I' for Inactive)
REMARK    1  A    between atoms: C_1  and  C_2
REMARK    2  A    between atoms: C_5  and  O_6
REMARK    3  A    between atoms: O_6  and  C_7
REMARK    4  A    between atoms: C_11  and  C_12
REMARK    5  A    between atoms: N_21  and  C_22
REMARK                            x       y       z     vdW  Elec       q    Type
REMARK                         _______ _______ _______ _____ _____    ______ ____
ROOT
ATOM      1  C   UNL     1       0.737   9.461  18.141  0.00  0.00    +0.000 C 
ATOM      2  C   UNL     1      -0.412  10.380  18.405  0.00  0.00    +0.000 A 
ATOM      3  C   UNL     1      -1.519  10.439  17.565  0.00  0.00    +0.000 A 
ATOM      4  F   UNL     1      -1.566   9.692  16.453  0.00  0.00    +0.000 F 
ATOM      5  C   UNL     1      -2.581  11.270  17.911  0.00  0.00    +0.000 A 
ATOM      6  N   UNL     1      -2.637  12.003  19.055  0.00  0.00    +0.000 NA
ATOM      7  C   UNL     1      -1.557  11.956  19.879  0.00  0.00    +0.000 A 
ATOM      8  N   UNL     1      -1.587  12.601  21.122  0.00  0.00    +0.000 N 
ATOM      9  C   UNL     1      -2.917  12.684  21.743  0.00  0.00    +0.000 C 
ATOM     10  C   UNL     1      -2.781  13.237  23.192  0.00  0.00    +0.000 C 
ATOM     11  N   UNL     1      -2.090  14.562  23.320  0.00  0.00    +0.000 NA
ATOM     12  C   UNL     1      -0.780  14.400  22.626  0.00  0.00    +0.000 C 
ATOM     13  C   UNL     1      -0.845  13.875  21.164  0.00  0.00    +0.000 C 
ATOM     14  C   UNL     1      -0.432  11.181  19.548  0.00  0.00    +0.000 A 
ATOM     15  F   UNL     1       0.629  11.144  20.373  0.00  0.00    +0.000 F 
ENDROOT
BRANCH  11  16
ATOM     16  C   UNL     1      -2.938  15.674  22.814  0.00  0.00    +0.000 C 
ATOM     17  C   UNL     1      -4.239  15.817  23.645  0.00  0.00    +0.000 C 
ATOM     18  C   UNL     1      -4.013  16.416  25.033  0.00  0.00    +0.000 C 
ATOM     19  C   UNL     1      -3.376  17.796  24.951  0.00  0.00    +0.000 C 
ATOM     20  C   UNL     1      -2.131  17.823  24.072  0.00  0.00    +0.000 C 
ATOM     21  C   UNL     1      -2.293  17.084  22.742  0.00  0.00    +0.000 C 
ENDBRANCH  11  16
BRANCH   5  22
ATOM     22  O   UNL     1      -3.675  11.237  17.053  0.00  0.00    +0.000 OA
BRANCH  22  23
ATOM     23  C   UNL     1      -4.941  11.378  17.572  0.00  0.00    +0.000 A 
ATOM     24  C   UNL     1      -5.652  12.498  17.129  0.00  0.00    +0.000 A 
ATOM     25  C   UNL     1      -6.922  12.775  17.635  0.00  0.00    +0.000 A 
ATOM     26  C   UNL     1      -7.483  11.936  18.597  0.00  0.00    +0.000 A 
ATOM     27  C   UNL     1      -6.766  10.827  19.061  0.00  0.00    +0.000 A 
ATOM     28  C   UNL     1      -5.485  10.556  18.561  0.00  0.00    +0.000 A 
BRANCH  27  29
ATOM     29  C   UNL     1      -7.369   9.945  20.098  0.00  0.00    +0.000 C 
ATOM     30  N   UNL     1      -7.583  10.335  21.315  0.00  0.00    +0.000 NA
ATOM     31  N   UNL     1      -7.734   8.667  19.792  0.00  0.00    +0.000 N 
ATOM     32  H   UNL     1      -7.235  11.286  21.463  0.00  0.00    +0.000 HD
ATOM     33  H   UNL     1      -8.121   8.523  18.868  0.00  0.00    +0.000 HD
ATOM     34  H   UNL     1      -8.313   8.270  20.526  0.00  0.00    +0.000 HD
ENDBRANCH  27  29
ENDBRANCH  22  23
ENDBRANCH   5  22
TORSDOF 4
ENDMDL
MODEL 4
REMARK VINA RESULT:      -7.6      1.420      1.899
REMARK  Name = 
REMARK  5 active torsions:
REMARK  status: ('A' for Active; 'I' for Inactive)
REMARK    1  A    between atoms: C_1  and  C_2
REMARK    2  A    between atoms: C_5  and  O_6
REMARK    3  A    between atoms: O_6  and  C_7
REMARK    4  A    between atoms: C_11  and  C_12
REMARK    5  A    between atoms: N_21  and  C_22
REMARK                            x       y       z     vdW  Elec       q    Type
REMARK                         _______ _______ _______ _____ _____    ______ ____
ROOT
ATOM      1  C   UNL     1      -0.721  11.518  22.945  0.00  0.00    +0.000 C 
ATOM      2  C   UNL     1      -0.453  10.883  21.619  0.00  0.00    +0.000 A 
ATOM      3  C   UNL     1      -0.815  11.491  20.423  0.00  0.00    +0.000 A 
ATOM      4  F   UNL     1      -1.465  12.664  20.428  0.00  0.00    +0.000 F 
ATOM      5  C   UNL     1      -0.473  10.872  19.223  0.00  0.00    +0.000 A 
ATOM      6  N   UNL     1       0.246   9.721  19.136  0.00  0.00    +0.000 NA
ATOM      7  C   UNL     1       0.599   9.116  20.300  0.00  0.00    +0.000 A 
ATOM      8  N   UNL     1       1.427   7.986  20.288  0.00  0.00    +0.000 N 
ATOM      9  C   UNL     1       2.384   7.933  19.174  0.00  0.00    +0.000 C 
ATOM     10  C   UNL     1       3.367   6.746  19.388  0.00  0.00    +0.000 C 
ATOM     11  N   UNL     1       2.730   5.398  19.560  0.00  0.00    +0.000 NA
ATOM     12  C   UNL     1       1.748   5.557  20.670  0.00  0.00    +0.000 C 
ATOM     13  C   UNL     1       0.719   6.711  20.508  0.00  0.00    +0.000 C 
ATOM     14  C   UNL     1       0.226   9.666  21.539  0.00  0.00    +0.000 A 
ATOM     15  F   UNL     1       0.583   9.057  22.684  0.00  0.00    +0.000 F 
ENDROOT
BRANCH  11  16
ATOM     16  C   UNL     1       2.161   4.893  18.282  0.00  0.00    +0.000 C 
ATOM     17  C   UNL     1       3.278   4.484  17.287  0.00  0.00    +0.000 C 
ATOM     18  C   UNL     1       3.984   3.182  17.666  0.00  0.00    +0.000 C 
ATOM     19  C   UNL     1       3.006   2.019  17.749  0.00  0.00    +0.000 C 
ATOM     20  C   UNL     1       1.794   2.324  18.623  0.00  0.00    +0.000 C 
ATOM     21  C   UNL     1       1.173   3.699  18.365  0.00  0.00    +0.000 C 
ENDBRANCH  11  16
BRANCH   5  22
ATOM     22  O   UNL     1      -0.820  11.564  18.067  0.00  0.00    +0.000 OA
BRANCH  22  23
ATOM     23  C   UNL     1      -2.019  11.288  17.453  0.00  0.00    +0.000 A 
ATOM     24  C   UNL     1      -3.151  11.395  18.268  0.00  0.00    +0.000 A 
ATOM     25  C   UNL     1      -4.415  11.080  17.769  0.00  0.00    +0.000 A 
ATOM     26  C   UNL     1      -4.550  10.645  16.452  0.00  0.00    +0.000 A 
ATOM     27  C   UNL     1      -3.418  10.514  15.638  0.00  0.00    +0.000 A 
ATOM     28  C   UNL     1      -2.147  10.818  16.145  0.00  0.00    +0.000 A 
BRANCH  27  29
ATOM     29  C   UNL     1      -3.572  10.036  14.237  0.00  0.00    +0.000 C 
ATOM     30  N   UNL     1      -2.566   9.849  13.442  0.00  0.00    +0.000 NA
ATOM     31  N   UNL     1      -4.810   9.764  13.732  0.00  0.00    +0.000 N 
ATOM     32  H   UNL     1      -1.687  10.124  13.890  0.00  0.00    +0.000 HD
ATOM     33  H   UNL     1      -5.471   9.346  14.373  0.00  0.00    +0.000 HD
ATOM     34  H   UNL     1      -4.739   9.255  12.856  0.00  0.00    +0.000 HD
ENDBRANCH  27  29
ENDBRANCH  22  23
ENDBRANCH   5  22
TORSDOF 4
ENDMDL
MODEL 5
REMARK VINA RESULT:      -7.4      3.491      9.480
REMARK  Name = 
REMARK  5 active torsions:
REMARK  status: ('A' for Active; 'I' for Inactive)
REMARK    1  A    between atoms: C_1  and  C_2
REMARK    2  A    between atoms: C_5  and  O_6
REMARK    3  A    between atoms: O_6  and  C_7
REMARK    4  A    between atoms: C_11  and  C_12
REMARK    5  A    between atoms: N_21  and  C_22
REMARK                            x       y       z     vdW  Elec       q    Type
REMARK                         _______ _______ _______ _____ _____    ______ ____
ROOT
ATOM      1  C   UNL     1       1.865   5.028  20.848  0.00  0.00    +0.000 C 
ATOM      2  C   UNL     1       2.055   6.241  19.996  0.00  0.00    +0.000 A 
ATOM      3  C   UNL     1       2.779   6.204  18.810  0.00  0.00    +0.000 A 
ATOM      4  F   UNL     1       3.374   5.069  18.414  0.00  0.00    +0.000 F 
ATOM      5  C   UNL     1       2.859   7.357  18.033  0.00  0.00    +0.000 A 
ATOM      6  N   UNL     1       2.226   8.523  18.332  0.00  0.00    +0.000 NA
ATOM      7  C   UNL     1       1.520   8.571  19.492  0.00  0.00    +0.000 A 
ATOM      8  N   UNL     1       0.758   9.703  19.812  0.00  0.00    +0.000 N 
ATOM      9  C   UNL     1       0.220  10.432  18.654  0.00  0.00    +0.000 C 
ATOM     10  C   UNL     1      -0.760  11.536  19.146  0.00  0.00    +0.000 C 
ATOM     11  N   UNL     1      -0.195  12.516  20.131  0.00  0.00    +0.000 NA
ATOM     12  C   UNL     1       0.367  11.692  21.239  0.00  0.00    +0.000 C 
ATOM     13  C   UNL     1       1.375  10.585  20.820  0.00  0.00    +0.000 C 
ATOM     14  C   UNL     1       1.458   7.454  20.344  0.00  0.00    +0.000 A 
ATOM     15  F   UNL     1       0.755   7.515  21.488  0.00  0.00    +0.000 F 
ENDROOT
BRANCH  11  16
ATOM     16  C   UNL     1       0.769  13.448  19.486  0.00  0.00    +0.000 C 
ATOM     17  C   UNL     1       0.037  14.542  18.668  0.00  0.00    +0.000 C 
ATOM     18  C   UNL     1      -0.642  15.601  19.536  0.00  0.00    +0.000 C 
ATOM     19  C   UNL     1       0.357  16.308  20.441  0.00  0.00    +0.000 C 
ATOM     20  C   UNL     1       1.223  15.338  21.238  0.00  0.00    +0.000 C 
ATOM     21  C   UNL     1       1.779  14.178  20.410  0.00  0.00    +0.000 C 
ENDBRANCH  11  16
BRANCH   5  22
ATOM     22  O   UNL     1       3.554   7.231  16.836  0.00  0.00    +0.000 OA
BRANCH  22  23
ATOM     23  C   UNL     1       4.816   6.686  16.846  0.00  0.00    +0.000 A 
ATOM     24  C   UNL     1       5.107   5.822  15.785  0.00  0.00    +0.000 A 
ATOM     25  C   UNL     1       6.336   5.163  15.725  0.00  0.00    +0.000 A 
ATOM     26  C   UNL     1       7.277   5.360  16.734  0.00  0.00    +0.000 A 
ATOM     27  C   UNL     1       6.982   6.207  17.810  0.00  0.00    +0.000 A 
ATOM     28  C   UNL     1       5.743   6.857  17.876  0.00  0.00    +0.000 A 
BRANCH  27  29
ATOM     29  C   UNL     1       7.990   6.399  18.889  0.00  0.00    +0.000 C 
ATOM     30  N   UNL     1       8.310   5.464  19.727  0.00  0.00    +0.000 NA
ATOM     31  N   UNL     1       8.631   7.594  19.030  0.00  0.00    +0.000 N 
ATOM     32  H   UNL     1       7.745   4.624  19.576  0.00  0.00    +0.000 HD
ATOM     33  H   UNL     1       8.865   8.079  18.173  0.00  0.00    +0.000 HD
ATOM     34  H   UNL     1       9.425   7.506  19.658  0.00  0.00    +0.000 HD
ENDBRANCH  27  29
ENDBRANCH  22  23
ENDBRANCH   5  22
TORSDOF 4
ENDMDL
MODEL 6
REMARK VINA RESULT:      -7.3      4.224      9.409
REMARK  Name = 
REMARK  5 active torsions:
REMARK  status: ('A' for Active; 'I' for Inactive)
REMARK    1  A    between atoms: C_1  and  C_2
REMARK    2  A    between atoms: C_5  and  O_6
REMARK    3  A    between atoms: O_6  and  C_7
REMARK    4  A    between atoms: C_11  and  C_12
REMARK    5  A    between atoms: N_21  and  C_22
REMARK                            x       y       z     vdW  Elec       q    Type
REMARK                         _______ _______ _______ _____ _____    ______ ____
ROOT
ATOM      1  C   UNL     1       1.727   2.375  20.387  0.00  0.00    +0.000 C 
ATOM      2  C   UNL     1       2.484   3.639  20.139  0.00  0.00    +0.000 A 
ATOM      3  C   UNL     1       3.866   3.654  19.984  0.00  0.00    +0.000 A 
ATOM      4  F   UNL     1       4.573   2.521  20.099  0.00  0.00    +0.000 F 
ATOM      5  C   UNL     1       4.496   4.860  19.689  0.00  0.00    +0.000 A 
ATOM      6  N   UNL     1       3.841   6.035  19.488  0.00  0.00    +0.000 NA
ATOM      7  C   UNL     1       2.491   6.031  19.643  0.00  0.00    +0.000 A 
ATOM      8  N   UNL     1       1.741   7.179  19.351  0.00  0.00    +0.000 N 
ATOM      9  C   UNL     1       2.305   8.032  18.295  0.00  0.00    +0.000 C 
ATOM     10  C   UNL     1       1.286   9.151  17.932  0.00  0.00    +0.000 C 
ATOM     11  N   UNL     1       0.830  10.010  19.074  0.00  0.00    +0.000 NA
ATOM     12  C   UNL     1       0.322   9.065  20.109  0.00  0.00    +0.000 C 
ATOM     13  C   UNL     1       1.300   7.935  20.537  0.00  0.00    +0.000 C 
ATOM     14  C   UNL     1       1.811   4.854  20.002  0.00  0.00    +0.000 A 
ATOM     15  F   UNL     1       0.475   4.865  20.151  0.00  0.00    +0.000 F 
ENDROOT
BRANCH  11  16
ATOM     16  C   UNL     1       1.905  10.929  19.533  0.00  0.00    +0.000 C 
ATOM     17  C   UNL     1       2.285  11.951  18.431  0.00  0.00    +0.000 C 
ATOM     18  C   UNL     1       1.233  13.039  18.220  0.00  0.00    +0.000 C 
ATOM     19  C   UNL     1       0.979  13.828  19.497  0.00  0.00    +0.000 C 
ATOM     20  C   UNL     1       0.689  12.933  20.698  0.00  0.00    +0.000 C 
ATOM     21  C   UNL     1       1.641  11.742  20.828  0.00  0.00    +0.000 C 
ENDBRANCH  11  16
BRANCH   5  22
ATOM     22  O   UNL     1       5.871   4.790  19.495  0.00  0.00    +0.000 OA
BRANCH  22  23
ATOM     23  C   UNL     1       6.414   5.304  18.341  0.00  0.00    +0.000 A 
ATOM     24  C   UNL     1       6.977   6.579  18.457  0.00  0.00    +0.000 A 
ATOM     25  C   UNL     1       7.502   7.226  17.337  0.00  0.00    +0.000 A 
ATOM     26  C   UNL     1       7.458   6.600  16.092  0.00  0.00    +0.000 A 
ATOM     27  C   UNL     1       6.875   5.333  15.966  0.00  0.00    +0.000 A 
ATOM     28  C   UNL     1       6.336   4.691  17.089  0.00  0.00    +0.000 A 
BRANCH  27  29
ATOM     29  C   UNL     1       6.821   4.680  14.629  0.00  0.00    +0.000 C 
ATOM     30  N   UNL     1       6.167   3.583  14.408  0.00  0.00    +0.000 NA
ATOM     31  N   UNL     1       7.468   5.232  13.564  0.00  0.00    +0.000 N 
ATOM     32  H   UNL     1       5.757   3.219  15.272  0.00  0.00    +0.000 HD
ATOM     33  H   UNL     1       7.467   6.243  13.516  0.00  0.00    +0.000 HD
ATOM     34  H   UNL     1       7.168   4.800  12.695  0.00  0.00    +0.000 HD
ENDBRANCH  27  29
ENDBRANCH  22  23
ENDBRANCH   5  22
TORSDOF 4
ENDMDL
MODEL 7
REMARK VINA RESULT:      -7.3      1.955      2.610
REMARK  Name = 
REMARK  5 active torsions:
REMARK  status: ('A' for Active; 'I' for Inactive)
REMARK    1  A    between atoms: C_1  and  C_2
REMARK    2  A    between atoms: C_5  and  O_6
REMARK    3  A    between atoms: O_6  and  C_7
REMARK    4  A    between atoms: C_11  and  C_12
REMARK    5  A    between atoms: N_21  and  C_22
REMARK                            x       y       z     vdW  Elec       q    Type
REMARK                         _______ _______ _______ _____ _____    ______ ____
ROOT
ATOM      1  C   UNL     1      -1.321  13.363  21.349  0.00  0.00    +0.000 C 
ATOM      2  C   UNL     1      -1.319  12.194  20.417  0.00  0.00    +0.000 A 
ATOM      3  C   UNL     1      -2.219  12.089  19.363  0.00  0.00    +0.000 A 
ATOM      4  F   UNL     1      -3.158  13.027  19.178  0.00  0.00    +0.000 F 
ATOM      5  C   UNL     1      -2.114  11.004  18.496  0.00  0.00    +0.000 A 
ATOM      6  N   UNL     1      -1.147  10.052  18.577  0.00  0.00    +0.000 NA
ATOM      7  C   UNL     1      -0.266  10.144  19.607  0.00  0.00    +0.000 A 
ATOM      8  N   UNL     1       0.818   9.259  19.693  0.00  0.00    +0.000 N 
ATOM      9  C   UNL     1       1.326   8.778  18.401  0.00  0.00    +0.000 C 
ATOM     10  C   UNL     1       2.639   7.973  18.626  0.00  0.00    +0.000 C 
ATOM     11  N   UNL     1       2.539   6.820  19.581  0.00  0.00    +0.000 NA
ATOM     12  C   UNL     1       1.975   7.389  20.838  0.00  0.00    +0.000 C 
ATOM     13  C   UNL     1       0.647   8.184  20.689  0.00  0.00    +0.000 C 
ATOM     14  C   UNL     1      -0.364  11.184  20.548  0.00  0.00    +0.000 A 
ATOM     15  F   UNL     1       0.515  11.263  21.562  0.00  0.00    +0.000 F 
ENDROOT
BRANCH  11  16
ATOM     16  C   UNL     1       1.768   5.690  18.998  0.00  0.00    +0.000 C 
ATOM     17  C   UNL     1       2.540   5.020  17.832  0.00  0.00    +0.000 C 
ATOM     18  C   UNL     1       3.727   4.175  18.292  0.00  0.00    +0.000 C 
ATOM     19  C   UNL     1       3.291   3.066  19.239  0.00  0.00    +0.000 C 
ATOM     20  C   UNL     1       2.429   3.575  20.391  0.00  0.00    +0.000 C 
ATOM     21  C   UNL     1       1.334   4.553  19.961  0.00  0.00    +0.000 C 
ENDBRANCH  11  16
BRANCH   5  22
ATOM     22  O   UNL     1      -3.013  10.992  17.435  0.00  0.00    +0.000 OA
BRANCH  22  23
ATOM     23  C   UNL     1      -4.360  11.093  17.694  0.00  0.00    +0.000 A 
ATOM     24  C   UNL     1      -5.023  12.134  17.037  0.00  0.00    +0.000 A 
ATOM     25  C   UNL     1      -6.378  12.370  17.272  0.00  0.00    +0.000 A 
ATOM     26  C   UNL     1      -7.074  11.568  18.174  0.00  0.00    +0.000 A 
ATOM     27  C   UNL     1      -6.410  10.538  18.852  0.00  0.00    +0.000 A 
ATOM     28  C   UNL     1      -5.046  10.310  18.625  0.00  0.00    +0.000 A 
BRANCH  27  29
ATOM     29  C   UNL     1      -7.160   9.695  19.823  0.00  0.00    +0.000 C 
ATOM     30  N   UNL     1      -7.508   8.472  19.572  0.00  0.00    +0.000 NA
ATOM     31  N   UNL     1      -7.510  10.193  21.044  0.00  0.00    +0.000 N 
ATOM     32  H   UNL     1      -7.247   8.203  18.620  0.00  0.00    +0.000 HD
ATOM     33  H   UNL     1      -6.839  10.810  21.483  0.00  0.00    +0.000 HD
ATOM     34  H   UNL     1      -7.821   9.449  21.662  0.00  0.00    +0.000 HD
ENDBRANCH  27  29
ENDBRANCH  22  23
ENDBRANCH   5  22
TORSDOF 4
ENDMDL
MODEL 8
REMARK VINA RESULT:      -7.2      3.485      9.560
REMARK  Name = 
REMARK  5 active torsions:
REMARK  status: ('A' for Active; 'I' for Inactive)
REMARK    1  A    between atoms: C_1  and  C_2
REMARK    2  A    between atoms: C_5  and  O_6
REMARK    3  A    between atoms: O_6  and  C_7
REMARK    4  A    between atoms: C_11  and  C_12
REMARK    5  A    between atoms: N_21  and  C_22
REMARK                            x       y       z     vdW  Elec       q    Type
REMARK                         _______ _______ _______ _____ _____    ______ ____
ROOT
ATOM      1  C   UNL     1      -3.688  10.165  17.186  0.00  0.00    +0.000 C 
ATOM      2  C   UNL     1      -2.587  10.761  18.001  0.00  0.00    +0.000 A 
ATOM      3  C   UNL     1      -1.266  10.348  17.872  0.00  0.00    +0.000 A 
ATOM      4  F   UNL     1      -0.946   9.356  17.028  0.00  0.00    +0.000 F 
ATOM      5  C   UNL     1      -0.283  10.994  18.616  0.00  0.00    +0.000 A 
ATOM      6  N   UNL     1      -0.519  12.052  19.438  0.00  0.00    +0.000 NA
ATOM      7  C   UNL     1      -1.808  12.459  19.575  0.00  0.00    +0.000 A 
ATOM      8  N   UNL     1      -2.113  13.606  20.322  0.00  0.00    +0.000 N 
ATOM      9  C   UNL     1      -1.066  14.638  20.322  0.00  0.00    +0.000 C 
ATOM     10  C   UNL     1      -1.606  15.925  21.011  0.00  0.00    +0.000 C 
ATOM     11  N   UNL     1      -2.127  15.745  22.407  0.00  0.00    +0.000 NA
ATOM     12  C   UNL     1      -3.140  14.655  22.319  0.00  0.00    +0.000 C 
ATOM     13  C   UNL     1      -2.659  13.330  21.663  0.00  0.00    +0.000 C 
ATOM     14  C   UNL     1      -2.848  11.802  18.894  0.00  0.00    +0.000 A 
ATOM     15  F   UNL     1      -4.118  12.217  19.039  0.00  0.00    +0.000 F 
ENDROOT
BRANCH  11  16
ATOM     16  C   UNL     1      -1.025  15.506  23.377  0.00  0.00    +0.000 C 
ATOM     17  C   UNL     1      -0.181  16.787  23.602  0.00  0.00    +0.000 C 
ATOM     18  C   UNL     1      -0.895  17.848  24.438  0.00  0.00    +0.000 C 
ATOM     19  C   UNL     1      -1.278  17.314  25.811  0.00  0.00    +0.000 C 
ATOM     20  C   UNL     1      -2.033  15.991  25.743  0.00  0.00    +0.000 C 
ATOM     21  C   UNL     1      -1.417  14.973  24.780  0.00  0.00    +0.000 C 
ENDBRANCH  11  16
BRANCH   5  22
ATOM     22  O   UNL     1       1.021  10.564  18.396  0.00  0.00    +0.000 OA
BRANCH  22  23
ATOM     23  C   UNL     1       1.405   9.323  18.846  0.00  0.00    +0.000 A 
ATOM     24  C   UNL     1       1.119   9.055  20.189  0.00  0.00    +0.000 A 
ATOM     25  C   UNL     1       1.517   7.851  20.771  0.00  0.00    +0.000 A 
ATOM     26  C   UNL     1       2.214   6.912  20.012  0.00  0.00    +0.000 A 
ATOM     27  C   UNL     1       2.523   7.185  18.674  0.00  0.00    +0.000 A 
ATOM     28  C   UNL     1       2.134   8.400  18.094  0.00  0.00    +0.000 A 
BRANCH  27  29
ATOM     29  C   UNL     1       3.280   6.180  17.876  0.00  0.00    +0.000 C 
ATOM     30  N   UNL     1       2.932   4.934  17.803  0.00  0.00    +0.000 NA
ATOM     31  N   UNL     1       4.388   6.549  17.173  0.00  0.00    +0.000 N 
ATOM     32  H   UNL     1       2.122   4.742  18.399  0.00  0.00    +0.000 HD
ATOM     33  H   UNL     1       4.358   7.463  16.741  0.00  0.00    +0.000 HD
ATOM     34  H   UNL     1       4.664   5.818  16.523  0.00  0.00    +0.000 HD
ENDBRANCH  27  29
ENDBRANCH  22  23
ENDBRANCH   5  22
TORSDOF 4
ENDMDL
MODEL 9
REMARK VINA RESULT:      -7.2      4.015      8.722
REMARK  Name = 
REMARK  5 active torsions:
REMARK  status: ('A' for Active; 'I' for Inactive)
REMARK    1  A    between atoms: C_1  and  C_2
REMARK    2  A    between atoms: C_5  and  O_6
REMARK    3  A    between atoms: O_6  and  C_7
REMARK    4  A    between atoms: C_11  and  C_12
REMARK    5  A    between atoms: N_21  and  C_22
REMARK                            x       y       z     vdW  Elec       q    Type
REMARK                         _______ _______ _______ _____ _____    ______ ____
ROOT
ATOM      1  C   UNL     1       0.832   8.848  21.990  0.00  0.00    +0.000 C 
ATOM      2  C   UNL     1       0.041   9.994  21.449  0.00  0.00    +0.000 A 
ATOM      3  C   UNL     1      -0.043  10.254  20.086  0.00  0.00    +0.000 A 
ATOM      4  F   UNL     1       0.630   9.497  19.208  0.00  0.00    +0.000 F 
ATOM      5  C   UNL     1      -0.853  11.300  19.649  0.00  0.00    +0.000 A 
ATOM      6  N   UNL     1      -1.619  12.066  20.471  0.00  0.00    +0.000 NA
ATOM      7  C   UNL     1      -1.539  11.823  21.805  0.00  0.00    +0.000 A 
ATOM      8  N   UNL     1      -2.377  12.502  22.701  0.00  0.00    +0.000 N 
ATOM      9  C   UNL     1      -3.687  12.881  22.153  0.00  0.00    +0.000 C 
ATOM     10  C   UNL     1      -4.584  13.441  23.295  0.00  0.00    +0.000 C 
ATOM     11  N   UNL     1      -4.014  14.597  24.063  0.00  0.00    +0.000 NA
ATOM     12  C   UNL     1      -2.676  14.141  24.536  0.00  0.00    +0.000 C 
ATOM     13  C   UNL     1      -1.717  13.593  23.442  0.00  0.00    +0.000 C 
ATOM     14  C   UNL     1      -0.690  10.820  22.305  0.00  0.00    +0.000 A 
ATOM     15  F   UNL     1      -0.621  10.590  23.628  0.00  0.00    +0.000 F 
ENDROOT
BRANCH  11  16
ATOM     16  C   UNL     1      -4.006  15.844  23.253  0.00  0.00    +0.000 C 
ATOM     17  C   UNL     1      -5.432  16.216  22.772  0.00  0.00    +0.000 C 
ATOM     18  C   UNL     1      -6.327  16.762  23.884  0.00  0.00    +0.000 C 
ATOM     19  C   UNL     1      -5.728  18.006  24.525  0.00  0.00    +0.000 C 
ATOM     20  C   UNL     1      -4.279  17.811  24.957  0.00  0.00    +0.000 C 
ATOM     21  C   UNL     1      -3.407  17.115  23.910  0.00  0.00    +0.000 C 
ENDBRANCH  11  16
BRANCH   5  22
ATOM     22  O   UNL     1      -0.930  11.467  18.271  0.00  0.00    +0.000 OA
BRANCH  22  23
ATOM     23  C   UNL     1      -2.102  11.157  17.621  0.00  0.00    +0.000 A 
ATOM     24  C   UNL     1      -1.984  10.236  16.576  0.00  0.00    +0.000 A 
ATOM     25  C   UNL     1      -3.096   9.893  15.806  0.00  0.00    +0.000 A 
ATOM     26  C   UNL     1      -4.332  10.480  16.075  0.00  0.00    +0.000 A 
ATOM     27  C   UNL     1      -4.451  11.420  17.105  0.00  0.00    +0.000 A 
ATOM     28  C   UNL     1      -3.330  11.773  17.869  0.00  0.00    +0.000 A 
BRANCH  27  29
ATOM     29  C   UNL     1      -5.772  12.050  17.375  0.00  0.00    +0.000 C 
ATOM     30  N   UNL     1      -6.824  11.367  17.702  0.00  0.00    +0.000 NA
ATOM     31  N   UNL     1      -5.923  13.403  17.291  0.00  0.00    +0.000 N 
ATOM     32  H   UNL     1      -6.628  10.362  17.693  0.00  0.00    +0.000 HD
ATOM     33  H   UNL     1      -5.141  13.959  17.611  0.00  0.00    +0.000 HD
ATOM     34  H   UNL     1      -6.805  13.695  17.701  0.00  0.00    +0.000 HD
ENDBRANCH  27  29
ENDBRANCH  22  23
ENDBRANCH   5  22
TORSDOF 4
ENDMDL
