MODEL 1
REMARK VINA RESULT:      -6.6      0.000      0.000
REMARK  Name = 
REMARK  1 active torsions:
REMARK  status: ('A' for Active; 'I' for Inactive)
REMARK    1  A    between atoms: C_1  and  C_2
REMARK                            x       y       z     vdW  Elec       q    Type
REMARK                         _______ _______ _______ _____ _____    ______ ____
ROOT
ATOM      1  C   UNL     1       3.877   2.269  19.289  0.00  0.00    +0.000 C 
ATOM      2  C   UNL     1       3.251   3.617  19.513  0.00  0.00    +0.000 A 
ATOM      3  C   UNL     1       2.319   3.834  20.554  0.00  0.00    +0.000 A 
ATOM      4 CL   UNL     1       1.789   2.561  21.607  0.00  0.00    +0.000 Cl
ATOM      5  C   UNL     1       1.767   5.103  20.801  0.00  0.00    +0.000 A 
ATOM      6  C   UNL     1       2.125   6.195  20.021  0.00  0.00    +0.000 A 
ATOM      7  C   UNL     1       3.021   5.978  18.988  0.00  0.00    +0.000 A 
ATOM      8  C   UNL     1       3.586   4.712  18.715  0.00  0.00    +0.000 A 
ATOM      9  N   UNL     1       4.478   4.813  17.653  0.00  0.00    +0.000 N 
ATOM     10  C   UNL     1       4.994   3.751  16.805  0.00  0.00    +0.000 C 
ATOM     11  C   UNL     1       5.779   4.319  15.584  0.00  0.00    +0.000 C 
ATOM     12  N   UNL     1       6.387   5.651  15.726  0.00  0.00    +0.000 NA
ATOM     13  C   UNL     1       5.492   6.648  16.349  0.00  0.00    +0.000 C 
ATOM     14  C   UNL     1       4.202   6.096  16.988  0.00  0.00    +0.000 C 
ATOM     15  C   UNL     1       3.581   7.010  18.055  0.00  0.00    +0.000 C 
ATOM     16  H   UNL     1       6.723   5.988  14.827  0.00  0.00    +0.000 HD
ENDROOT
TORSDOF 0
ENDMDL
MODEL 2
REMARK VINA RESULT:      -6.5      1.248      1.297
REMARK  Name = 
REMARK  1 active torsions:
REMARK  status: ('A' for Active; 'I' for Inactive)
REMARK    1  A    between atoms: C_1  and  C_2
REMARK                            x       y       z     vdW  Elec       q    Type
REMARK                         _______ _______ _______ _____ _____    ______ ____
ROOT
ATOM      1  C   UNL     1       3.038   2.225  17.699  0.00  0.00    +0.000 C 
ATOM      2  C   UNL     1       2.920   3.633  18.212  0.00  0.00    +0.000 A 
ATOM      3  C   UNL     1       1.913   4.000  19.135  0.00  0.00    +0.000 A 
ATOM      4 CL   UNL     1       0.714   2.880  19.697  0.00  0.00    +0.000 Cl
ATOM      5  C   UNL     1       1.828   5.303  19.658  0.00  0.00    +0.000 A 
ATOM      6  C   UNL     1       2.741   6.278  19.280  0.00  0.00    +0.000 A 
ATOM      7  C   UNL     1       3.713   5.925  18.360  0.00  0.00    +0.000 A 
ATOM      8  C   UNL     1       3.818   4.625  17.815  0.00  0.00    +0.000 A 
ATOM      9  N   UNL     1       4.911   4.560  16.959  0.00  0.00    +0.000 N 
ATOM     10  C   UNL     1       5.186   3.580  15.921  0.00  0.00    +0.000 C 
ATOM     11  C   UNL     1       6.394   4.006  15.032  0.00  0.00    +0.000 C 
ATOM     12  N   UNL     1       7.398   4.898  15.632  0.00  0.00    +0.000 NA
ATOM     13  C   UNL     1       6.813   6.026  16.386  0.00  0.00    +0.000 C 
ATOM     14  C   UNL     1       5.297   5.947  16.658  0.00  0.00    +0.000 C 
ATOM     15  C   UNL     1       4.821   6.794  17.848  0.00  0.00    +0.000 C 
ATOM     16  H   UNL     1       8.040   5.241  14.921  0.00  0.00    +0.000 HD
ENDROOT
TORSDOF 0
ENDMDL
MODEL 3
REMARK VINA RESULT:      -6.4      1.633      2.839
REMARK  Name = 
REMARK  1 active torsions:
REMARK  status: ('A' for Active; 'I' for Inactive)
REMARK    1  A    between atoms: C_1  and  C_2
REMARK                            x       y       z     vdW  Elec       q    Type
REMARK                         _______ _______ _______ _____ _____    ______ ____
ROOT
ATOM      1  C   UNL     1       3.272   5.858  20.029  0.00  0.00    +0.000 C 
ATOM      2  C   UNL     1       3.116   4.736  19.042  0.00  0.00    +0.000 A 
ATOM      3  C   UNL     1       1.997   3.872  19.079  0.00  0.00    +0.000 A 
ATOM      4 CL   UNL     1       0.759   4.004  20.287  0.00  0.00    +0.000 Cl
ATOM      5  C   UNL     1       1.818   2.852  18.127  0.00  0.00    +0.000 A 
ATOM      6  C   UNL     1       2.746   2.659  17.113  0.00  0.00    +0.000 A 
ATOM      7  C   UNL     1       3.853   3.491  17.090  0.00  0.00    +0.000 A 
ATOM      8  C   UNL     1       4.059   4.521  18.036  0.00  0.00    +0.000 A 
ATOM      9  N   UNL     1       5.226   5.212  17.732  0.00  0.00    +0.000 N 
ATOM     10  C   UNL     1       6.015   6.072  18.600  0.00  0.00    +0.000 C 
ATOM     11  C   UNL     1       7.376   6.457  17.944  0.00  0.00    +0.000 C 
ATOM     12  N   UNL     1       7.449   6.451  16.475  0.00  0.00    +0.000 NA
ATOM     13  C   UNL     1       6.829   5.262  15.856  0.00  0.00    +0.000 C 
ATOM     14  C   UNL     1       5.983   4.373  16.790  0.00  0.00    +0.000 C 
ATOM     15  C   UNL     1       4.949   3.497  16.068  0.00  0.00    +0.000 C 
ATOM     16  H   UNL     1       8.413   6.551  16.165  0.00  0.00    +0.000 HD
ENDROOT
TORSDOF 0
ENDMDL
MODEL 4
REMARK VINA RESULT:      -6.4      1.712      1.774
REMARK  Name = 
REMARK  1 active torsions:
REMARK  status: ('A' for Active; 'I' for Inactive)
REMARK    1  A    between atoms: C_1  and  C_2
REMARK                            x       y       z     vdW  Elec       q    Type
REMARK                         _______ _______ _______ _____ _____    ______ ____
ROOT
ATOM      1  C   UNL     1       2.791   2.244  17.086  0.00  0.00    +0.000 C 
ATOM      2  C   UNL     1       2.858   3.290  18.162  0.00  0.00    +0.000 A 
ATOM      3  C   UNL     1       1.822   3.439  19.113  0.00  0.00    +0.000 A 
ATOM      4 CL   UNL     1       0.381   2.474  19.076  0.00  0.00    +0.000 Cl
ATOM      5  C   UNL     1       1.901   4.382  20.154  0.00  0.00    +0.000 A 
ATOM      6  C   UNL     1       3.013   5.204  20.280  0.00  0.00    +0.000 A 
ATOM      7  C   UNL     1       4.018   5.074  19.337  0.00  0.00    +0.000 A 
ATOM      8  C   UNL     1       3.961   4.138  18.279  0.00  0.00    +0.000 A 
ATOM      9  N   UNL     1       5.127   4.209  17.525  0.00  0.00    +0.000 N 
ATOM     10  C   UNL     1       5.355   3.727  16.172  0.00  0.00    +0.000 C 
ATOM     11  C   UNL     1       6.724   4.218  15.610  0.00  0.00    +0.000 C 
ATOM     12  N   UNL     1       7.784   4.534  16.580  0.00  0.00    +0.000 NA
ATOM     13  C   UNL     1       7.315   5.332  17.731  0.00  0.00    +0.000 C 
ATOM     14  C   UNL     1       5.787   5.474  17.882  0.00  0.00    +0.000 C 
ATOM     15  C   UNL     1       5.319   5.817  19.304  0.00  0.00    +0.000 C 
ATOM     16  H   UNL     1       8.563   4.998  16.119  0.00  0.00    +0.000 HD
ENDROOT
TORSDOF 0
ENDMDL
MODEL 5
REMARK VINA RESULT:      -6.3      2.722      4.739
REMARK  Name = 
REMARK  1 active torsions:
REMARK  status: ('A' for Active; 'I' for Inactive)
REMARK    1  A    between atoms: C_1  and  C_2
REMARK                            x       y       z     vdW  Elec       q    Type
REMARK                         _______ _______ _______ _____ _____    ______ ____
ROOT
ATOM      1  C   UNL     1       4.563   2.968  16.687  0.00  0.00    +0.000 C 
ATOM      2  C   UNL     1       4.427   4.438  16.968  0.00  0.00    +0.000 A 
ATOM      3  C   UNL     1       5.084   5.405  16.173  0.00  0.00    +0.000 A 
ATOM      4 CL   UNL     1       6.132   4.972  14.859  0.00  0.00    +0.000 Cl
ATOM      5  C   UNL     1       4.921   6.784  16.397  0.00  0.00    +0.000 A 
ATOM      6  C   UNL     1       4.101   7.242  17.420  0.00  0.00    +0.000 A 
ATOM      7  C   UNL     1       3.475   6.295  18.212  0.00  0.00    +0.000 A 
ATOM      8  C   UNL     1       3.625   4.904  18.011  0.00  0.00    +0.000 A 
ATOM      9  N   UNL     1       2.845   4.208  18.928  0.00  0.00    +0.000 N 
ATOM     10  C   UNL     1       2.961   2.818  19.337  0.00  0.00    +0.000 C 
ATOM     11  C   UNL     1       2.049   2.501  20.561  0.00  0.00    +0.000 C 
ATOM     12  N   UNL     1       0.854   3.337  20.753  0.00  0.00    +0.000 NA
ATOM     13  C   UNL     1       1.109   4.782  20.586  0.00  0.00    +0.000 C 
ATOM     14  C   UNL     1       2.475   5.165  19.982  0.00  0.00    +0.000 C 
ATOM     15  C   UNL     1       2.515   6.557  19.334  0.00  0.00    +0.000 C 
ATOM     16  H   UNL     1       0.432   3.154  21.661  0.00  0.00    +0.000 HD
ENDROOT
TORSDOF 0
ENDMDL
MODEL 6
REMARK VINA RESULT:      -6.2      2.785      4.927
REMARK  Name = 
REMARK  1 active torsions:
REMARK  status: ('A' for Active; 'I' for Inactive)
REMARK    1  A    between atoms: C_1  and  C_2
REMARK                            x       y       z     vdW  Elec       q    Type
REMARK                         _______ _______ _______ _____ _____    ______ ____
ROOT
ATOM      1  C   UNL     1       1.599   7.239  20.332  0.00  0.00    +0.000 C 
ATOM      2  C   UNL     1       2.517   6.855  19.206  0.00  0.00    +0.000 A 
ATOM      3  C   UNL     1       2.847   7.767  18.178  0.00  0.00    +0.000 A 
ATOM      4 CL   UNL     1       2.179   9.367  18.105  0.00  0.00    +0.000 Cl
ATOM      5  C   UNL     1       3.745   7.431  17.149  0.00  0.00    +0.000 A 
ATOM      6  C   UNL     1       4.342   6.177  17.113  0.00  0.00    +0.000 A 
ATOM      7  C   UNL     1       4.002   5.277  18.107  0.00  0.00    +0.000 A 
ATOM      8  C   UNL     1       3.100   5.587  19.149  0.00  0.00    +0.000 A 
ATOM      9  N   UNL     1       2.992   4.506  20.017  0.00  0.00    +0.000 N 
ATOM     10  C   UNL     1       1.942   4.228  20.984  0.00  0.00    +0.000 C 
ATOM     11  C   UNL     1       2.076   2.795  21.582  0.00  0.00    +0.000 C 
ATOM     12  N   UNL     1       3.416   2.187  21.598  0.00  0.00    +0.000 NA
ATOM     13  C   UNL     1       4.157   2.353  20.331  0.00  0.00    +0.000 C 
ATOM     14  C   UNL     1       3.551   3.341  19.314  0.00  0.00    +0.000 C 
ATOM     15  C   UNL     1       4.555   3.895  18.292  0.00  0.00    +0.000 C 
ATOM     16  H   UNL     1       3.359   1.203  21.851  0.00  0.00    +0.000 HD
ENDROOT
TORSDOF 0
ENDMDL
MODEL 7
REMARK VINA RESULT:      -6.1      1.108      2.748
REMARK  Name = 
REMARK  1 active torsions:
REMARK  status: ('A' for Active; 'I' for Inactive)
REMARK    1  A    between atoms: C_1  and  C_2
REMARK                            x       y       z     vdW  Elec       q    Type
REMARK                         _______ _______ _______ _____ _____    ______ ____
ROOT
ATOM      1  C   UNL     1       2.472   5.644  20.000  0.00  0.00    +0.000 C 
ATOM      2  C   UNL     1       2.726   4.317  19.341  0.00  0.00    +0.000 A 
ATOM      3  C   UNL     1       2.113   3.132  19.807  0.00  0.00    +0.000 A 
ATOM      4 CL   UNL     1       1.075   3.107  21.197  0.00  0.00    +0.000 Cl
ATOM      5  C   UNL     1       2.306   1.896  19.165  0.00  0.00    +0.000 A 
ATOM      6  C   UNL     1       3.115   1.802  18.040  0.00  0.00    +0.000 A 
ATOM      7  C   UNL     1       3.733   2.959  17.596  0.00  0.00    +0.000 A 
ATOM      8  C   UNL     1       3.559   4.212  18.226  0.00  0.00    +0.000 A 
ATOM      9  N   UNL     1       4.265   5.189  17.532  0.00  0.00    +0.000 N 
ATOM     10  C   UNL     1       4.677   6.504  17.998  0.00  0.00    +0.000 C 
ATOM     11  C   UNL     1       5.654   7.188  16.994  0.00  0.00    +0.000 C 
ATOM     12  N   UNL     1       5.572   6.784  15.582  0.00  0.00    +0.000 NA
ATOM     13  C   UNL     1       5.480   5.323  15.388  0.00  0.00    +0.000 C 
ATOM     14  C   UNL     1       5.213   4.485  16.655  0.00  0.00    +0.000 C 
ATOM     15  C   UNL     1       4.603   3.102  16.384  0.00  0.00    +0.000 C 
ATOM     16  H   UNL     1       6.356   7.164  15.056  0.00  0.00    +0.000 HD
ENDROOT
TORSDOF 0
ENDMDL
MODEL 8
REMARK VINA RESULT:      -6.0      1.677      2.973
REMARK  Name = 
REMARK  1 active torsions:
REMARK  status: ('A' for Active; 'I' for Inactive)
REMARK    1  A    between atoms: C_1  and  C_2
REMARK                            x       y       z     vdW  Elec       q    Type
REMARK                         _______ _______ _______ _____ _____    ______ ____
ROOT
ATOM      1  C   UNL     1       2.664   8.056  18.161  0.00  0.00    +0.000 C 
ATOM      2  C   UNL     1       2.706   6.761  18.921  0.00  0.00    +0.000 A 
ATOM      3  C   UNL     1       1.999   6.594  20.134  0.00  0.00    +0.000 A 
ATOM      4 CL   UNL     1       1.084   7.877  20.861  0.00  0.00    +0.000 Cl
ATOM      5  C   UNL     1       1.991   5.369  20.825  0.00  0.00    +0.000 A 
ATOM      6  C   UNL     1       2.688   4.274  20.330  0.00  0.00    +0.000 A 
ATOM      7  C   UNL     1       3.398   4.443  19.154  0.00  0.00    +0.000 A 
ATOM      8  C   UNL     1       3.425   5.664  18.443  0.00  0.00    +0.000 A 
ATOM      9  N   UNL     1       4.181   5.518  17.285  0.00  0.00    +0.000 N 
ATOM     10  C   UNL     1       4.782   6.556  16.464  0.00  0.00    +0.000 C 
ATOM     11  C   UNL     1       5.746   5.958  15.395  0.00  0.00    +0.000 C 
ATOM     12  N   UNL     1       5.500   4.576  14.955  0.00  0.00    +0.000 NA
ATOM     13  C   UNL     1       5.222   3.642  16.064  0.00  0.00    +0.000 C 
ATOM     14  C   UNL     1       4.964   4.282  17.443  0.00  0.00    +0.000 C 
ATOM     15  C   UNL     1       4.176   3.395  18.418  0.00  0.00    +0.000 C 
ATOM     16  H   UNL     1       6.277   4.238  14.391  0.00  0.00    +0.000 HD
ENDROOT
TORSDOF 0
ENDMDL
MODEL 9
REMARK VINA RESULT:      -6.0      2.728      4.717
REMARK  Name = 
REMARK  1 active torsions:
REMARK  status: ('A' for Active; 'I' for Inactive)
REMARK    1  A    between atoms: C_1  and  C_2
REMARK                            x       y       z     vdW  Elec       q    Type
REMARK                         _______ _______ _______ _____ _____    ______ ____
ROOT
ATOM      1  C   UNL     1       4.967   4.105  17.226  0.00  0.00    +0.000 C 
ATOM      2  C   UNL     1       4.166   5.276  17.724  0.00  0.00    +0.000 A 
ATOM      3  C   UNL     1       4.175   6.517  17.048  0.00  0.00    +0.000 A 
ATOM      4 CL   UNL     1       5.145   6.801  15.637  0.00  0.00    +0.000 Cl
ATOM      5  C   UNL     1       3.388   7.601  17.478  0.00  0.00    +0.000 A 
ATOM      6  C   UNL     1       2.570   7.483  18.594  0.00  0.00    +0.000 A 
ATOM      7  C   UNL     1       2.578   6.274  19.269  0.00  0.00    +0.000 A 
ATOM      8  C   UNL     1       3.362   5.171  18.860  0.00  0.00    +0.000 A 
ATOM      9  N   UNL     1       3.128   4.090  19.702  0.00  0.00    +0.000 N 
ATOM     10  C   UNL     1       3.951   2.907  19.899  0.00  0.00    +0.000 C 
ATOM     11  C   UNL     1       3.453   2.054  21.105  0.00  0.00    +0.000 C 
ATOM     12  N   UNL     1       2.033   2.161  21.474  0.00  0.00    +0.000 NA
ATOM     13  C   UNL     1       1.532   3.550  21.506  0.00  0.00    +0.000 C 
ATOM     14  C   UNL     1       2.461   4.622  20.901  0.00  0.00    +0.000 C 
ATOM     15  C   UNL     1       1.746   5.907  20.460  0.00  0.00    +0.000 C 
ATOM     16  H   UNL     1       1.859   1.700  22.364  0.00  0.00    +0.000 HD
ENDROOT
TORSDOF 0
ENDMDL
