MODEL 1
REMARK VINA RESULT:      -7.1      0.000      0.000
REMARK  Name = 
REMARK  10 active torsions:
REMARK  status: ('A' for Active; 'I' for Inactive)
REMARK    1  A    between atoms: C_1  and  C_2
REMARK    2  A    between atoms: C_2  and  C_3
REMARK    3  A    between atoms: C_3  and  C_4
REMARK    4  A    between atoms: C_3  and  C_5
REMARK    5  A    between atoms: C_3  and  S_6
REMARK    6  A    between atoms: S_6  and  C_7
REMARK    7  A    between atoms: C_13  and  N_14
REMARK    8  A    between atoms: N_17  and  C_18
REMARK    9  A    between atoms: C_18  and  C_19
REMARK   10  A    between atoms: C_19  and  O_20
REMARK                            x       y       z     vdW  Elec       q    Type
REMARK                         _______ _______ _______ _____ _____    ______ ____
ROOT
ATOM      1  C   UNL     1       2.482   6.968  19.532  0.00  0.00    +0.000 A 
ATOM      2  N   UNL     1       2.433   7.835  18.546  0.00  0.00    +0.000 NA
ATOM      3  C   UNL     1       1.696   8.886  19.041  0.00  0.00    +0.000 A 
ATOM      4  C   UNL     1       1.378  10.104  18.440  0.00  0.00    +0.000 A 
ATOM      5  C   UNL     1       0.603  11.019  19.170  0.00  0.00    +0.000 A 
ATOM      6 CL   UNL     1       0.396  12.582  18.430  0.00  0.00    +0.000 Cl
ATOM      7  C   UNL     1       0.090  10.733  20.465  0.00  0.00    +0.000 A 
ATOM      8  C   UNL     1       0.467   9.517  21.070  0.00  0.00    +0.000 A 
ATOM      9  C   UNL     1       1.271   8.633  20.336  0.00  0.00    +0.000 A 
ATOM     10  N   UNL     1       1.839   7.426  20.644  0.00  0.00    +0.000 N 
ATOM     11  H   UNL     1       1.820   6.964  21.539  0.00  0.00    +0.000 HD
ENDROOT
BRANCH   7  12
ATOM     12  N   UNL     1      -0.736  11.641  21.138  0.00  0.00    +0.000 N 
ATOM     13  C   UNL     1      -0.838  11.634  22.605  0.00  0.00    +0.000 C 
ATOM     14  C   UNL     1      -1.389  13.003  23.088  0.00  0.00    +0.000 C 
ATOM     15  N   UNL     1      -2.664  13.446  22.465  0.00  0.00    +0.000 NA
ATOM     16  C   UNL     1      -2.501  13.352  20.985  0.00  0.00    +0.000 C 
ATOM     17  C   UNL     1      -2.015  11.971  20.474  0.00  0.00    +0.000 C 
BRANCH  15  18
ATOM     18  C   UNL     1      -3.838  12.657  22.897  0.00  0.00    +0.000 C 
BRANCH  18  19
ATOM     19  C   UNL     1      -4.008  12.565  24.421  0.00  0.00    +0.000 C 
BRANCH  19  20
ATOM     20  O   UNL     1      -5.183  11.839  24.762  0.00  0.00    +0.000 OA
ATOM     21  H   UNL     1      -5.452  11.375  23.945  0.00  0.00    +0.000 HD
ENDBRANCH  19  20
ENDBRANCH  18  19
ENDBRANCH  15  18
ENDBRANCH   7  12
BRANCH   1  22
ATOM     22  S   UNL     1       3.422   5.529  19.560  0.00  0.00    +0.000 S 
BRANCH  22  23
ATOM     23  C   UNL     1       2.262   4.164  19.117  0.00  0.00    +0.000 C 
ATOM     24  C   UNL     1       3.019   2.826  19.048  0.00  0.00    +0.000 C 
ATOM     25  C   UNL     1       1.567   4.428  17.771  0.00  0.00    +0.000 C 
BRANCH  23  27
ATOM     26  C   UNL     1       1.273   2.829  21.142  0.00  0.00    +0.000 C 
ATOM     27  C   UNL     1       1.198   4.067  20.248  0.00  0.00    +0.000 C 
ENDBRANCH  23  27
ENDBRANCH  22  23
ENDBRANCH   1  22
TORSDOF 7
ENDMDL
MODEL 2
REMARK VINA RESULT:      -7.1      0.356      1.185
REMARK  Name = 
REMARK  10 active torsions:
REMARK  status: ('A' for Active; 'I' for Inactive)
REMARK    1  A    between atoms: C_1  and  C_2
REMARK    2  A    between atoms: C_2  and  C_3
REMARK    3  A    between atoms: C_3  and  C_4
REMARK    4  A    between atoms: C_3  and  C_5
REMARK    5  A    between atoms: C_3  and  S_6
REMARK    6  A    between atoms: S_6  and  C_7
REMARK    7  A    between atoms: C_13  and  N_14
REMARK    8  A    between atoms: N_17  and  C_18
REMARK    9  A    between atoms: C_18  and  C_19
REMARK   10  A    between atoms: C_19  and  O_20
REMARK                            x       y       z     vdW  Elec       q    Type
REMARK                         _______ _______ _______ _____ _____    ______ ____
ROOT
ATOM      1  C   UNL     1       2.466   6.733  19.622  0.00  0.00    +0.000 A 
ATOM      2  N   UNL     1       2.466   7.598  18.633  0.00  0.00    +0.000 NA
ATOM      3  C   UNL     1       1.746   8.670  19.107  0.00  0.00    +0.000 A 
ATOM      4  C   UNL     1       1.477   9.895  18.495  0.00  0.00    +0.000 A 
ATOM      5  C   UNL     1       0.709  10.833  19.202  0.00  0.00    +0.000 A 
ATOM      6 CL   UNL     1       0.564  12.399  18.454  0.00  0.00    +0.000 Cl
ATOM      7  C   UNL     1       0.155  10.564  20.484  0.00  0.00    +0.000 A 
ATOM      8  C   UNL     1       0.482   9.341  21.101  0.00  0.00    +0.000 A 
ATOM      9  C   UNL     1       1.280   8.433  20.391  0.00  0.00    +0.000 A 
ATOM     10  N   UNL     1       1.807   7.211  20.715  0.00  0.00    +0.000 N 
ATOM     11  H   UNL     1       1.752   6.753  21.611  0.00  0.00    +0.000 HD
ENDROOT
BRANCH   7  12
ATOM     12  N   UNL     1      -0.663  11.496  21.133  0.00  0.00    +0.000 N 
ATOM     13  C   UNL     1      -0.777  11.518  22.599  0.00  0.00    +0.000 C 
ATOM     14  C   UNL     1      -1.312  12.904  23.052  0.00  0.00    +0.000 C 
ATOM     15  N   UNL     1      -2.575  13.353  22.411  0.00  0.00    +0.000 NA
ATOM     16  C   UNL     1      -2.403  13.230  20.934  0.00  0.00    +0.000 C 
ATOM     17  C   UNL     1      -1.932  11.832  20.453  0.00  0.00    +0.000 C 
BRANCH  15  18
ATOM     18  C   UNL     1      -3.764  12.589  22.848  0.00  0.00    +0.000 C 
BRANCH  18  19
ATOM     19  C   UNL     1      -3.952  12.537  24.372  0.00  0.00    +0.000 C 
BRANCH  19  20
ATOM     20  O   UNL     1      -5.127  11.813  24.718  0.00  0.00    +0.000 OA
ATOM     21  H   UNL     1      -5.250  11.156  24.005  0.00  0.00    +0.000 HD
ENDBRANCH  19  20
ENDBRANCH  18  19
ENDBRANCH  15  18
ENDBRANCH   7  12
BRANCH   1  22
ATOM     22  S   UNL     1       3.365   5.268  19.678  0.00  0.00    +0.000 S 
BRANCH  22  23
ATOM     23  C   UNL     1       2.168   3.929  19.257  0.00  0.00    +0.000 C 
ATOM     24  C   UNL     1       1.586   4.162  17.852  0.00  0.00    +0.000 C 
ATOM     25  C   UNL     1       1.022   3.854  20.279  0.00  0.00    +0.000 C 
BRANCH  23  27
ATOM     26  C   UNL     1       3.422   2.088  17.879  0.00  0.00    +0.000 C 
ATOM     27  C   UNL     1       2.953   2.586  19.247  0.00  0.00    +0.000 C 
ENDBRANCH  23  27
ENDBRANCH  22  23
ENDBRANCH   1  22
TORSDOF 7
ENDMDL
MODEL 3
REMARK VINA RESULT:      -6.9      3.264      4.391
REMARK  Name = 
REMARK  10 active torsions:
REMARK  status: ('A' for Active; 'I' for Inactive)
REMARK    1  A    between atoms: C_1  and  C_2
REMARK    2  A    between atoms: C_2  and  C_3
REMARK    3  A    between atoms: C_3  and  C_4
REMARK    4  A    between atoms: C_3  and  C_5
REMARK    5  A    between atoms: C_3  and  S_6
REMARK    6  A    between atoms: S_6  and  C_7
REMARK    7  A    between atoms: C_13  and  N_14
REMARK    8  A    between atoms: N_17  and  C_18
REMARK    9  A    between atoms: C_18  and  C_19
REMARK   10  A    between atoms: C_19  and  O_20
REMARK                            x       y       z     vdW  Elec       q    Type
REMARK                         _______ _______ _______ _____ _____    ______ ____
ROOT
ATOM      1  C   UNL     1       3.507   6.310  18.292  0.00  0.00    +0.000 A 
ATOM      2  N   UNL     1       3.044   6.152  19.511  0.00  0.00    +0.000 NA
ATOM      3  C   UNL     1       2.259   7.260  19.732  0.00  0.00    +0.000 A 
ATOM      4  C   UNL     1       1.479   7.584  20.843  0.00  0.00    +0.000 A 
ATOM      5  C   UNL     1       0.761   8.790  20.818  0.00  0.00    +0.000 A 
ATOM      6 CL   UNL     1      -0.325   9.042  22.156  0.00  0.00    +0.000 Cl
ATOM      7  C   UNL     1       0.839   9.709  19.736  0.00  0.00    +0.000 A 
ATOM      8  C   UNL     1       1.592   9.336  18.605  0.00  0.00    +0.000 A 
ATOM      9  C   UNL     1       2.273   8.111  18.638  0.00  0.00    +0.000 A 
ATOM     10  N   UNL     1       3.032   7.448  17.711  0.00  0.00    +0.000 N 
ATOM     11  H   UNL     1       3.190   7.726  16.755  0.00  0.00    +0.000 HD
ENDROOT
BRANCH   7  12
ATOM     12  N   UNL     1       0.162  10.934  19.772  0.00  0.00    +0.000 N 
ATOM     13  C   UNL     1      -0.681  11.371  18.649  0.00  0.00    +0.000 C 
ATOM     14  C   UNL     1      -1.669  12.463  19.143  0.00  0.00    +0.000 C 
ATOM     15  N   UNL     1      -1.057  13.627  19.835  0.00  0.00    +0.000 NA
ATOM     16  C   UNL     1      -0.163  13.097  20.907  0.00  0.00    +0.000 C 
ATOM     17  C   UNL     1       0.877  12.052  20.423  0.00  0.00    +0.000 C 
BRANCH  15  18
ATOM     18  C   UNL     1      -0.294  14.518  18.933  0.00  0.00    +0.000 C 
BRANCH  18  19
ATOM     19  C   UNL     1      -0.466  16.014  19.236  0.00  0.00    +0.000 C 
BRANCH  19  20
ATOM     20  O   UNL     1      -1.839  16.346  19.410  0.00  0.00    +0.000 OA
ATOM     21  H   UNL     1      -1.885  16.843  20.250  0.00  0.00    +0.000 HD
ENDBRANCH  19  20
ENDBRANCH  18  19
ENDBRANCH  15  18
ENDBRANCH   7  12
BRANCH   1  22
ATOM     22  S   UNL     1       4.408   5.148  17.400  0.00  0.00    +0.000 S 
BRANCH  22  23
ATOM     23  C   UNL     1       6.182   5.545  17.709  0.00  0.00    +0.000 C 
ATOM     24  C   UNL     1       7.086   4.602  16.896  0.00  0.00    +0.000 C 
ATOM     25  C   UNL     1       6.536   5.431  19.200  0.00  0.00    +0.000 C 
BRANCH  23  27
ATOM     26  C   UNL     1       7.743   7.649  17.660  0.00  0.00    +0.000 C 
ATOM     27  C   UNL     1       6.429   7.002  17.221  0.00  0.00    +0.000 C 
ENDBRANCH  23  27
ENDBRANCH  22  23
ENDBRANCH   1  22
TORSDOF 7
ENDMDL
MODEL 4
REMARK VINA RESULT:      -6.6      3.238      4.278
REMARK  Name = 
REMARK  10 active torsions:
REMARK  status: ('A' for Active; 'I' for Inactive)
REMARK    1  A    between atoms: C_1  and  C_2
REMARK    2  A    between atoms: C_2  and  C_3
REMARK    3  A    between atoms: C_3  and  C_4
REMARK    4  A    between atoms: C_3  and  C_5
REMARK    5  A    between atoms: C_3  and  S_6
REMARK    6  A    between atoms: S_6  and  C_7
REMARK    7  A    between atoms: C_13  and  N_14
REMARK    8  A    between atoms: N_17  and  C_18
REMARK    9  A    between atoms: C_18  and  C_19
REMARK   10  A    between atoms: C_19  and  O_20
REMARK                            x       y       z     vdW  Elec       q    Type
REMARK                         _______ _______ _______ _____ _____    ______ ____
ROOT
ATOM      1  C   UNL     1       3.374   6.178  18.324  0.00  0.00    +0.000 A 
ATOM      2  N   UNL     1       2.930   6.061  19.555  0.00  0.00    +0.000 NA
ATOM      3  C   UNL     1       2.202   7.208  19.774  0.00  0.00    +0.000 A 
ATOM      4  C   UNL     1       1.463   7.584  20.896  0.00  0.00    +0.000 A 
ATOM      5  C   UNL     1       0.801   8.822  20.866  0.00  0.00    +0.000 A 
ATOM      6 CL   UNL     1      -0.243   9.145  22.222  0.00  0.00    +0.000 Cl
ATOM      7  C   UNL     1       0.899   9.721  19.769  0.00  0.00    +0.000 A 
ATOM      8  C   UNL     1       1.610   9.296  18.629  0.00  0.00    +0.000 A 
ATOM      9  C   UNL     1       2.233   8.041  18.667  0.00  0.00    +0.000 A 
ATOM     10  N   UNL     1       2.940   7.329  17.735  0.00  0.00    +0.000 N 
ATOM     11  H   UNL     1       3.090   7.585  16.772  0.00  0.00    +0.000 HD
ENDROOT
BRANCH   7  12
ATOM     12  N   UNL     1       0.281  10.977  19.798  0.00  0.00    +0.000 N 
ATOM     13  C   UNL     1      -0.517  11.460  18.662  0.00  0.00    +0.000 C 
ATOM     14  C   UNL     1      -1.462  12.595  19.142  0.00  0.00    +0.000 C 
ATOM     15  N   UNL     1      -0.809  13.724  19.856  0.00  0.00    +0.000 NA
ATOM     16  C   UNL     1       0.036  13.146  20.941  0.00  0.00    +0.000 C 
ATOM     17  C   UNL     1       1.034  12.055  20.472  0.00  0.00    +0.000 C 
BRANCH  15  18
ATOM     18  C   UNL     1       0.014  14.583  18.976  0.00  0.00    +0.000 C 
BRANCH  18  19
ATOM     19  C   UNL     1      -0.483  16.032  18.870  0.00  0.00    +0.000 C 
BRANCH  19  20
ATOM     20  O   UNL     1      -1.725  16.197  19.543  0.00  0.00    +0.000 OA
ATOM     21  H   UNL     1      -2.093  17.040  19.213  0.00  0.00    +0.000 HD
ENDBRANCH  19  20
ENDBRANCH  18  19
ENDBRANCH  15  18
ENDBRANCH   7  12
BRANCH   1  22
ATOM     22  S   UNL     1       4.200   4.963  17.432  0.00  0.00    +0.000 S 
BRANCH  22  23
ATOM     23  C   UNL     1       5.989   5.408  17.517  0.00  0.00    +0.000 C 
ATOM     24  C   UNL     1       6.195   6.862  17.056  0.00  0.00    +0.000 C 
ATOM     25  C   UNL     1       6.846   4.472  16.650  0.00  0.00    +0.000 C 
BRANCH  23  27
ATOM     26  C   UNL     1       7.840   5.790  19.330  0.00  0.00    +0.000 C 
ATOM     27  C   UNL     1       6.429   5.298  19.005  0.00  0.00    +0.000 C 
ENDBRANCH  23  27
ENDBRANCH  22  23
ENDBRANCH   1  22
TORSDOF 7
ENDMDL
MODEL 5
REMARK VINA RESULT:      -6.6      0.960      1.034
REMARK  Name = 
REMARK  10 active torsions:
REMARK  status: ('A' for Active; 'I' for Inactive)
REMARK    1  A    between atoms: C_1  and  C_2
REMARK    2  A    between atoms: C_2  and  C_3
REMARK    3  A    between atoms: C_3  and  C_4
REMARK    4  A    between atoms: C_3  and  C_5
REMARK    5  A    between atoms: C_3  and  S_6
REMARK    6  A    between atoms: S_6  and  C_7
REMARK    7  A    between atoms: C_13  and  N_14
REMARK    8  A    between atoms: N_17  and  C_18
REMARK    9  A    between atoms: C_18  and  C_19
REMARK   10  A    between atoms: C_19  and  O_20
REMARK                            x       y       z     vdW  Elec       q    Type
REMARK                         _______ _______ _______ _____ _____    ______ ____
ROOT
ATOM      1  C   UNL     1       2.550   6.271  19.629  0.00  0.00    +0.000 A 
ATOM      2  N   UNL     1       2.684   7.145  18.659  0.00  0.00    +0.000 NA
ATOM      3  C   UNL     1       2.003   8.258  19.094  0.00  0.00    +0.000 A 
ATOM      4  C   UNL     1       1.864   9.505  18.485  0.00  0.00    +0.000 A 
ATOM      5  C   UNL     1       1.108  10.485  19.148  0.00  0.00    +0.000 A 
ATOM      6 CL   UNL     1       1.126  12.066  18.418  0.00  0.00    +0.000 Cl
ATOM      7  C   UNL     1       0.441  10.239  20.379  0.00  0.00    +0.000 A 
ATOM      8  C   UNL     1       0.638   8.990  20.999  0.00  0.00    +0.000 A 
ATOM      9  C   UNL     1       1.426   8.038  20.336  0.00  0.00    +0.000 A 
ATOM     10  N   UNL     1       1.843   6.780  20.678  0.00  0.00    +0.000 N 
ATOM     11  H   UNL     1       1.690   6.316  21.559  0.00  0.00    +0.000 HD
ENDROOT
BRANCH   7  12
ATOM     12  N   UNL     1      -0.360  11.218  20.981  0.00  0.00    +0.000 N 
ATOM     13  C   UNL     1      -0.537  11.264  22.440  0.00  0.00    +0.000 C 
ATOM     14  C   UNL     1      -1.025  12.680  22.853  0.00  0.00    +0.000 C 
ATOM     15  N   UNL     1      -2.237  13.178  22.151  0.00  0.00    +0.000 NA
ATOM     16  C   UNL     1      -2.005  13.027  20.685  0.00  0.00    +0.000 C 
ATOM     17  C   UNL     1      -1.580  11.603  20.241  0.00  0.00    +0.000 C 
BRANCH  15  18
ATOM     18  C   UNL     1      -3.479  12.476  22.543  0.00  0.00    +0.000 C 
BRANCH  18  19
ATOM     19  C   UNL     1      -4.737  12.970  21.813  0.00  0.00    +0.000 C 
BRANCH  19  20
ATOM     20  O   UNL     1      -5.468  13.888  22.618  0.00  0.00    +0.000 OA
ATOM     21  H   UNL     1      -6.407  13.750  22.386  0.00  0.00    +0.000 HD
ENDBRANCH  19  20
ENDBRANCH  18  19
ENDBRANCH  15  18
ENDBRANCH   7  12
BRANCH   1  22
ATOM     22  S   UNL     1       3.343   4.748  19.728  0.00  0.00    +0.000 S 
BRANCH  22  23
ATOM     23  C   UNL     1       2.173   3.526  18.991  0.00  0.00    +0.000 C 
ATOM     24  C   UNL     1       2.931   2.254  18.571  0.00  0.00    +0.000 C 
ATOM     25  C   UNL     1       1.441   4.109  17.773  0.00  0.00    +0.000 C 
BRANCH  23  27
ATOM     26  C   UNL     1       1.655   3.153  21.531  0.00  0.00    +0.000 C 
ATOM     27  C   UNL     1       1.142   3.142  20.091  0.00  0.00    +0.000 C 
ENDBRANCH  23  27
ENDBRANCH  22  23
ENDBRANCH   1  22
TORSDOF 7
ENDMDL
MODEL 6
REMARK VINA RESULT:      -6.6      3.343      4.529
REMARK  Name = 
REMARK  10 active torsions:
REMARK  status: ('A' for Active; 'I' for Inactive)
REMARK    1  A    between atoms: C_1  and  C_2
REMARK    2  A    between atoms: C_2  and  C_3
REMARK    3  A    between atoms: C_3  and  C_4
REMARK    4  A    between atoms: C_3  and  C_5
REMARK    5  A    between atoms: C_3  and  S_6
REMARK    6  A    between atoms: S_6  and  C_7
REMARK    7  A    between atoms: C_13  and  N_14
REMARK    8  A    between atoms: N_17  and  C_18
REMARK    9  A    between atoms: C_18  and  C_19
REMARK   10  A    between atoms: C_19  and  O_20
REMARK                            x       y       z     vdW  Elec       q    Type
REMARK                         _______ _______ _______ _____ _____    ______ ____
ROOT
ATOM      1  C   UNL     1       3.603   5.837  18.392  0.00  0.00    +0.000 A 
ATOM      2  N   UNL     1       3.195   5.799  19.640  0.00  0.00    +0.000 NA
ATOM      3  C   UNL     1       2.412   6.920  19.785  0.00  0.00    +0.000 A 
ATOM      4  C   UNL     1       1.678   7.350  20.892  0.00  0.00    +0.000 A 
ATOM      5  C   UNL     1       0.950   8.545  20.779  0.00  0.00    +0.000 A 
ATOM      6 CL   UNL     1      -0.078   8.925  22.132  0.00  0.00    +0.000 Cl
ATOM      7  C   UNL     1       0.974   9.353  19.610  0.00  0.00    +0.000 A 
ATOM      8  C   UNL     1       1.680   8.873  18.489  0.00  0.00    +0.000 A 
ATOM      9  C   UNL     1       2.372   7.659  18.612  0.00  0.00    +0.000 A 
ATOM     10  N   UNL     1       3.095   6.910  17.723  0.00  0.00    +0.000 N 
ATOM     11  H   UNL     1       3.209   7.093  16.739  0.00  0.00    +0.000 HD
ENDROOT
BRANCH   7  12
ATOM     12  N   UNL     1       0.289  10.573  19.554  0.00  0.00    +0.000 N 
ATOM     13  C   UNL     1      -0.579  10.908  18.415  0.00  0.00    +0.000 C 
ATOM     14  C   UNL     1      -1.564  12.033  18.834  0.00  0.00    +0.000 C 
ATOM     15  N   UNL     1      -0.946  13.255  19.411  0.00  0.00    +0.000 NA
ATOM     16  C   UNL     1      -0.027  12.824  20.505  0.00  0.00    +0.000 C 
ATOM     17  C   UNL     1       1.010  11.747  20.091  0.00  0.00    +0.000 C 
BRANCH  15  18
ATOM     18  C   UNL     1      -0.208  14.069  18.421  0.00  0.00    +0.000 C 
BRANCH  18  19
ATOM     19  C   UNL     1      -0.054  15.547  18.811  0.00  0.00    +0.000 C 
BRANCH  19  20
ATOM     20  O   UNL     1      -1.312  16.118  19.153  0.00  0.00    +0.000 OA
ATOM     21  H   UNL     1      -1.432  15.939  20.105  0.00  0.00    +0.000 HD
ENDBRANCH  19  20
ENDBRANCH  18  19
ENDBRANCH  15  18
ENDBRANCH   7  12
BRANCH   1  22
ATOM     22  S   UNL     1       4.474   4.596  17.580  0.00  0.00    +0.000 S 
BRANCH  22  23
ATOM     23  C   UNL     1       5.907   5.434  16.776  0.00  0.00    +0.000 C 
ATOM     24  C   UNL     1       7.170   4.563  16.903  0.00  0.00    +0.000 C 
ATOM     25  C   UNL     1       6.175   6.815  17.394  0.00  0.00    +0.000 C 
BRANCH  23  27
ATOM     26  C   UNL     1       5.931   4.407  14.366  0.00  0.00    +0.000 C 
ATOM     27  C   UNL     1       5.571   5.590  15.265  0.00  0.00    +0.000 C 
ENDBRANCH  23  27
ENDBRANCH  22  23
ENDBRANCH   1  22
TORSDOF 7
ENDMDL
MODEL 7
REMARK VINA RESULT:      -6.6      0.980      1.707
REMARK  Name = 
REMARK  10 active torsions:
REMARK  status: ('A' for Active; 'I' for Inactive)
REMARK    1  A    between atoms: C_1  and  C_2
REMARK    2  A    between atoms: C_2  and  C_3
REMARK    3  A    between atoms: C_3  and  C_4
REMARK    4  A    between atoms: C_3  and  C_5
REMARK    5  A    between atoms: C_3  and  S_6
REMARK    6  A    between atoms: S_6  and  C_7
REMARK    7  A    between atoms: C_13  and  N_14
REMARK    8  A    between atoms: N_17  and  C_18
REMARK    9  A    between atoms: C_18  and  C_19
REMARK   10  A    between atoms: C_19  and  O_20
REMARK                            x       y       z     vdW  Elec       q    Type
REMARK                         _______ _______ _______ _____ _____    ______ ____
ROOT
ATOM      1  C   UNL     1       2.504   6.633  19.705  0.00  0.00    +0.000 A 
ATOM      2  N   UNL     1       2.546   7.503  18.722  0.00  0.00    +0.000 NA
ATOM      3  C   UNL     1       1.829   8.583  19.181  0.00  0.00    +0.000 A 
ATOM      4  C   UNL     1       1.597   9.815  18.569  0.00  0.00    +0.000 A 
ATOM      5  C   UNL     1       0.823  10.761  19.260  0.00  0.00    +0.000 A 
ATOM      6 CL   UNL     1       0.725  12.333  18.517  0.00  0.00    +0.000 Cl
ATOM      7  C   UNL     1       0.229  10.494  20.523  0.00  0.00    +0.000 A 
ATOM      8  C   UNL     1       0.519   9.263  21.143  0.00  0.00    +0.000 A 
ATOM      9  C   UNL     1       1.324   8.346  20.450  0.00  0.00    +0.000 A 
ATOM     10  N   UNL     1       1.822   7.115  20.782  0.00  0.00    +0.000 N 
ATOM     11  H   UNL     1       1.734   6.653  21.673  0.00  0.00    +0.000 HD
ENDROOT
BRANCH   7  12
ATOM     12  N   UNL     1      -0.593  11.436  21.155  0.00  0.00    +0.000 N 
ATOM     13  C   UNL     1      -0.764  11.439  22.615  0.00  0.00    +0.000 C 
ATOM     14  C   UNL     1      -1.284  12.831  23.068  0.00  0.00    +0.000 C 
ATOM     15  N   UNL     1      -2.512  13.318  22.386  0.00  0.00    +0.000 NA
ATOM     16  C   UNL     1      -2.284  13.211  20.915  0.00  0.00    +0.000 C 
ATOM     17  C   UNL     1      -1.826  11.810  20.431  0.00  0.00    +0.000 C 
BRANCH  15  18
ATOM     18  C   UNL     1      -3.734  12.574  22.765  0.00  0.00    +0.000 C 
BRANCH  18  19
ATOM     19  C   UNL     1      -4.273  12.923  24.160  0.00  0.00    +0.000 C 
BRANCH  19  20
ATOM     20  O   UNL     1      -4.923  11.804  24.751  0.00  0.00    +0.000 OA
ATOM     21  H   UNL     1      -4.617  11.025  24.246  0.00  0.00    +0.000 HD
ENDBRANCH  19  20
ENDBRANCH  18  19
ENDBRANCH  15  18
ENDBRANCH   7  12
BRANCH   1  22
ATOM     22  S   UNL     1       3.379   5.154  19.778  0.00  0.00    +0.000 S 
BRANCH  22  23
ATOM     23  C   UNL     1       3.072   4.310  18.166  0.00  0.00    +0.000 C 
ATOM     24  C   UNL     1       1.608   4.507  17.736  0.00  0.00    +0.000 C 
ATOM     25  C   UNL     1       3.382   2.807  18.247  0.00  0.00    +0.000 C 
BRANCH  23  27
ATOM     26  C   UNL     1       4.914   4.046  16.323  0.00  0.00    +0.000 C 
ATOM     27  C   UNL     1       3.990   4.981  17.104  0.00  0.00    +0.000 C 
ENDBRANCH  23  27
ENDBRANCH  22  23
ENDBRANCH   1  22
TORSDOF 7
ENDMDL
MODEL 8
REMARK VINA RESULT:      -6.5      2.944      3.738
REMARK  Name = 
REMARK  10 active torsions:
REMARK  status: ('A' for Active; 'I' for Inactive)
REMARK    1  A    between atoms: C_1  and  C_2
REMARK    2  A    between atoms: C_2  and  C_3
REMARK    3  A    between atoms: C_3  and  C_4
REMARK    4  A    between atoms: C_3  and  C_5
REMARK    5  A    between atoms: C_3  and  S_6
REMARK    6  A    between atoms: S_6  and  C_7
REMARK    7  A    between atoms: C_13  and  N_14
REMARK    8  A    between atoms: N_17  and  C_18
REMARK    9  A    between atoms: C_18  and  C_19
REMARK   10  A    between atoms: C_19  and  O_20
REMARK                            x       y       z     vdW  Elec       q    Type
REMARK                         _______ _______ _______ _____ _____    ______ ____
ROOT
ATOM      1  C   UNL     1       3.532   6.241  18.222  0.00  0.00    +0.000 A 
ATOM      2  N   UNL     1       3.105   6.109  19.457  0.00  0.00    +0.000 NA
ATOM      3  C   UNL     1       2.316   7.215  19.674  0.00  0.00    +0.000 A 
ATOM      4  C   UNL     1       1.565   7.560  20.798  0.00  0.00    +0.000 A 
ATOM      5  C   UNL     1       0.836   8.759  20.765  0.00  0.00    +0.000 A 
ATOM      6 CL   UNL     1      -0.214   9.035  22.126  0.00  0.00    +0.000 Cl
ATOM      7  C   UNL     1       0.876   9.653  19.660  0.00  0.00    +0.000 A 
ATOM      8  C   UNL     1       1.601   9.259  18.517  0.00  0.00    +0.000 A 
ATOM      9  C   UNL     1       2.293   8.040  18.560  0.00  0.00    +0.000 A 
ATOM     10  N   UNL     1       3.031   7.361  17.628  0.00  0.00    +0.000 N 
ATOM     11  H   UNL     1       3.160   7.617  16.662  0.00  0.00    +0.000 HD
ENDROOT
BRANCH   7  12
ATOM     12  N   UNL     1       0.190  10.873  19.685  0.00  0.00    +0.000 N 
ATOM     13  C   UNL     1       0.507  11.904  20.684  0.00  0.00    +0.000 C 
ATOM     14  C   UNL     1      -0.015  13.280  20.186  0.00  0.00    +0.000 C 
ATOM     15  N   UNL     1      -1.452  13.328  19.806  0.00  0.00    +0.000 NA
ATOM     16  C   UNL     1      -1.706  12.208  18.853  0.00  0.00    +0.000 C 
ATOM     17  C   UNL     1      -1.250  10.815  19.358  0.00  0.00    +0.000 C 
BRANCH  15  18
ATOM     18  C   UNL     1      -2.373  13.231  20.960  0.00  0.00    +0.000 C 
BRANCH  18  19
ATOM     19  C   UNL     1      -3.860  13.204  20.576  0.00  0.00    +0.000 C 
BRANCH  19  20
ATOM     20  O   UNL     1      -4.293  14.481  20.119  0.00  0.00    +0.000 OA
ATOM     21  H   UNL     1      -4.234  15.071  20.895  0.00  0.00    +0.000 HD
ENDBRANCH  19  20
ENDBRANCH  18  19
ENDBRANCH  15  18
ENDBRANCH   7  12
BRANCH   1  22
ATOM     22  S   UNL     1       4.417   5.066  17.332  0.00  0.00    +0.000 S 
BRANCH  22  23
ATOM     23  C   UNL     1       6.195   5.511  17.544  0.00  0.00    +0.000 C 
ATOM     24  C   UNL     1       6.423   6.981  17.150  0.00  0.00    +0.000 C 
ATOM     25  C   UNL     1       7.108   4.609  16.701  0.00  0.00    +0.000 C 
BRANCH  23  27
ATOM     26  C   UNL     1       7.951   5.771  19.470  0.00  0.00    +0.000 C 
ATOM     27  C   UNL     1       6.542   5.349  19.052  0.00  0.00    +0.000 C 
ENDBRANCH  23  27
ENDBRANCH  22  23
ENDBRANCH   1  22
TORSDOF 7
ENDMDL
MODEL 9
REMARK VINA RESULT:      -6.5      1.063      1.182
REMARK  Name = 
REMARK  10 active torsions:
REMARK  status: ('A' for Active; 'I' for Inactive)
REMARK    1  A    between atoms: C_1  and  C_2
REMARK    2  A    between atoms: C_2  and  C_3
REMARK    3  A    between atoms: C_3  and  C_4
REMARK    4  A    between atoms: C_3  and  C_5
REMARK    5  A    between atoms: C_3  and  S_6
REMARK    6  A    between atoms: S_6  and  C_7
REMARK    7  A    between atoms: C_13  and  N_14
REMARK    8  A    between atoms: N_17  and  C_18
REMARK    9  A    between atoms: C_18  and  C_19
REMARK   10  A    between atoms: C_19  and  O_20
REMARK                            x       y       z     vdW  Elec       q    Type
REMARK                         _______ _______ _______ _____ _____    ______ ____
ROOT
ATOM      1  C   UNL     1       2.649   6.283  19.480  0.00  0.00    +0.000 A 
ATOM      2  N   UNL     1       2.826   7.076  18.449  0.00  0.00    +0.000 NA
ATOM      3  C   UNL     1       2.218   8.257  18.808  0.00  0.00    +0.000 A 
ATOM      4  C   UNL     1       2.150   9.464  18.111  0.00  0.00    +0.000 A 
ATOM      5  C   UNL     1       1.462  10.533  18.707  0.00  0.00    +0.000 A 
ATOM      6 CL   UNL     1       1.570  12.054  17.865  0.00  0.00    +0.000 Cl
ATOM      7  C   UNL     1       0.793  10.417  19.956  0.00  0.00    +0.000 A 
ATOM      8  C   UNL     1       0.920   9.204  20.662  0.00  0.00    +0.000 A 
ATOM      9  C   UNL     1       1.641   8.161  20.065  0.00  0.00    +0.000 A 
ATOM     10  N   UNL     1       1.985   6.907  20.494  0.00  0.00    +0.000 N 
ATOM     11  H   UNL     1       1.812   6.517  21.407  0.00  0.00    +0.000 HD
ENDROOT
BRANCH   7  12
ATOM     12  N   UNL     1       0.060  11.483  20.491  0.00  0.00    +0.000 N 
ATOM     13  C   UNL     1       0.702  12.502  21.334  0.00  0.00    +0.000 C 
ATOM     14  C   UNL     1      -0.183  13.778  21.361  0.00  0.00    +0.000 C 
ATOM     15  N   UNL     1      -1.601  13.575  21.756  0.00  0.00    +0.000 NA
ATOM     16  C   UNL     1      -2.155  12.478  20.908  0.00  0.00    +0.000 C 
ATOM     17  C   UNL     1      -1.321  11.171  20.918  0.00  0.00    +0.000 C 
BRANCH  15  18
ATOM     18  C   UNL     1      -1.776  13.246  23.188  0.00  0.00    +0.000 C 
BRANCH  18  19
ATOM     19  C   UNL     1      -3.238  13.239  23.657  0.00  0.00    +0.000 C 
BRANCH  19  20
ATOM     20  O   UNL     1      -3.668  11.920  23.971  0.00  0.00    +0.000 OA
ATOM     21  H   UNL     1      -2.851  11.392  24.063  0.00  0.00    +0.000 HD
ENDBRANCH  19  20
ENDBRANCH  18  19
ENDBRANCH  15  18
ENDBRANCH   7  12
BRANCH   1  22
ATOM     22  S   UNL     1       3.348   4.725  19.683  0.00  0.00    +0.000 S 
BRANCH  22  23
ATOM     23  C   UNL     1       2.058   3.523  19.140  0.00  0.00    +0.000 C 
ATOM     24  C   UNL     1       2.679   2.127  18.952  0.00  0.00    +0.000 C 
ATOM     25  C   UNL     1       1.390   3.964  17.829  0.00  0.00    +0.000 C 
BRANCH  23  27
ATOM     26  C   UNL     1       1.432   2.747  21.562  0.00  0.00    +0.000 C 
ATOM     27  C   UNL     1       0.992   3.436  20.271  0.00  0.00    +0.000 C 
ENDBRANCH  23  27
ENDBRANCH  22  23
ENDBRANCH   1  22
TORSDOF 7
ENDMDL
