MODEL 1
REMARK VINA RESULT:      -7.5      0.000      0.000
REMARK  Name = 
REMARK  4 active torsions:
REMARK  status: ('A' for Active; 'I' for Inactive)
REMARK    1  A    between atoms: N_1  and  C_2
REMARK    2  A    between atoms: C_5  and  O_6
REMARK    3  A    between atoms: O_6  and  C_7
REMARK    4  A    between atoms: C_7  and  C_8
REMARK                            x       y       z     vdW  Elec       q    Type
REMARK                         _______ _______ _______ _____ _____    ______ ____
ROOT
ATOM      1  C   UNL     1       2.155   3.074  19.943  0.00  0.00    +0.000 A 
ATOM      2  C   UNL     1       2.740   2.133  19.091  0.00  0.00    +0.000 A 
ATOM      3  C   UNL     1       3.386   2.523  17.914  0.00  0.00    +0.000 A 
ATOM      4  C   UNL     1       3.491   3.876  17.593  0.00  0.00    +0.000 A 
ATOM      5  C   UNL     1       2.955   4.857  18.459  0.00  0.00    +0.000 A 
ATOM      6  C   UNL     1       3.060   6.234  18.167  0.00  0.00    +0.000 A 
ATOM      7  C   UNL     1       2.532   7.211  19.005  0.00  0.00    +0.000 A 
ATOM      8  C   UNL     1       1.890   6.833  20.174  0.00  0.00    +0.000 A 
ATOM      9  C   UNL     1       1.777   5.479  20.492  0.00  0.00    +0.000 A 
ATOM     10  C   UNL     1       2.289   4.460  19.657  0.00  0.00    +0.000 A 
ENDROOT
BRANCH   1  11
ATOM     11  N   UNL     1       1.651   2.606  21.176  0.00  0.00    +0.000 N 
ATOM     12  H   UNL     1       1.778   3.259  21.942  0.00  0.00    +0.000 HD
ATOM     13  H   UNL     1       1.955   1.673  21.425  0.00  0.00    +0.000 HD
ENDBRANCH   1  11
BRANCH   4  14
ATOM     14  O   UNL     1       4.158   4.344  16.484  0.00  0.00    +0.000 OA
BRANCH  14  15
ATOM     15  C   UNL     1       5.539   4.007  16.350  0.00  0.00    +0.000 C 
BRANCH  15  16
ATOM     16  C   UNL     1       6.394   5.018  17.090  0.00  0.00    +0.000 A 
ATOM     17  C   UNL     1       7.154   4.667  18.218  0.00  0.00    +0.000 A 
ATOM     18  C   UNL     1       7.902   5.629  18.901  0.00  0.00    +0.000 A 
ATOM     19  C   UNL     1       7.918   6.948  18.452  0.00  0.00    +0.000 A 
ATOM     20  C   UNL     1       7.198   7.305  17.315  0.00  0.00    +0.000 A 
ATOM     21  C   UNL     1       6.448   6.344  16.633  0.00  0.00    +0.000 A 
ENDBRANCH  15  16
ENDBRANCH  14  15
ENDBRANCH   4  14
TORSDOF 4
ENDMDL
MODEL 2
REMARK VINA RESULT:      -7.5      0.324      1.153
REMARK  Name = 
REMARK  4 active torsions:
REMARK  status: ('A' for Active; 'I' for Inactive)
REMARK    1  A    between atoms: N_1  and  C_2
REMARK    2  A    between atoms: C_5  and  O_6
REMARK    3  A    between atoms: O_6  and  C_7
REMARK    4  A    between atoms: C_7  and  C_8
REMARK                            x       y       z     vdW  Elec       q    Type
REMARK                         _______ _______ _______ _____ _____    ______ ____
ROOT
ATOM      1  C   UNL     1       2.499   3.309  20.345  0.00  0.00    +0.000 A 
ATOM      2  C   UNL     1       3.093   2.314  19.563  0.00  0.00    +0.000 A 
ATOM      3  C   UNL     1       3.603   2.598  18.293  0.00  0.00    +0.000 A 
ATOM      4  C   UNL     1       3.559   3.902  17.801  0.00  0.00    +0.000 A 
ATOM      5  C   UNL     1       3.011   4.942  18.586  0.00  0.00    +0.000 A 
ATOM      6  C   UNL     1       2.967   6.273  18.119  0.00  0.00    +0.000 A 
ATOM      7  C   UNL     1       2.425   7.307  18.877  0.00  0.00    +0.000 A 
ATOM      8  C   UNL     1       1.917   7.034  20.138  0.00  0.00    +0.000 A 
ATOM      9  C   UNL     1       1.953   5.728  20.628  0.00  0.00    +0.000 A 
ATOM     10  C   UNL     1       2.483   4.652  19.880  0.00  0.00    +0.000 A 
ENDROOT
BRANCH   1  11
ATOM     11  N   UNL     1       2.141   2.967  21.668  0.00  0.00    +0.000 N 
ATOM     12  H   UNL     1       2.820   3.260  22.361  0.00  0.00    +0.000 HD
ATOM     13  H   UNL     1       1.874   1.998  21.790  0.00  0.00    +0.000 HD
ENDBRANCH   1  11
BRANCH   4  14
ATOM     14  O   UNL     1       4.089   4.274  16.586  0.00  0.00    +0.000 OA
BRANCH  14  15
ATOM     15  C   UNL     1       5.477   4.025  16.364  0.00  0.00    +0.000 C 
BRANCH  15  16
ATOM     16  C   UNL     1       6.312   5.066  17.087  0.00  0.00    +0.000 A 
ATOM     17  C   UNL     1       6.325   6.415  16.694  0.00  0.00    +0.000 A 
ATOM     18  C   UNL     1       7.134   7.341  17.356  0.00  0.00    +0.000 A 
ATOM     19  C   UNL     1       7.921   6.938  18.432  0.00  0.00    +0.000 A 
ATOM     20  C   UNL     1       7.893   5.612  18.856  0.00  0.00    +0.000 A 
ATOM     21  C   UNL     1       7.086   4.684  18.193  0.00  0.00    +0.000 A 
ENDBRANCH  15  16
ENDBRANCH  14  15
ENDBRANCH   4  14
TORSDOF 4
ENDMDL
MODEL 3
REMARK VINA RESULT:      -7.3      2.595      5.187
REMARK  Name = 
REMARK  4 active torsions:
REMARK  status: ('A' for Active; 'I' for Inactive)
REMARK    1  A    between atoms: N_1  and  C_2
REMARK    2  A    between atoms: C_5  and  O_6
REMARK    3  A    between atoms: O_6  and  C_7
REMARK    4  A    between atoms: C_7  and  C_8
REMARK                            x       y       z     vdW  Elec       q    Type
REMARK                         _______ _______ _______ _____ _____    ______ ____
ROOT
ATOM      1  C   UNL     1       5.295   6.216  16.356  0.00  0.00    +0.000 A 
ATOM      2  C   UNL     1       6.189   5.145  16.434  0.00  0.00    +0.000 A 
ATOM      3  C   UNL     1       6.234   4.318  17.561  0.00  0.00    +0.000 A 
ATOM      4  C   UNL     1       5.349   4.531  18.616  0.00  0.00    +0.000 A 
ATOM      5  C   UNL     1       4.397   5.574  18.549  0.00  0.00    +0.000 A 
ATOM      6  C   UNL     1       3.479   5.804  19.596  0.00  0.00    +0.000 A 
ATOM      7  C   UNL     1       2.541   6.831  19.547  0.00  0.00    +0.000 A 
ATOM      8  C   UNL     1       2.489   7.655  18.434  0.00  0.00    +0.000 A 
ATOM      9  C   UNL     1       3.380   7.448  17.380  0.00  0.00    +0.000 A 
ATOM     10  C   UNL     1       4.355   6.424  17.402  0.00  0.00    +0.000 A 
ENDROOT
BRANCH   1  11
ATOM     11  N   UNL     1       5.219   6.909  15.128  0.00  0.00    +0.000 N 
ATOM     12  H   UNL     1       4.941   6.323  14.348  0.00  0.00    +0.000 HD
ATOM     13  H   UNL     1       6.038   7.462  14.910  0.00  0.00    +0.000 HD
ENDBRANCH   1  11
BRANCH   4  14
ATOM     14  O   UNL     1       5.291   3.730  19.734  0.00  0.00    +0.000 OA
BRANCH  14  15
ATOM     15  C   UNL     1       4.688   2.443  19.596  0.00  0.00    +0.000 C 
BRANCH  15  16
ATOM     16  C   UNL     1       3.181   2.559  19.736  0.00  0.00    +0.000 A 
ATOM     17  C   UNL     1       2.319   2.436  18.634  0.00  0.00    +0.000 A 
ATOM     18  C   UNL     1       0.939   2.586  18.790  0.00  0.00    +0.000 A 
ATOM     19  C   UNL     1       0.401   2.837  20.050  0.00  0.00    +0.000 A 
ATOM     20  C   UNL     1       1.240   2.927  21.158  0.00  0.00    +0.000 A 
ATOM     21  C   UNL     1       2.620   2.780  21.004  0.00  0.00    +0.000 A 
ENDBRANCH  15  16
ENDBRANCH  14  15
ENDBRANCH   4  14
TORSDOF 4
ENDMDL
MODEL 4
REMARK VINA RESULT:      -7.1      2.600      5.129
REMARK  Name = 
REMARK  4 active torsions:
REMARK  status: ('A' for Active; 'I' for Inactive)
REMARK    1  A    between atoms: N_1  and  C_2
REMARK    2  A    between atoms: C_5  and  O_6
REMARK    3  A    between atoms: O_6  and  C_7
REMARK    4  A    between atoms: C_7  and  C_8
REMARK                            x       y       z     vdW  Elec       q    Type
REMARK                         _______ _______ _______ _____ _____    ______ ____
ROOT
ATOM      1  C   UNL     1       5.287   6.242  16.339  0.00  0.00    +0.000 A 
ATOM      2  C   UNL     1       6.177   5.167  16.405  0.00  0.00    +0.000 A 
ATOM      3  C   UNL     1       6.226   4.334  17.527  0.00  0.00    +0.000 A 
ATOM      4  C   UNL     1       5.349   4.544  18.589  0.00  0.00    +0.000 A 
ATOM      5  C   UNL     1       4.401   5.592  18.533  0.00  0.00    +0.000 A 
ATOM      6  C   UNL     1       3.490   5.819  19.588  0.00  0.00    +0.000 A 
ATOM      7  C   UNL     1       2.556   6.850  19.550  0.00  0.00    +0.000 A 
ATOM      8  C   UNL     1       2.500   7.680  18.442  0.00  0.00    +0.000 A 
ATOM      9  C   UNL     1       3.383   7.475  17.381  0.00  0.00    +0.000 A 
ATOM     10  C   UNL     1       4.354   6.448  17.392  0.00  0.00    +0.000 A 
ENDROOT
BRANCH   1  11
ATOM     11  N   UNL     1       5.205   6.941  15.115  0.00  0.00    +0.000 N 
ATOM     12  H   UNL     1       5.460   7.920  15.188  0.00  0.00    +0.000 HD
ATOM     13  H   UNL     1       4.330   6.818  14.621  0.00  0.00    +0.000 HD
ENDBRANCH   1  11
BRANCH   4  14
ATOM     14  O   UNL     1       5.296   3.737  19.703  0.00  0.00    +0.000 OA
BRANCH  14  15
ATOM     15  C   UNL     1       4.684   2.455  19.563  0.00  0.00    +0.000 C 
BRANCH  15  16
ATOM     16  C   UNL     1       3.182   2.574  19.749  0.00  0.00    +0.000 A 
ATOM     17  C   UNL     1       2.603   2.802  21.008  0.00  0.00    +0.000 A 
ATOM     18  C   UNL     1       1.216   2.868  21.152  0.00  0.00    +0.000 A 
ATOM     19  C   UNL     1       0.390   2.731  20.039  0.00  0.00    +0.000 A 
ATOM     20  C   UNL     1       0.950   2.539  18.778  0.00  0.00    +0.000 A 
ATOM     21  C   UNL     1       2.337   2.470  18.633  0.00  0.00    +0.000 A 
ENDBRANCH  15  16
ENDBRANCH  14  15
ENDBRANCH   4  14
TORSDOF 4
ENDMDL
MODEL 5
REMARK VINA RESULT:      -7.1      0.816      1.004
REMARK  Name = 
REMARK  4 active torsions:
REMARK  status: ('A' for Active; 'I' for Inactive)
REMARK    1  A    between atoms: N_1  and  C_2
REMARK    2  A    between atoms: C_5  and  O_6
REMARK    3  A    between atoms: O_6  and  C_7
REMARK    4  A    between atoms: C_7  and  C_8
REMARK                            x       y       z     vdW  Elec       q    Type
REMARK                         _______ _______ _______ _____ _____    ______ ____
ROOT
ATOM      1  C   UNL     1       2.469   4.346  19.929  0.00  0.00    +0.000 A 
ATOM      2  C   UNL     1       3.085   3.220  19.376  0.00  0.00    +0.000 A 
ATOM      3  C   UNL     1       3.751   3.288  18.149  0.00  0.00    +0.000 A 
ATOM      4  C   UNL     1       3.845   4.503  17.473  0.00  0.00    +0.000 A 
ATOM      5  C   UNL     1       3.276   5.673  18.028  0.00  0.00    +0.000 A 
ATOM      6  C   UNL     1       3.368   6.920  17.374  0.00  0.00    +0.000 A 
ATOM      7  C   UNL     1       2.808   8.078  17.904  0.00  0.00    +0.000 A 
ATOM      8  C   UNL     1       2.146   8.020  19.121  0.00  0.00    +0.000 A 
ATOM      9  C   UNL     1       2.045   6.802  19.794  0.00  0.00    +0.000 A 
ATOM     10  C   UNL     1       2.589   5.604  19.278  0.00  0.00    +0.000 A 
ENDROOT
BRANCH   1  11
ATOM     11  N   UNL     1       1.944   4.222  21.234  0.00  0.00    +0.000 N 
ATOM     12  H   UNL     1       2.524   3.668  21.855  0.00  0.00    +0.000 HD
ATOM     13  H   UNL     1       0.974   3.932  21.268  0.00  0.00    +0.000 HD
ENDBRANCH   1  11
BRANCH   4  14
ATOM     14  O   UNL     1       4.529   4.665  16.290  0.00  0.00    +0.000 OA
BRANCH  14  15
ATOM     15  C   UNL     1       5.908   4.294  16.267  0.00  0.00    +0.000 C 
BRANCH  15  16
ATOM     16  C   UNL     1       6.718   5.254  17.118  0.00  0.00    +0.000 A 
ATOM     17  C   UNL     1       7.329   4.853  18.318  0.00  0.00    +0.000 A 
ATOM     18  C   UNL     1       8.036   5.770  19.098  0.00  0.00    +0.000 A 
ATOM     19  C   UNL     1       8.162   7.093  18.680  0.00  0.00    +0.000 A 
ATOM     20  C   UNL     1       7.592   7.498  17.477  0.00  0.00    +0.000 A 
ATOM     21  C   UNL     1       6.882   6.583  16.696  0.00  0.00    +0.000 A 
ENDBRANCH  15  16
ENDBRANCH  14  15
ENDBRANCH   4  14
TORSDOF 4
ENDMDL
MODEL 6
REMARK VINA RESULT:      -7.0      2.401      3.975
REMARK  Name = 
REMARK  4 active torsions:
REMARK  status: ('A' for Active; 'I' for Inactive)
REMARK    1  A    between atoms: N_1  and  C_2
REMARK    2  A    between atoms: C_5  and  O_6
REMARK    3  A    between atoms: O_6  and  C_7
REMARK    4  A    between atoms: C_7  and  C_8
REMARK                            x       y       z     vdW  Elec       q    Type
REMARK                         _______ _______ _______ _____ _____    ______ ____
ROOT
ATOM      1  C   UNL     1       2.613   6.220  19.440  0.00  0.00    +0.000 A 
ATOM      2  C   UNL     1       3.565   6.915  18.688  0.00  0.00    +0.000 A 
ATOM      3  C   UNL     1       4.255   6.297  17.642  0.00  0.00    +0.000 A 
ATOM      4  C   UNL     1       3.970   4.975  17.306  0.00  0.00    +0.000 A 
ATOM      5  C   UNL     1       2.977   4.258  18.012  0.00  0.00    +0.000 A 
ATOM      6  C   UNL     1       2.657   2.923  17.684  0.00  0.00    +0.000 A 
ATOM      7  C   UNL     1       1.687   2.202  18.374  0.00  0.00    +0.000 A 
ATOM      8  C   UNL     1       0.998   2.808  19.412  0.00  0.00    +0.000 A 
ATOM      9  C   UNL     1       1.288   4.129  19.755  0.00  0.00    +0.000 A 
ATOM     10  C   UNL     1       2.277   4.886  19.085  0.00  0.00    +0.000 A 
ENDROOT
BRANCH   1  11
ATOM     11  N   UNL     1       1.864   6.960  20.381  0.00  0.00    +0.000 N 
ATOM     12  H   UNL     1       2.094   6.745  21.344  0.00  0.00    +0.000 HD
ATOM     13  H   UNL     1       0.864   6.946  20.222  0.00  0.00    +0.000 HD
ENDBRANCH   1  11
BRANCH   4  14
ATOM     14  O   UNL     1       4.565   4.312  16.256  0.00  0.00    +0.000 OA
BRANCH  14  15
ATOM     15  C   UNL     1       5.964   4.513  16.053  0.00  0.00    +0.000 C 
BRANCH  15  16
ATOM     16  C   UNL     1       6.298   4.380  14.578  0.00  0.00    +0.000 A 
ATOM     17  C   UNL     1       5.558   3.553  13.718  0.00  0.00    +0.000 A 
ATOM     18  C   UNL     1       5.915   3.422  12.374  0.00  0.00    +0.000 A 
ATOM     19  C   UNL     1       7.000   4.134  11.867  0.00  0.00    +0.000 A 
ATOM     20  C   UNL     1       7.722   4.986  12.699  0.00  0.00    +0.000 A 
ATOM     21  C   UNL     1       7.368   5.115  14.044  0.00  0.00    +0.000 A 
ENDBRANCH  15  16
ENDBRANCH  14  15
ENDBRANCH   4  14
TORSDOF 4
ENDMDL
MODEL 7
REMARK VINA RESULT:      -7.0      1.387      2.706
REMARK  Name = 
REMARK  4 active torsions:
REMARK  status: ('A' for Active; 'I' for Inactive)
REMARK    1  A    between atoms: N_1  and  C_2
REMARK    2  A    between atoms: C_5  and  O_6
REMARK    3  A    between atoms: O_6  and  C_7
REMARK    4  A    between atoms: C_7  and  C_8
REMARK                            x       y       z     vdW  Elec       q    Type
REMARK                         _______ _______ _______ _____ _____    ______ ____
ROOT
ATOM      1  C   UNL     1       2.225   6.651  20.012  0.00  0.00    +0.000 A 
ATOM      2  C   UNL     1       2.531   7.332  18.831  0.00  0.00    +0.000 A 
ATOM      3  C   UNL     1       3.176   6.690  17.770  0.00  0.00    +0.000 A 
ATOM      4  C   UNL     1       3.491   5.335  17.865  0.00  0.00    +0.000 A 
ATOM      5  C   UNL     1       3.150   4.603  19.025  0.00  0.00    +0.000 A 
ATOM      6  C   UNL     1       3.443   3.228  19.143  0.00  0.00    +0.000 A 
ATOM      7  C   UNL     1       3.120   2.496  20.281  0.00  0.00    +0.000 A 
ATOM      8  C   UNL     1       2.480   3.125  21.337  0.00  0.00    +0.000 A 
ATOM      9  C   UNL     1       2.172   4.483  21.247  0.00  0.00    +0.000 A 
ATOM     10  C   UNL     1       2.498   5.260  20.112  0.00  0.00    +0.000 A 
ENDROOT
BRANCH   1  11
ATOM     11  N   UNL     1       1.447   7.336  20.972  0.00  0.00    +0.000 N 
ATOM     12  H   UNL     1       0.761   7.964  20.567  0.00  0.00    +0.000 HD
ATOM     13  H   UNL     1       1.986   7.789  21.699  0.00  0.00    +0.000 HD
ENDBRANCH   1  11
BRANCH   4  14
ATOM     14  O   UNL     1       4.075   4.617  16.845  0.00  0.00    +0.000 OA
BRANCH  14  15
ATOM     15  C   UNL     1       5.110   5.254  16.095  0.00  0.00    +0.000 C 
BRANCH  15  16
ATOM     16  C   UNL     1       6.201   5.745  17.029  0.00  0.00    +0.000 A 
ATOM     17  C   UNL     1       6.775   4.915  18.006  0.00  0.00    +0.000 A 
ATOM     18  C   UNL     1       7.750   5.408  18.875  0.00  0.00    +0.000 A 
ATOM     19  C   UNL     1       8.181   6.728  18.765  0.00  0.00    +0.000 A 
ATOM     20  C   UNL     1       7.647   7.554  17.780  0.00  0.00    +0.000 A 
ATOM     21  C   UNL     1       6.670   7.063  16.911  0.00  0.00    +0.000 A 
ENDBRANCH  15  16
ENDBRANCH  14  15
ENDBRANCH   4  14
TORSDOF 4
ENDMDL
MODEL 8
REMARK VINA RESULT:      -7.0      2.472      5.304
REMARK  Name = 
REMARK  4 active torsions:
REMARK  status: ('A' for Active; 'I' for Inactive)
REMARK    1  A    between atoms: N_1  and  C_2
REMARK    2  A    between atoms: C_5  and  O_6
REMARK    3  A    between atoms: O_6  and  C_7
REMARK    4  A    between atoms: C_7  and  C_8
REMARK                            x       y       z     vdW  Elec       q    Type
REMARK                         _______ _______ _______ _____ _____    ______ ____
ROOT
ATOM      1  C   UNL     1       6.887   4.860  15.334  0.00  0.00    +0.000 A 
ATOM      2  C   UNL     1       5.886   4.114  14.706  0.00  0.00    +0.000 A 
ATOM      3  C   UNL     1       4.849   3.530  15.440  0.00  0.00    +0.000 A 
ATOM      4  C   UNL     1       4.779   3.721  16.818  0.00  0.00    +0.000 A 
ATOM      5  C   UNL     1       5.746   4.512  17.479  0.00  0.00    +0.000 A 
ATOM      6  C   UNL     1       5.691   4.734  18.872  0.00  0.00    +0.000 A 
ATOM      7  C   UNL     1       6.639   5.505  19.537  0.00  0.00    +0.000 A 
ATOM      8  C   UNL     1       7.671   6.088  18.818  0.00  0.00    +0.000 A 
ATOM      9  C   UNL     1       7.747   5.892  17.439  0.00  0.00    +0.000 A 
ATOM     10  C   UNL     1       6.810   5.103  16.733  0.00  0.00    +0.000 A 
ENDROOT
BRANCH   1  11
ATOM     11  N   UNL     1       7.812   5.531  14.505  0.00  0.00    +0.000 N 
ATOM     12  H   UNL     1       7.490   6.439  14.186  0.00  0.00    +0.000 HD
ATOM     13  H   UNL     1       8.170   4.972  13.741  0.00  0.00    +0.000 HD
ENDBRANCH   1  11
BRANCH   4  14
ATOM     14  O   UNL     1       3.761   3.227  17.603  0.00  0.00    +0.000 OA
BRANCH  14  15
ATOM     15  C   UNL     1       2.463   3.799  17.443  0.00  0.00    +0.000 C 
BRANCH  15  16
ATOM     16  C   UNL     1       2.293   4.973  18.389  0.00  0.00    +0.000 A 
ATOM     17  C   UNL     1       2.510   6.299  17.978  0.00  0.00    +0.000 A 
ATOM     18  C   UNL     1       2.382   7.355  18.883  0.00  0.00    +0.000 A 
ATOM     19  C   UNL     1       2.014   7.103  20.203  0.00  0.00    +0.000 A 
ATOM     20  C   UNL     1       1.762   5.798  20.617  0.00  0.00    +0.000 A 
ATOM     21  C   UNL     1       1.891   4.740  19.714  0.00  0.00    +0.000 A 
ENDBRANCH  15  16
ENDBRANCH  14  15
ENDBRANCH   4  14
TORSDOF 4
ENDMDL
MODEL 9
REMARK VINA RESULT:      -7.0      3.878      6.434
REMARK  Name = 
REMARK  4 active torsions:
REMARK  status: ('A' for Active; 'I' for Inactive)
REMARK    1  A    between atoms: N_1  and  C_2
REMARK    2  A    between atoms: C_5  and  O_6
REMARK    3  A    between atoms: O_6  and  C_7
REMARK    4  A    between atoms: C_7  and  C_8
REMARK                            x       y       z     vdW  Elec       q    Type
REMARK                         _______ _______ _______ _____ _____    ______ ____
ROOT
ATOM      1  C   UNL     1       0.300  10.632  18.776  0.00  0.00    +0.000 A 
ATOM      2  C   UNL     1       1.026   9.812  17.908  0.00  0.00    +0.000 A 
ATOM      3  C   UNL     1       1.716   8.691  18.377  0.00  0.00    +0.000 A 
ATOM      4  C   UNL     1       1.655   8.350  19.727  0.00  0.00    +0.000 A 
ATOM      5  C   UNL     1       0.889   9.129  20.624  0.00  0.00    +0.000 A 
ATOM      6  C   UNL     1       0.797   8.799  21.994  0.00  0.00    +0.000 A 
ATOM      7  C   UNL     1       0.052   9.560  22.890  0.00  0.00    +0.000 A 
ATOM      8  C   UNL     1      -0.635  10.673  22.434  0.00  0.00    +0.000 A 
ATOM      9  C   UNL     1      -0.569  11.020  21.084  0.00  0.00    +0.000 A 
ATOM     10  C   UNL     1       0.189  10.279  20.148  0.00  0.00    +0.000 A 
ENDROOT
BRANCH   1  11
ATOM     11  N   UNL     1      -0.481  11.657  18.198  0.00  0.00    +0.000 N 
ATOM     12  H   UNL     1      -0.588  11.570  17.193  0.00  0.00    +0.000 HD
ATOM     13  H   UNL     1      -0.205  12.594  18.466  0.00  0.00    +0.000 HD
ENDBRANCH   1  11
BRANCH   4  14
ATOM     14  O   UNL     1       2.259   7.233  20.257  0.00  0.00    +0.000 OA
BRANCH  14  15
ATOM     15  C   UNL     1       2.964   6.373  19.362  0.00  0.00    +0.000 C 
BRANCH  15  16
ATOM     16  C   UNL     1       2.258   5.032  19.267  0.00  0.00    +0.000 A 
ATOM     17  C   UNL     1       2.307   4.245  18.105  0.00  0.00    +0.000 A 
ATOM     18  C   UNL     1       1.615   3.034  18.036  0.00  0.00    +0.000 A 
ATOM     19  C   UNL     1       0.886   2.582  19.134  0.00  0.00    +0.000 A 
ATOM     20  C   UNL     1       0.856   3.334  20.305  0.00  0.00    +0.000 A 
ATOM     21  C   UNL     1       1.545   4.547  20.375  0.00  0.00    +0.000 A 
ENDBRANCH  15  16
ENDBRANCH  14  15
ENDBRANCH   4  14
TORSDOF 4
ENDMDL
