MODEL 1
REMARK VINA RESULT:      -8.1      0.000      0.000
REMARK  Name = 
REMARK  5 active torsions:
REMARK  status: ('A' for Active; 'I' for Inactive)
REMARK    1  A    between atoms: C_2  and  C_3
REMARK    2  A    between atoms: C_2  and  C_19
REMARK    3  A    between atoms: N_7  and  C_8
REMARK    4  A    between atoms: C_12  and  C_13
REMARK    5  A    between atoms: C_24  and  O_25
REMARK                            x       y       z     vdW  Elec       q    Type
REMARK                         _______ _______ _______ _____ _____    ______ ____
ROOT
ATOM      1  C   UNL     1       3.021   6.696  19.083  0.00  0.00    +0.000 A 
ATOM      2  C   UNL     1       2.975   7.440  17.923  0.00  0.00    +0.000 A 
ATOM      3  N   UNL     1       2.224   8.565  18.088  0.00  0.00    +0.000 NA
ATOM      4  C   UNL     1       1.789   8.538  19.330  0.00  0.00    +0.000 A 
ATOM      5  N   UNL     1       1.042   9.452  19.980  0.00  0.00    +0.000 N 
ATOM      6  N   UNL     1       2.207   7.389  19.953  0.00  0.00    +0.000 N 
ATOM      7  H   UNL     1       1.035   9.517  20.991  0.00  0.00    +0.000 HD
ATOM      8  H   UNL     1       1.971   7.096  20.890  0.00  0.00    +0.000 HD
ENDROOT
BRANCH   5   9
ATOM      9  C   UNL     1       0.217  10.389  19.328  0.00  0.00    +0.000 A 
ATOM     10  C   UNL     1       0.511  11.755  19.385  0.00  0.00    +0.000 A 
ATOM     11  C   UNL     1      -0.277  12.683  18.694  0.00  0.00    +0.000 A 
ATOM     12  C   UNL     1      -1.374  12.257  17.944  0.00  0.00    +0.000 A 
ATOM     13  C   UNL     1      -1.684  10.896  17.863  0.00  0.00    +0.000 A 
ATOM     14  C   UNL     1      -0.869   9.978  18.540  0.00  0.00    +0.000 A 
BRANCH  13  15
ATOM     15  C   UNL     1      -2.868  10.387  17.083  0.00  0.00    +0.000 C 
ATOM     16  F   UNL     1      -2.525   9.780  15.911  0.00  0.00    +0.000 F 
ATOM     17  F   UNL     1      -3.606   9.473  17.770  0.00  0.00    +0.000 F 
ATOM     18  F   UNL     1      -3.731  11.384  16.740  0.00  0.00    +0.000 F 
ENDBRANCH  13  15
ENDBRANCH   5   9
BRANCH   1  20
ATOM     19  O   UNL     1       4.908   5.506  19.756  0.00  0.00    +0.000 OA
ATOM     20  C   UNL     1       3.729   5.480  19.414  0.00  0.00    +0.000 C 
BRANCH  20  21
ATOM     21  C   UNL     1       3.017   4.182  19.208  0.00  0.00    +0.000 A 
ATOM     22  C   UNL     1       1.710   4.045  19.713  0.00  0.00    +0.000 A 
ATOM     23  C   UNL     1       1.002   2.856  19.554  0.00  0.00    +0.000 A 
ATOM     24  C   UNL     1       1.579   1.795  18.858  0.00  0.00    +0.000 A 
ATOM     25  C   UNL     1       2.859   1.927  18.321  0.00  0.00    +0.000 A 
ATOM     26  C   UNL     1       3.579   3.115  18.495  0.00  0.00    +0.000 A 
BRANCH  26  27
ATOM     27  O   UNL     1       4.844   3.200  17.990  0.00  0.00    +0.000 OA
ATOM     28  H   UNL     1       5.177   4.105  18.097  0.00  0.00    +0.000 HD
ENDBRANCH  26  27
ENDBRANCH  20  21
ENDBRANCH   1  20
TORSDOF 5
ENDMDL
MODEL 2
REMARK VINA RESULT:      -8.1      7.424      8.680
REMARK  Name = 
REMARK  5 active torsions:
REMARK  status: ('A' for Active; 'I' for Inactive)
REMARK    1  A    between atoms: C_2  and  C_3
REMARK    2  A    between atoms: C_2  and  C_19
REMARK    3  A    between atoms: N_7  and  C_8
REMARK    4  A    between atoms: C_12  and  C_13
REMARK    5  A    between atoms: C_24  and  O_25
REMARK                            x       y       z     vdW  Elec       q    Type
REMARK                         _______ _______ _______ _____ _____    ______ ____
ROOT
ATOM      1  C   UNL     1       7.464   6.912  17.354  0.00  0.00    +0.000 A 
ATOM      2  C   UNL     1       8.102   6.854  18.574  0.00  0.00    +0.000 A 
ATOM      3  N   UNL     1       8.543   8.085  18.959  0.00  0.00    +0.000 NA
ATOM      4  C   UNL     1       8.199   8.915  17.997  0.00  0.00    +0.000 A 
ATOM      5  N   UNL     1       8.378  10.250  17.935  0.00  0.00    +0.000 N 
ATOM      6  N   UNL     1       7.589   8.231  16.977  0.00  0.00    +0.000 N 
ATOM      7  H   UNL     1       7.807  10.839  17.341  0.00  0.00    +0.000 HD
ATOM      8  H   UNL     1       7.274   8.621  16.099  0.00  0.00    +0.000 HD
ENDROOT
BRANCH   5   9
ATOM      9  C   UNL     1       9.355  10.940  18.677  0.00  0.00    +0.000 A 
ATOM     10  C   UNL     1      10.697  10.917  18.281  0.00  0.00    +0.000 A 
ATOM     11  C   UNL     1      11.662  11.646  18.985  0.00  0.00    +0.000 A 
ATOM     12  C   UNL     1      11.299  12.401  20.102  0.00  0.00    +0.000 A 
ATOM     13  C   UNL     1       9.963  12.449  20.514  0.00  0.00    +0.000 A 
ATOM     14  C   UNL     1       9.006  11.734  19.781  0.00  0.00    +0.000 A 
BRANCH  13  15
ATOM     15  C   UNL     1       9.524  13.232  21.723  0.00  0.00    +0.000 C 
ATOM     16  F   UNL     1       8.317  13.846  21.562  0.00  0.00    +0.000 F 
ATOM     17  F   UNL     1       9.402  12.465  22.840  0.00  0.00    +0.000 F 
ATOM     18  F   UNL     1      10.400  14.226  22.044  0.00  0.00    +0.000 F 
ENDBRANCH  13  15
ENDBRANCH   5   9
BRANCH   1  20
ATOM     19  O   UNL     1       7.281   5.447  15.550  0.00  0.00    +0.000 OA
ATOM     20  C   UNL     1       6.784   5.898  16.578  0.00  0.00    +0.000 C 
BRANCH  20  21
ATOM     21  C   UNL     1       5.405   5.507  17.001  0.00  0.00    +0.000 A 
ATOM     22  C   UNL     1       4.559   6.499  17.535  0.00  0.00    +0.000 A 
ATOM     23  C   UNL     1       3.266   6.189  17.950  0.00  0.00    +0.000 A 
ATOM     24  C   UNL     1       2.787   4.889  17.808  0.00  0.00    +0.000 A 
ATOM     25  C   UNL     1       3.600   3.903  17.249  0.00  0.00    +0.000 A 
ATOM     26  C   UNL     1       4.905   4.208  16.847  0.00  0.00    +0.000 A 
BRANCH  26  27
ATOM     27  O   UNL     1       5.689   3.213  16.339  0.00  0.00    +0.000 OA
ATOM     28  H   UNL     1       6.095   2.714  17.065  0.00  0.00    +0.000 HD
ENDBRANCH  26  27
ENDBRANCH  20  21
ENDBRANCH   1  20
TORSDOF 5
ENDMDL
MODEL 3
REMARK VINA RESULT:      -8.1      0.748      1.091
REMARK  Name = 
REMARK  5 active torsions:
REMARK  status: ('A' for Active; 'I' for Inactive)
REMARK    1  A    between atoms: C_2  and  C_3
REMARK    2  A    between atoms: C_2  and  C_19
REMARK    3  A    between atoms: N_7  and  C_8
REMARK    4  A    between atoms: C_12  and  C_13
REMARK    5  A    between atoms: C_24  and  O_25
REMARK                            x       y       z     vdW  Elec       q    Type
REMARK                         _______ _______ _______ _____ _____    ______ ____
ROOT
ATOM      1  C   UNL     1       3.262   6.874  18.333  0.00  0.00    +0.000 A 
ATOM      2  C   UNL     1       3.177   7.778  17.296  0.00  0.00    +0.000 A 
ATOM      3  N   UNL     1       2.356   8.818  17.616  0.00  0.00    +0.000 NA
ATOM      4  C   UNL     1       1.916   8.578  18.833  0.00  0.00    +0.000 A 
ATOM      5  N   UNL     1       1.110   9.337  19.601  0.00  0.00    +0.000 N 
ATOM      6  N   UNL     1       2.402   7.377  19.284  0.00  0.00    +0.000 N 
ATOM      7  H   UNL     1       1.093   9.250  20.610  0.00  0.00    +0.000 HD
ATOM      8  H   UNL     1       2.179   6.933  20.163  0.00  0.00    +0.000 HD
ENDROOT
BRANCH   5   9
ATOM      9  C   UNL     1       0.231  10.309  19.084  0.00  0.00    +0.000 A 
ATOM     10  C   UNL     1       0.435  11.667  19.354  0.00  0.00    +0.000 A 
ATOM     11  C   UNL     1      -0.405  12.638  18.797  0.00  0.00    +0.000 A 
ATOM     12  C   UNL     1      -1.465  12.264  17.970  0.00  0.00    +0.000 A 
ATOM     13  C   UNL     1      -1.685  10.914  17.676  0.00  0.00    +0.000 A 
ATOM     14  C   UNL     1      -0.818   9.957  18.221  0.00  0.00    +0.000 A 
BRANCH  13  15
ATOM     15  C   UNL     1      -2.825  10.457  16.805  0.00  0.00    +0.000 C 
ATOM     16  F   UNL     1      -3.831  11.372  16.704  0.00  0.00    +0.000 F 
ATOM     17  F   UNL     1      -2.444  10.185  15.527  0.00  0.00    +0.000 F 
ATOM     18  F   UNL     1      -3.411   9.318  17.272  0.00  0.00    +0.000 F 
ENDBRANCH  13  15
ENDBRANCH   5   9
BRANCH   1  20
ATOM     19  O   UNL     1       5.270   5.695  18.441  0.00  0.00    +0.000 OA
ATOM     20  C   UNL     1       4.044   5.667  18.490  0.00  0.00    +0.000 C 
BRANCH  20  21
ATOM     21  C   UNL     1       3.308   4.370  18.589  0.00  0.00    +0.000 A 
ATOM     22  C   UNL     1       1.948   4.339  18.224  0.00  0.00    +0.000 A 
ATOM     23  C   UNL     1       1.213   3.158  18.302  0.00  0.00    +0.000 A 
ATOM     24  C   UNL     1       1.834   1.982  18.715  0.00  0.00    +0.000 A 
ATOM     25  C   UNL     1       3.189   1.988  19.047  0.00  0.00    +0.000 A 
ATOM     26  C   UNL     1       3.925   3.177  18.986  0.00  0.00    +0.000 A 
BRANCH  26  27
ATOM     27  O   UNL     1       5.240   3.159  19.353  0.00  0.00    +0.000 OA
ATOM     28  H   UNL     1       5.701   3.911  18.950  0.00  0.00    +0.000 HD
ENDBRANCH  26  27
ENDBRANCH  20  21
ENDBRANCH   1  20
TORSDOF 5
ENDMDL
MODEL 4
REMARK VINA RESULT:      -8.0      4.093      7.995
REMARK  Name = 
REMARK  5 active torsions:
REMARK  status: ('A' for Active; 'I' for Inactive)
REMARK    1  A    between atoms: C_2  and  C_3
REMARK    2  A    between atoms: C_2  and  C_19
REMARK    3  A    between atoms: N_7  and  C_8
REMARK    4  A    between atoms: C_12  and  C_13
REMARK    5  A    between atoms: C_24  and  O_25
REMARK                            x       y       z     vdW  Elec       q    Type
REMARK                         _______ _______ _______ _____ _____    ______ ____
ROOT
ATOM      1  C   UNL     1       0.755   9.941  18.882  0.00  0.00    +0.000 A 
ATOM      2  C   UNL     1       0.949   9.239  20.052  0.00  0.00    +0.000 A 
ATOM      3  N   UNL     1       1.773   8.172  19.856  0.00  0.00    +0.000 NA
ATOM      4  C   UNL     1       2.095   8.186  18.579  0.00  0.00    +0.000 A 
ATOM      5  N   UNL     1       2.921   7.357  17.911  0.00  0.00    +0.000 N 
ATOM      6  N   UNL     1       1.451   9.215  17.940  0.00  0.00    +0.000 N 
ATOM      7  H   UNL     1       3.362   7.627  17.041  0.00  0.00    +0.000 HD
ATOM      8  H   UNL     1       1.483   9.419  16.952  0.00  0.00    +0.000 HD
ENDROOT
BRANCH   5   9
ATOM      9  C   UNL     1       3.246   6.059  18.352  0.00  0.00    +0.000 A 
ATOM     10  C   UNL     1       4.581   5.690  18.549  0.00  0.00    +0.000 A 
ATOM     11  C   UNL     1       4.904   4.419  19.039  0.00  0.00    +0.000 A 
ATOM     12  C   UNL     1       3.897   3.498  19.330  0.00  0.00    +0.000 A 
ATOM     13  C   UNL     1       2.554   3.846  19.151  0.00  0.00    +0.000 A 
ATOM     14  C   UNL     1       2.247   5.132  18.685  0.00  0.00    +0.000 A 
BRANCH  13  15
ATOM     15  C   UNL     1       1.431   2.882  19.432  0.00  0.00    +0.000 C 
ATOM     16  F   UNL     1       1.858   1.664  19.871  0.00  0.00    +0.000 F 
ATOM     17  F   UNL     1       0.565   3.334  20.380  0.00  0.00    +0.000 F 
ATOM     18  F   UNL     1       0.675   2.629  18.326  0.00  0.00    +0.000 F 
ENDBRANCH  13  15
ENDBRANCH   5   9
BRANCH   1  20
ATOM     19  O   UNL     1       0.557  12.259  18.740  0.00  0.00    +0.000 OA
ATOM     20  C   UNL     1       0.028  11.160  18.604  0.00  0.00    +0.000 C 
BRANCH  20  21
ATOM     21  C   UNL     1      -1.423  11.043  18.267  0.00  0.00    +0.000 A 
ATOM     22  C   UNL     1      -1.841   9.968  17.459  0.00  0.00    +0.000 A 
ATOM     23  C   UNL     1      -3.180   9.814  17.109  0.00  0.00    +0.000 A 
ATOM     24  C   UNL     1      -4.129  10.714  17.590  0.00  0.00    +0.000 A 
ATOM     25  C   UNL     1      -3.737  11.763  18.420  0.00  0.00    +0.000 A 
ATOM     26  C   UNL     1      -2.389  11.931  18.758  0.00  0.00    +0.000 A 
BRANCH  26  27
ATOM     27  O   UNL     1      -2.032  12.989  19.542  0.00  0.00    +0.000 OA
ATOM     28  H   UNL     1      -2.682  13.703  19.442  0.00  0.00    +0.000 HD
ENDBRANCH  26  27
ENDBRANCH  20  21
ENDBRANCH   1  20
TORSDOF 5
ENDMDL
MODEL 5
REMARK VINA RESULT:      -8.0      1.752      2.641
REMARK  Name = 
REMARK  5 active torsions:
REMARK  status: ('A' for Active; 'I' for Inactive)
REMARK    1  A    between atoms: C_2  and  C_3
REMARK    2  A    between atoms: C_2  and  C_19
REMARK    3  A    between atoms: N_7  and  C_8
REMARK    4  A    between atoms: C_12  and  C_13
REMARK    5  A    between atoms: C_24  and  O_25
REMARK                            x       y       z     vdW  Elec       q    Type
REMARK                         _______ _______ _______ _____ _____    ______ ____
ROOT
ATOM      1  C   UNL     1       3.166   6.533  18.741  0.00  0.00    +0.000 A 
ATOM      2  C   UNL     1       3.250   7.477  17.740  0.00  0.00    +0.000 A 
ATOM      3  N   UNL     1       2.486   8.569  18.025  0.00  0.00    +0.000 NA
ATOM      4  C   UNL     1       1.915   8.324  19.186  0.00  0.00    +0.000 A 
ATOM      5  N   UNL     1       1.101   9.119  19.907  0.00  0.00    +0.000 N 
ATOM      6  N   UNL     1       2.261   7.072  19.629  0.00  0.00    +0.000 N 
ATOM      7  H   UNL     1       0.981   9.000  20.906  0.00  0.00    +0.000 HD
ATOM      8  H   UNL     1       1.922   6.619  20.465  0.00  0.00    +0.000 HD
ENDROOT
BRANCH   5   9
ATOM      9  C   UNL     1       0.353  10.176  19.352  0.00  0.00    +0.000 A 
ATOM     10  C   UNL     1       0.709  11.506  19.601  0.00  0.00    +0.000 A 
ATOM     11  C   UNL     1       0.001  12.557  19.008  0.00  0.00    +0.000 A 
ATOM     12  C   UNL     1      -1.078  12.292  18.163  0.00  0.00    +0.000 A 
ATOM     13  C   UNL     1      -1.449  10.972  17.890  0.00  0.00    +0.000 A 
ATOM     14  C   UNL     1      -0.712   9.931  18.472  0.00  0.00    +0.000 A 
BRANCH  13  15
ATOM     15  C   UNL     1      -2.617  10.633  17.001  0.00  0.00    +0.000 C 
ATOM     16  F   UNL     1      -3.271   9.496  17.374  0.00  0.00    +0.000 F 
ATOM     17  F   UNL     1      -3.564  11.610  16.971  0.00  0.00    +0.000 F 
ATOM     18  F   UNL     1      -2.243  10.433  15.706  0.00  0.00    +0.000 F 
ENDBRANCH  13  15
ENDBRANCH   5   9
BRANCH   1  20
ATOM     19  O   UNL     1       3.531   4.511  19.842  0.00  0.00    +0.000 OA
ATOM     20  C   UNL     1       3.833   5.263  18.919  0.00  0.00    +0.000 C 
BRANCH  20  21
ATOM     21  C   UNL     1       4.984   4.949  18.019  0.00  0.00    +0.000 A 
ATOM     22  C   UNL     1       4.717   4.621  16.676  0.00  0.00    +0.000 A 
ATOM     23  C   UNL     1       5.752   4.315  15.795  0.00  0.00    +0.000 A 
ATOM     24  C   UNL     1       7.073   4.364  16.234  0.00  0.00    +0.000 A 
ATOM     25  C   UNL     1       7.356   4.722  17.552  0.00  0.00    +0.000 A 
ATOM     26  C   UNL     1       6.317   5.012  18.444  0.00  0.00    +0.000 A 
BRANCH  26  27
ATOM     27  O   UNL     1       6.625   5.323  19.737  0.00  0.00    +0.000 OA
ATOM     28  H   UNL     1       5.814   5.338  20.270  0.00  0.00    +0.000 HD
ENDBRANCH  26  27
ENDBRANCH  20  21
ENDBRANCH   1  20
TORSDOF 5
ENDMDL
MODEL 6
REMARK VINA RESULT:      -8.0      3.267      4.298
REMARK  Name = 
REMARK  5 active torsions:
REMARK  status: ('A' for Active; 'I' for Inactive)
REMARK    1  A    between atoms: C_2  and  C_3
REMARK    2  A    between atoms: C_2  and  C_19
REMARK    3  A    between atoms: N_7  and  C_8
REMARK    4  A    between atoms: C_12  and  C_13
REMARK    5  A    between atoms: C_24  and  O_25
REMARK                            x       y       z     vdW  Elec       q    Type
REMARK                         _______ _______ _______ _____ _____    ______ ____
ROOT
ATOM      1  C   UNL     1       3.847   5.225  19.049  0.00  0.00    +0.000 A 
ATOM      2  C   UNL     1       2.791   5.206  19.934  0.00  0.00    +0.000 A 
ATOM      3  N   UNL     1       2.026   6.328  19.815  0.00  0.00    +0.000 NA
ATOM      4  C   UNL     1       2.589   7.057  18.874  0.00  0.00    +0.000 A 
ATOM      5  N   UNL     1       2.180   8.237  18.366  0.00  0.00    +0.000 N 
ATOM      6  N   UNL     1       3.730   6.446  18.421  0.00  0.00    +0.000 N 
ATOM      7  H   UNL     1       2.468   8.554  17.449  0.00  0.00    +0.000 HD
ATOM      8  H   UNL     1       4.376   6.816  17.738  0.00  0.00    +0.000 HD
ENDROOT
BRANCH   5   9
ATOM      9  C   UNL     1       1.326   9.124  19.050  0.00  0.00    +0.000 A 
ATOM     10  C   UNL     1       0.678  10.157  18.364  0.00  0.00    +0.000 A 
ATOM     11  C   UNL     1      -0.212  11.007  19.029  0.00  0.00    +0.000 A 
ATOM     12  C   UNL     1      -0.461  10.840  20.393  0.00  0.00    +0.000 A 
ATOM     13  C   UNL     1       0.166   9.809  21.100  0.00  0.00    +0.000 A 
ATOM     14  C   UNL     1       1.035   8.951  20.412  0.00  0.00    +0.000 A 
BRANCH  13  15
ATOM     15  C   UNL     1      -0.053   9.599  22.576  0.00  0.00    +0.000 C 
ATOM     16  F   UNL     1      -0.892   8.562  22.857  0.00  0.00    +0.000 F 
ATOM     17  F   UNL     1       1.098   9.337  23.253  0.00  0.00    +0.000 F 
ATOM     18  F   UNL     1      -0.603  10.690  23.179  0.00  0.00    +0.000 F 
ENDBRANCH  13  15
ENDBRANCH   5   9
BRANCH   1  20
ATOM     19  O   UNL     1       5.232   3.436  19.608  0.00  0.00    +0.000 OA
ATOM     20  C   UNL     1       4.874   4.249  18.761  0.00  0.00    +0.000 C 
BRANCH  20  21
ATOM     21  C   UNL     1       5.571   4.342  17.442  0.00  0.00    +0.000 A 
ATOM     22  C   UNL     1       4.808   4.204  16.267  0.00  0.00    +0.000 A 
ATOM     23  C   UNL     1       5.408   4.276  15.012  0.00  0.00    +0.000 A 
ATOM     24  C   UNL     1       6.775   4.520  14.911  0.00  0.00    +0.000 A 
ATOM     25  C   UNL     1       7.539   4.694  16.065  0.00  0.00    +0.000 A 
ATOM     26  C   UNL     1       6.943   4.604  17.328  0.00  0.00    +0.000 A 
BRANCH  26  27
ATOM     27  O   UNL     1       7.724   4.741  18.438  0.00  0.00    +0.000 OA
ATOM     28  H   UNL     1       8.571   4.290  18.298  0.00  0.00    +0.000 HD
ENDBRANCH  26  27
ENDBRANCH  20  21
ENDBRANCH   1  20
TORSDOF 5
ENDMDL
MODEL 7
REMARK VINA RESULT:      -8.0      2.647      3.760
REMARK  Name = 
REMARK  5 active torsions:
REMARK  status: ('A' for Active; 'I' for Inactive)
REMARK    1  A    between atoms: C_2  and  C_3
REMARK    2  A    between atoms: C_2  and  C_19
REMARK    3  A    between atoms: N_7  and  C_8
REMARK    4  A    between atoms: C_12  and  C_13
REMARK    5  A    between atoms: C_24  and  O_25
REMARK                            x       y       z     vdW  Elec       q    Type
REMARK                         _______ _______ _______ _____ _____    ______ ____
ROOT
ATOM      1  C   UNL     1       3.631   4.821  19.509  0.00  0.00    +0.000 A 
ATOM      2  C   UNL     1       2.512   4.653  20.295  0.00  0.00    +0.000 A 
ATOM      3  N   UNL     1       1.798   5.810  20.392  0.00  0.00    +0.000 NA
ATOM      4  C   UNL     1       2.454   6.706  19.685  0.00  0.00    +0.000 A 
ATOM      5  N   UNL     1       2.126   7.990  19.442  0.00  0.00    +0.000 N 
ATOM      6  N   UNL     1       3.604   6.158  19.177  0.00  0.00    +0.000 N 
ATOM      7  H   UNL     1       2.492   8.495  18.644  0.00  0.00    +0.000 HD
ATOM      8  H   UNL     1       4.312   6.642  18.642  0.00  0.00    +0.000 HD
ENDROOT
BRANCH   5   9
ATOM      9  C   UNL     1       1.254   8.739  20.257  0.00  0.00    +0.000 A 
ATOM     10  C   UNL     1       1.244   8.554  21.644  0.00  0.00    +0.000 A 
ATOM     11  C   UNL     1       0.418   9.333  22.461  0.00  0.00    +0.000 A 
ATOM     12  C   UNL     1      -0.414  10.304  21.902  0.00  0.00    +0.000 A 
ATOM     13  C   UNL     1      -0.416  10.516  20.520  0.00  0.00    +0.000 A 
ATOM     14  C   UNL     1       0.437   9.744  19.719  0.00  0.00    +0.000 A 
BRANCH  13  15
ATOM     15  C   UNL     1      -1.310  11.537  19.865  0.00  0.00    +0.000 C 
ATOM     16  F   UNL     1      -2.260  10.987  19.057  0.00  0.00    +0.000 F 
ATOM     17  F   UNL     1      -1.987  12.306  20.761  0.00  0.00    +0.000 F 
ATOM     18  F   UNL     1      -0.615  12.405  19.076  0.00  0.00    +0.000 F 
ENDBRANCH  13  15
ENDBRANCH   5   9
BRANCH   1  20
ATOM     19  O   UNL     1       4.979   2.938  19.771  0.00  0.00    +0.000 OA
ATOM     20  C   UNL     1       4.642   3.886  19.068  0.00  0.00    +0.000 C 
BRANCH  20  21
ATOM     21  C   UNL     1       5.351   4.182  17.785  0.00  0.00    +0.000 A 
ATOM     22  C   UNL     1       4.629   4.085  16.580  0.00  0.00    +0.000 A 
ATOM     23  C   UNL     1       5.240   4.344  15.356  0.00  0.00    +0.000 A 
ATOM     24  C   UNL     1       6.577   4.736  15.320  0.00  0.00    +0.000 A 
ATOM     25  C   UNL     1       7.296   4.871  16.506  0.00  0.00    +0.000 A 
ATOM     26  C   UNL     1       6.689   4.594  17.737  0.00  0.00    +0.000 A 
BRANCH  26  27
ATOM     27  O   UNL     1       7.430   4.699  18.878  0.00  0.00    +0.000 OA
ATOM     28  H   UNL     1       6.938   4.318  19.622  0.00  0.00    +0.000 HD
ENDBRANCH  26  27
ENDBRANCH  20  21
ENDBRANCH   1  20
TORSDOF 5
ENDMDL
MODEL 8
REMARK VINA RESULT:      -8.0      0.760      1.289
REMARK  Name = 
REMARK  5 active torsions:
REMARK  status: ('A' for Active; 'I' for Inactive)
REMARK    1  A    between atoms: C_2  and  C_3
REMARK    2  A    between atoms: C_2  and  C_19
REMARK    3  A    between atoms: N_7  and  C_8
REMARK    4  A    between atoms: C_12  and  C_13
REMARK    5  A    between atoms: C_24  and  O_25
REMARK                            x       y       z     vdW  Elec       q    Type
REMARK                         _______ _______ _______ _____ _____    ______ ____
ROOT
ATOM      1  C   UNL     1       3.080   6.731  18.983  0.00  0.00    +0.000 A 
ATOM      2  C   UNL     1       3.064   7.554  17.877  0.00  0.00    +0.000 A 
ATOM      3  N   UNL     1       2.282   8.650  18.088  0.00  0.00    +0.000 NA
ATOM      4  C   UNL     1       1.799   8.526  19.307  0.00  0.00    +0.000 A 
ATOM      5  N   UNL     1       1.006   9.378  19.987  0.00  0.00    +0.000 N 
ATOM      6  N   UNL     1       2.216   7.345  19.864  0.00  0.00    +0.000 N 
ATOM      7  H   UNL     1       0.957   9.372  20.998  0.00  0.00    +0.000 HD
ATOM      8  H   UNL     1       1.949   6.982  20.769  0.00  0.00    +0.000 HD
ENDROOT
BRANCH   5   9
ATOM      9  C   UNL     1       0.186  10.342  19.368  0.00  0.00    +0.000 A 
ATOM     10  C   UNL     1       0.455  11.706  19.521  0.00  0.00    +0.000 A 
ATOM     11  C   UNL     1      -0.325  12.665  18.864  0.00  0.00    +0.000 A 
ATOM     12  C   UNL     1      -1.389  12.272  18.051  0.00  0.00    +0.000 A 
ATOM     13  C   UNL     1      -1.672  10.914  17.873  0.00  0.00    +0.000 A 
ATOM     14  C   UNL     1      -0.865   9.967  18.518  0.00  0.00    +0.000 A 
BRANCH  13  15
ATOM     15  C   UNL     1      -2.820  10.438  17.021  0.00  0.00    +0.000 C 
ATOM     16  F   UNL     1      -2.426   9.731  15.924  0.00  0.00    +0.000 F 
ATOM     17  F   UNL     1      -3.682   9.626  17.694  0.00  0.00    +0.000 F 
ATOM     18  F   UNL     1      -3.573  11.468  16.543  0.00  0.00    +0.000 F 
ENDBRANCH  13  15
ENDBRANCH   5   9
BRANCH   1  20
ATOM     19  O   UNL     1       5.015   5.516  19.444  0.00  0.00    +0.000 OA
ATOM     20  C   UNL     1       3.801   5.509  19.258  0.00  0.00    +0.000 C 
BRANCH  20  21
ATOM     21  C   UNL     1       3.043   4.223  19.187  0.00  0.00    +0.000 A 
ATOM     22  C   UNL     1       3.117   3.463  18.004  0.00  0.00    +0.000 A 
ATOM     23  C   UNL     1       2.426   2.260  17.881  0.00  0.00    +0.000 A 
ATOM     24  C   UNL     1       1.676   1.780  18.953  0.00  0.00    +0.000 A 
ATOM     25  C   UNL     1       1.620   2.503  20.144  0.00  0.00    +0.000 A 
ATOM     26  C   UNL     1       2.299   3.721  20.263  0.00  0.00    +0.000 A 
BRANCH  26  27
ATOM     27  O   UNL     1       2.195   4.424  21.429  0.00  0.00    +0.000 OA
ATOM     28  H   UNL     1       2.329   3.827  22.182  0.00  0.00    +0.000 HD
ENDBRANCH  26  27
ENDBRANCH  20  21
ENDBRANCH   1  20
TORSDOF 5
ENDMDL
MODEL 9
REMARK VINA RESULT:      -7.9      2.273      3.196
REMARK  Name = 
REMARK  5 active torsions:
REMARK  status: ('A' for Active; 'I' for Inactive)
REMARK    1  A    between atoms: C_2  and  C_3
REMARK    2  A    between atoms: C_2  and  C_19
REMARK    3  A    between atoms: N_7  and  C_8
REMARK    4  A    between atoms: C_12  and  C_13
REMARK    5  A    between atoms: C_24  and  O_25
REMARK                            x       y       z     vdW  Elec       q    Type
REMARK                         _______ _______ _______ _____ _____    ______ ____
ROOT
ATOM      1  C   UNL     1       3.138   5.704  19.201  0.00  0.00    +0.000 A 
ATOM      2  C   UNL     1       2.915   6.777  18.365  0.00  0.00    +0.000 A 
ATOM      3  N   UNL     1       2.277   7.788  19.020  0.00  0.00    +0.000 NA
ATOM      4  C   UNL     1       2.088   7.365  20.252  0.00  0.00    +0.000 A 
ATOM      5  N   UNL     1       1.535   8.022  21.291  0.00  0.00    +0.000 N 
ATOM      6  N   UNL     1       2.548   6.080  20.388  0.00  0.00    +0.000 N 
ATOM      7  H   UNL     1       1.725   7.763  22.251  0.00  0.00    +0.000 HD
ATOM      8  H   UNL     1       2.479   5.504  21.214  0.00  0.00    +0.000 HD
ENDROOT
BRANCH   5   9
ATOM      9  C   UNL     1       0.656   9.113  21.143  0.00  0.00    +0.000 A 
ATOM     10  C   UNL     1       0.381   9.955  22.226  0.00  0.00    +0.000 A 
ATOM     11  C   UNL     1      -0.449  11.071  22.069  0.00  0.00    +0.000 A 
ATOM     12  C   UNL     1      -1.021  11.355  20.828  0.00  0.00    +0.000 A 
ATOM     13  C   UNL     1      -0.754  10.536  19.727  0.00  0.00    +0.000 A 
ATOM     14  C   UNL     1       0.100   9.437  19.896  0.00  0.00    +0.000 A 
BRANCH  13  15
ATOM     15  C   UNL     1      -1.362  10.788  18.372  0.00  0.00    +0.000 C 
ATOM     16  F   UNL     1      -2.712  10.606  18.341  0.00  0.00    +0.000 F 
ATOM     17  F   UNL     1      -1.149  12.054  17.920  0.00  0.00    +0.000 F 
ATOM     18  F   UNL     1      -0.858   9.959  17.414  0.00  0.00    +0.000 F 
ENDBRANCH  13  15
ENDBRANCH   5   9
BRANCH   1  20
ATOM     19  O   UNL     1       3.533   3.449  19.637  0.00  0.00    +0.000 OA
ATOM     20  C   UNL     1       3.823   4.449  18.987  0.00  0.00    +0.000 C 
BRANCH  20  21
ATOM     21  C   UNL     1       4.977   4.439  18.037  0.00  0.00    +0.000 A 
ATOM     22  C   UNL     1       4.741   4.086  16.695  0.00  0.00    +0.000 A 
ATOM     23  C   UNL     1       5.781   4.055  15.769  0.00  0.00    +0.000 A 
ATOM     24  C   UNL     1       7.069   4.410  16.163  0.00  0.00    +0.000 A 
ATOM     25  C   UNL     1       7.313   4.797  17.480  0.00  0.00    +0.000 A 
ATOM     26  C   UNL     1       6.273   4.811  18.417  0.00  0.00    +0.000 A 
BRANCH  26  27
ATOM     27  O   UNL     1       6.552   5.158  19.707  0.00  0.00    +0.000 OA
ATOM     28  H   UNL     1       5.811   5.664  20.076  0.00  0.00    +0.000 HD
ENDBRANCH  26  27
ENDBRANCH  20  21
ENDBRANCH   1  20
TORSDOF 5
ENDMDL
