MODEL 1
REMARK VINA RESULT:      -7.5      0.000      0.000
REMARK  Name = 
REMARK  6 active torsions:
REMARK  status: ('A' for Active; 'I' for Inactive)
REMARK    1  A    between atoms: C_1  and  N_2
REMARK    2  A    between atoms: C_8  and  O_9
REMARK    3  A    between atoms: O_9  and  C_10
REMARK    4  A    between atoms: C_13  and  N_14
REMARK    5  A    between atoms: N_21  and  C_22
REMARK    6  A    between atoms: N_23  and  C_24
REMARK                            x       y       z     vdW  Elec       q    Type
REMARK                         _______ _______ _______ _____ _____    ______ ____
ROOT
ATOM      1  C   UNL     1      -5.410  12.609  18.636  0.00  0.00    +0.000 C 
ATOM      2  N   UNL     1      -4.138  11.953  18.391  0.00  0.00    +0.000 N 
ATOM      3  C   UNL     1      -3.134  12.087  19.353  0.00  0.00    +0.000 A 
ATOM      4  O   UNL     1      -3.255  12.718  20.399  0.00  0.00    +0.000 OA
ATOM      5  C   UNL     1      -1.939  11.402  19.000  0.00  0.00    +0.000 A 
ATOM      6  C   UNL     1      -1.796  10.683  17.854  0.00  0.00    +0.000 A 
ATOM      7  N   UNL     1      -0.568  10.104  17.762  0.00  0.00    +0.000 NA
ATOM      8  C   UNL     1       0.055  10.472  18.868  0.00  0.00    +0.000 A 
ATOM      9  N   UNL     1      -0.736  11.287  19.643  0.00  0.00    +0.000 N 
ATOM     10  C   UNL     1      -0.407  11.875  20.917  0.00  0.00    +0.000 C 
ATOM     11  N   UNL     1      -2.817  10.582  16.938  0.00  0.00    +0.000 N 
ATOM     12  C   UNL     1      -2.669   9.831  15.709  0.00  0.00    +0.000 C 
ATOM     13  C   UNL     1      -4.029  11.232  17.186  0.00  0.00    +0.000 A 
ATOM     14  O   UNL     1      -4.966  11.174  16.386  0.00  0.00    +0.000 OA
ENDROOT
BRANCH   8  15
ATOM     15  O   UNL     1       1.301  10.139  19.208  0.00  0.00    +0.000 OA
BRANCH  15  16
ATOM     16  C   UNL     1       1.733   8.833  19.141  0.00  0.00    +0.000 A 
ATOM     17  C   UNL     1       2.405   8.441  17.981  0.00  0.00    +0.000 A 
ATOM     18  C   UNL     1       2.974   7.163  17.886  0.00  0.00    +0.000 A 
ATOM     19  C   UNL     1       2.887   6.275  18.968  0.00  0.00    +0.000 A 
ATOM     20  C   UNL     1       2.194   6.665  20.124  0.00  0.00    +0.000 A 
ATOM     21  C   UNL     1       1.626   7.941  20.209  0.00  0.00    +0.000 A 
BRANCH  19  22
ATOM     22  N   UNL     1       3.514   5.005  18.926  0.00  0.00    +0.000 N 
ATOM     23  C   UNL     1       3.065   3.824  18.391  0.00  0.00    +0.000 A 
ATOM     24  N   UNL     1       3.984   2.898  18.538  0.00  0.00    +0.000 NA
ATOM     25  N   UNL     1       5.028   3.511  19.178  0.00  0.00    +0.000 NA
ATOM     26  N   UNL     1       4.758   4.787  19.417  0.00  0.00    +0.000 NA
ENDBRANCH  19  22
ENDBRANCH  15  16
ENDBRANCH   8  15
TORSDOF 3
ENDMDL
MODEL 2
REMARK VINA RESULT:      -7.5      0.892      1.448
REMARK  Name = 
REMARK  6 active torsions:
REMARK  status: ('A' for Active; 'I' for Inactive)
REMARK    1  A    between atoms: C_1  and  N_2
REMARK    2  A    between atoms: C_8  and  O_9
REMARK    3  A    between atoms: O_9  and  C_10
REMARK    4  A    between atoms: C_13  and  N_14
REMARK    5  A    between atoms: N_21  and  C_22
REMARK    6  A    between atoms: N_23  and  C_24
REMARK                            x       y       z     vdW  Elec       q    Type
REMARK                         _______ _______ _______ _____ _____    ______ ____
ROOT
ATOM      1  C   UNL     1      -5.321  12.550  18.824  0.00  0.00    +0.000 C 
ATOM      2  N   UNL     1      -4.056  11.903  18.527  0.00  0.00    +0.000 N 
ATOM      3  C   UNL     1      -3.034  11.993  19.474  0.00  0.00    +0.000 A 
ATOM      4  O   UNL     1      -3.133  12.578  20.548  0.00  0.00    +0.000 OA
ATOM      5  C   UNL     1      -1.847  11.322  19.069  0.00  0.00    +0.000 A 
ATOM      6  C   UNL     1      -1.728  10.654  17.890  0.00  0.00    +0.000 A 
ATOM      7  N   UNL     1      -0.504  10.076  17.750  0.00  0.00    +0.000 NA
ATOM      8  C   UNL     1       0.141  10.395  18.859  0.00  0.00    +0.000 A 
ATOM      9  N   UNL     1      -0.633  11.177  19.684  0.00  0.00    +0.000 N 
ATOM     10  C   UNL     1      -0.278  11.709  20.975  0.00  0.00    +0.000 C 
ATOM     11  N   UNL     1      -2.767  10.595  16.991  0.00  0.00    +0.000 N 
ATOM     12  C   UNL     1      -2.644   9.898  15.728  0.00  0.00    +0.000 C 
ATOM     13  C   UNL     1      -3.972  11.235  17.290  0.00  0.00    +0.000 A 
ATOM     14  O   UNL     1      -4.924  11.214  16.505  0.00  0.00    +0.000 OA
ENDROOT
BRANCH   8  15
ATOM     15  O   UNL     1       1.392  10.045  19.161  0.00  0.00    +0.000 OA
BRANCH  15  16
ATOM     16  C   UNL     1       1.761   8.721  19.247  0.00  0.00    +0.000 A 
ATOM     17  C   UNL     1       1.502   8.061  20.451  0.00  0.00    +0.000 A 
ATOM     18  C   UNL     1       1.744   6.687  20.575  0.00  0.00    +0.000 A 
ATOM     19  C   UNL     1       2.232   5.958  19.480  0.00  0.00    +0.000 A 
ATOM     20  C   UNL     1       2.510   6.628  18.278  0.00  0.00    +0.000 A 
ATOM     21  C   UNL     1       2.269   8.001  18.164  0.00  0.00    +0.000 A 
BRANCH  19  22
ATOM     22  N   UNL     1       2.417   4.556  19.556  0.00  0.00    +0.000 N 
ATOM     23  C   UNL     1       3.579   3.829  19.630  0.00  0.00    +0.000 A 
ATOM     24  N   UNL     1       3.292   2.551  19.723  0.00  0.00    +0.000 NA
ATOM     25  N   UNL     1       1.924   2.477  19.708  0.00  0.00    +0.000 NA
ATOM     26  N   UNL     1       1.383   3.683  19.610  0.00  0.00    +0.000 NA
ENDBRANCH  19  22
ENDBRANCH  15  16
ENDBRANCH   8  15
TORSDOF 3
ENDMDL
MODEL 3
REMARK VINA RESULT:      -7.3      2.359      8.452
REMARK  Name = 
REMARK  6 active torsions:
REMARK  status: ('A' for Active; 'I' for Inactive)
REMARK    1  A    between atoms: C_1  and  N_2
REMARK    2  A    between atoms: C_8  and  O_9
REMARK    3  A    between atoms: O_9  and  C_10
REMARK    4  A    between atoms: C_13  and  N_14
REMARK    5  A    between atoms: N_21  and  C_22
REMARK    6  A    between atoms: N_23  and  C_24
REMARK                            x       y       z     vdW  Elec       q    Type
REMARK                         _______ _______ _______ _____ _____    ______ ____
ROOT
ATOM      1  C   UNL     1       3.449   3.011  20.100  0.00  0.00    +0.000 C 
ATOM      2  N   UNL     1       3.319   4.339  19.529  0.00  0.00    +0.000 N 
ATOM      3  C   UNL     1       2.536   5.274  20.211  0.00  0.00    +0.000 A 
ATOM      4  O   UNL     1       1.953   5.051  21.267  0.00  0.00    +0.000 OA
ATOM      5  C   UNL     1       2.485   6.534  19.553  0.00  0.00    +0.000 A 
ATOM      6  C   UNL     1       3.142   6.801  18.392  0.00  0.00    +0.000 A 
ATOM      7  N   UNL     1       2.954   8.085  17.982  0.00  0.00    +0.000 NA
ATOM      8  C   UNL     1       2.170   8.616  18.904  0.00  0.00    +0.000 A 
ATOM      9  N   UNL     1       1.838   7.697  19.871  0.00  0.00    +0.000 N 
ATOM     10  C   UNL     1       1.014   7.906  21.035  0.00  0.00    +0.000 C 
ATOM     11  N   UNL     1       3.901   5.845  17.760  0.00  0.00    +0.000 N 
ATOM     12  C   UNL     1       4.591   6.117  16.517  0.00  0.00    +0.000 C 
ATOM     13  C   UNL     1       4.003   4.568  18.319  0.00  0.00    +0.000 A 
ATOM     14  O   UNL     1       4.666   3.679  17.778  0.00  0.00    +0.000 OA
ENDROOT
BRANCH   8  15
ATOM     15  O   UNL     1       1.716   9.870  18.913  0.00  0.00    +0.000 OA
BRANCH  15  16
ATOM     16  C   UNL     1       0.379  10.145  18.727  0.00  0.00    +0.000 A 
ATOM     17  C   UNL     1      -0.218  11.048  19.609  0.00  0.00    +0.000 A 
ATOM     18  C   UNL     1      -1.542  11.464  19.414  0.00  0.00    +0.000 A 
ATOM     19  C   UNL     1      -2.272  10.987  18.315  0.00  0.00    +0.000 A 
ATOM     20  C   UNL     1      -1.676  10.064  17.442  0.00  0.00    +0.000 A 
ATOM     21  C   UNL     1      -0.355   9.651  17.646  0.00  0.00    +0.000 A 
BRANCH  19  22
ATOM     22  N   UNL     1      -3.587  11.445  18.054  0.00  0.00    +0.000 N 
ATOM     23  C   UNL     1      -4.338  11.347  16.910  0.00  0.00    +0.000 A 
ATOM     24  N   UNL     1      -5.522  11.875  17.115  0.00  0.00    +0.000 NA
ATOM     25  N   UNL     1      -5.512  12.313  18.413  0.00  0.00    +0.000 NA
ATOM     26  N   UNL     1      -4.348  12.057  18.993  0.00  0.00    +0.000 NA
ENDBRANCH  19  22
ENDBRANCH  15  16
ENDBRANCH   8  15
TORSDOF 3
ENDMDL
MODEL 4
REMARK VINA RESULT:      -7.2      0.958      1.359
REMARK  Name = 
REMARK  6 active torsions:
REMARK  status: ('A' for Active; 'I' for Inactive)
REMARK    1  A    between atoms: C_1  and  N_2
REMARK    2  A    between atoms: C_8  and  O_9
REMARK    3  A    between atoms: O_9  and  C_10
REMARK    4  A    between atoms: C_13  and  N_14
REMARK    5  A    between atoms: N_21  and  C_22
REMARK    6  A    between atoms: N_23  and  C_24
REMARK                            x       y       z     vdW  Elec       q    Type
REMARK                         _______ _______ _______ _____ _____    ______ ____
ROOT
ATOM      1  C   UNL     1      -5.700  12.813  18.876  0.00  0.00    +0.000 C 
ATOM      2  N   UNL     1      -4.409  12.173  18.705  0.00  0.00    +0.000 N 
ATOM      3  C   UNL     1      -3.483  12.272  19.745  0.00  0.00    +0.000 A 
ATOM      4  O   UNL     1      -3.688  12.861  20.803  0.00  0.00    +0.000 OA
ATOM      5  C   UNL     1      -2.259  11.608  19.459  0.00  0.00    +0.000 A 
ATOM      6  C   UNL     1      -2.023  10.936  18.300  0.00  0.00    +0.000 A 
ATOM      7  N   UNL     1      -0.788  10.366  18.280  0.00  0.00    +0.000 NA
ATOM      8  C   UNL     1      -0.254  10.692  19.444  0.00  0.00    +0.000 A 
ATOM      9  N   UNL     1      -1.109  11.472  20.188  0.00  0.00    +0.000 N 
ATOM     10  C   UNL     1      -0.882  12.010  21.505  0.00  0.00    +0.000 C 
ATOM     11  N   UNL     1      -2.970  10.867  17.305  0.00  0.00    +0.000 N 
ATOM     12  C   UNL     1      -2.723  10.166  16.062  0.00  0.00    +0.000 C 
ATOM     13  C   UNL     1      -4.202  11.501  17.484  0.00  0.00    +0.000 A 
ATOM     14  O   UNL     1      -5.075  11.471  16.612  0.00  0.00    +0.000 OA
ENDROOT
BRANCH   8  15
ATOM     15  O   UNL     1       0.964  10.351  19.866  0.00  0.00    +0.000 OA
BRANCH  15  16
ATOM     16  C   UNL     1       1.606   9.240  19.366  0.00  0.00    +0.000 A 
ATOM     17  C   UNL     1       1.678   8.116  20.193  0.00  0.00    +0.000 A 
ATOM     18  C   UNL     1       2.215   6.913  19.713  0.00  0.00    +0.000 A 
ATOM     19  C   UNL     1       2.666   6.826  18.388  0.00  0.00    +0.000 A 
ATOM     20  C   UNL     1       2.611   7.962  17.566  0.00  0.00    +0.000 A 
ATOM     21  C   UNL     1       2.078   9.160  18.054  0.00  0.00    +0.000 A 
BRANCH  19  22
ATOM     22  N   UNL     1       3.147   5.604  17.856  0.00  0.00    +0.000 N 
ATOM     23  C   UNL     1       2.622   4.339  17.956  0.00  0.00    +0.000 A 
ATOM     24  N   UNL     1       3.371   3.499  17.278  0.00  0.00    +0.000 NA
ATOM     25  N   UNL     1       4.383   4.253  16.745  0.00  0.00    +0.000 NA
ATOM     26  N   UNL     1       4.258   5.528  17.085  0.00  0.00    +0.000 NA
ENDBRANCH  19  22
ENDBRANCH  15  16
ENDBRANCH   8  15
TORSDOF 3
ENDMDL
MODEL 5
REMARK VINA RESULT:      -7.0      1.542      3.064
REMARK  Name = 
REMARK  6 active torsions:
REMARK  status: ('A' for Active; 'I' for Inactive)
REMARK    1  A    between atoms: C_1  and  N_2
REMARK    2  A    between atoms: C_8  and  O_9
REMARK    3  A    between atoms: O_9  and  C_10
REMARK    4  A    between atoms: C_13  and  N_14
REMARK    5  A    between atoms: N_21  and  C_22
REMARK    6  A    between atoms: N_23  and  C_24
REMARK                            x       y       z     vdW  Elec       q    Type
REMARK                         _______ _______ _______ _____ _____    ______ ____
ROOT
ATOM      1  C   UNL     1      -6.731  11.554  18.614  0.00  0.00    +0.000 C 
ATOM      2  N   UNL     1      -5.331  11.764  18.930  0.00  0.00    +0.000 N 
ATOM      3  C   UNL     1      -4.375  11.121  18.141  0.00  0.00    +0.000 A 
ATOM      4  O   UNL     1      -4.638  10.392  17.190  0.00  0.00    +0.000 OA
ATOM      5  C   UNL     1      -3.042  11.403  18.550  0.00  0.00    +0.000 A 
ATOM      6  C   UNL     1      -2.735  12.224  19.591  0.00  0.00    +0.000 A 
ATOM      7  N   UNL     1      -1.391  12.351  19.763  0.00  0.00    +0.000 NA
ATOM      8  C   UNL     1      -0.863  11.597  18.815  0.00  0.00    +0.000 A 
ATOM      9  N   UNL     1      -1.836  10.979  18.064  0.00  0.00    +0.000 N 
ATOM     10  C   UNL     1      -1.648  10.092  16.943  0.00  0.00    +0.000 C 
ATOM     11  N   UNL     1      -3.715  12.834  20.337  0.00  0.00    +0.000 N 
ATOM     12  C   UNL     1      -3.397  13.698  21.455  0.00  0.00    +0.000 C 
ATOM     13  C   UNL     1      -5.058  12.609  20.024  0.00  0.00    +0.000 A 
ATOM     14  O   UNL     1      -5.967  13.130  20.675  0.00  0.00    +0.000 OA
ENDROOT
BRANCH   8  15
ATOM     15  O   UNL     1       0.440  11.412  18.600  0.00  0.00    +0.000 OA
BRANCH  15  16
ATOM     16  C   UNL     1       1.045  10.208  18.884  0.00  0.00    +0.000 A 
ATOM     17  C   UNL     1       0.843   9.674  20.159  0.00  0.00    +0.000 A 
ATOM     18  C   UNL     1       1.331   8.401  20.483  0.00  0.00    +0.000 A 
ATOM     19  C   UNL     1       2.013   7.645  19.518  0.00  0.00    +0.000 A 
ATOM     20  C   UNL     1       2.232   8.192  18.245  0.00  0.00    +0.000 A 
ATOM     21  C   UNL     1       1.745   9.465  17.931  0.00  0.00    +0.000 A 
BRANCH  19  22
ATOM     22  N   UNL     1       2.454   6.328  19.797  0.00  0.00    +0.000 N 
ATOM     23  C   UNL     1       3.566   5.663  19.345  0.00  0.00    +0.000 A 
ATOM     24  N   UNL     1       3.612   4.466  19.885  0.00  0.00    +0.000 NA
ATOM     25  N   UNL     1       2.506   4.381  20.690  0.00  0.00    +0.000 NA
ATOM     26  N   UNL     1       1.799   5.501  20.648  0.00  0.00    +0.000 NA
ENDBRANCH  19  22
ENDBRANCH  15  16
ENDBRANCH   8  15
TORSDOF 3
ENDMDL
MODEL 6
REMARK VINA RESULT:      -6.9      1.408      2.890
REMARK  Name = 
REMARK  6 active torsions:
REMARK  status: ('A' for Active; 'I' for Inactive)
REMARK    1  A    between atoms: C_1  and  N_2
REMARK    2  A    between atoms: C_8  and  O_9
REMARK    3  A    between atoms: O_9  and  C_10
REMARK    4  A    between atoms: C_13  and  N_14
REMARK    5  A    between atoms: N_21  and  C_22
REMARK    6  A    between atoms: N_23  and  C_24
REMARK                            x       y       z     vdW  Elec       q    Type
REMARK                         _______ _______ _______ _____ _____    ______ ____
ROOT
ATOM      1  C   UNL     1      -5.511  12.874  20.365  0.00  0.00    +0.000 C 
ATOM      2  N   UNL     1      -4.091  12.575  20.381  0.00  0.00    +0.000 N 
ATOM      3  C   UNL     1      -3.545  11.922  19.274  0.00  0.00    +0.000 A 
ATOM      4  O   UNL     1      -4.184  11.587  18.281  0.00  0.00    +0.000 OA
ATOM      5  C   UNL     1      -2.149  11.683  19.408  0.00  0.00    +0.000 A 
ATOM      6  C   UNL     1      -1.424  12.065  20.494  0.00  0.00    +0.000 A 
ATOM      7  N   UNL     1      -0.107  11.745  20.368  0.00  0.00    +0.000 NA
ATOM      8  C   UNL     1      -0.020  11.158  19.187  0.00  0.00    +0.000 A 
ATOM      9  N   UNL     1      -1.249  11.076  18.575  0.00  0.00    +0.000 N 
ATOM     10  C   UNL     1      -1.550  10.512  17.283  0.00  0.00    +0.000 C 
ATOM     11  N   UNL     1      -2.010  12.707  21.559  0.00  0.00    +0.000 N 
ATOM     12  C   UNL     1      -1.248  13.104  22.725  0.00  0.00    +0.000 C 
ATOM     13  C   UNL     1      -3.381  12.974  21.530  0.00  0.00    +0.000 A 
ATOM     14  O   UNL     1      -3.947  13.539  22.470  0.00  0.00    +0.000 OA
ENDROOT
BRANCH   8  15
ATOM     15  O   UNL     1       1.093  10.669  18.640  0.00  0.00    +0.000 OA
BRANCH  15  16
ATOM     16  C   UNL     1       1.480   9.364  18.856  0.00  0.00    +0.000 A 
ATOM     17  C   UNL     1       2.102   8.698  17.798  0.00  0.00    +0.000 A 
ATOM     18  C   UNL     1       2.625   7.410  17.978  0.00  0.00    +0.000 A 
ATOM     19  C   UNL     1       2.543   6.788  19.233  0.00  0.00    +0.000 A 
ATOM     20  C   UNL     1       1.898   7.452  20.288  0.00  0.00    +0.000 A 
ATOM     21  C   UNL     1       1.376   8.736  20.099  0.00  0.00    +0.000 A 
BRANCH  19  22
ATOM     22  N   UNL     1       3.126   5.517  19.461  0.00  0.00    +0.000 N 
ATOM     23  C   UNL     1       2.588   4.401  20.051  0.00  0.00    +0.000 A 
ATOM     24  N   UNL     1       3.467   3.425  20.023  0.00  0.00    +0.000 NA
ATOM     25  N   UNL     1       4.574   3.940  19.404  0.00  0.00    +0.000 NA
ATOM     26  N   UNL     1       4.380   5.205  19.057  0.00  0.00    +0.000 NA
ENDBRANCH  19  22
ENDBRANCH  15  16
ENDBRANCH   8  15
TORSDOF 3
ENDMDL
MODEL 7
REMARK VINA RESULT:      -6.9      1.240      1.417
REMARK  Name = 
REMARK  6 active torsions:
REMARK  status: ('A' for Active; 'I' for Inactive)
REMARK    1  A    between atoms: C_1  and  N_2
REMARK    2  A    between atoms: C_8  and  O_9
REMARK    3  A    between atoms: O_9  and  C_10
REMARK    4  A    between atoms: C_13  and  N_14
REMARK    5  A    between atoms: N_21  and  C_22
REMARK    6  A    between atoms: N_23  and  C_24
REMARK                            x       y       z     vdW  Elec       q    Type
REMARK                         _______ _______ _______ _____ _____    ______ ____
ROOT
ATOM      1  C   UNL     1      -4.285  13.355  21.112  0.00  0.00    +0.000 C 
ATOM      2  N   UNL     1      -3.347  12.630  20.275  0.00  0.00    +0.000 N 
ATOM      3  C   UNL     1      -2.031  12.501  20.724  0.00  0.00    +0.000 A 
ATOM      4  O   UNL     1      -1.611  12.955  21.784  0.00  0.00    +0.000 OA
ATOM      5  C   UNL     1      -1.209  11.772  19.819  0.00  0.00    +0.000 A 
ATOM      6  C   UNL     1      -1.664  11.247  18.650  0.00  0.00    +0.000 A 
ATOM      7  N   UNL     1      -0.691  10.574  17.977  0.00  0.00    +0.000 NA
ATOM      8  C   UNL     1       0.380  10.688  18.744  0.00  0.00    +0.000 A 
ATOM      9  N   UNL     1       0.115  11.433  19.869  0.00  0.00    +0.000 N 
ATOM     10  C   UNL     1       1.025  11.763  20.937  0.00  0.00    +0.000 C 
ATOM     11  N   UNL     1      -2.972  11.402  18.253  0.00  0.00    +0.000 N 
ATOM     12  C   UNL     1      -3.461  10.858  17.004  0.00  0.00    +0.000 C 
ATOM     13  C   UNL     1      -3.856  12.115  19.067  0.00  0.00    +0.000 A 
ATOM     14  O   UNL     1      -5.035  12.285  18.743  0.00  0.00    +0.000 OA
ENDROOT
BRANCH   8  15
ATOM     15  O   UNL     1       1.585  10.183  18.480  0.00  0.00    +0.000 OA
BRANCH  15  16
ATOM     16  C   UNL     1       1.848   8.841  18.649  0.00  0.00    +0.000 A 
ATOM     17  C   UNL     1       2.472   8.173  17.593  0.00  0.00    +0.000 A 
ATOM     18  C   UNL     1       2.874   6.838  17.733  0.00  0.00    +0.000 A 
ATOM     19  C   UNL     1       2.668   6.168  18.949  0.00  0.00    +0.000 A 
ATOM     20  C   UNL     1       2.023   6.836  20.001  0.00  0.00    +0.000 A 
ATOM     21  C   UNL     1       1.621   8.168  19.851  0.00  0.00    +0.000 A 
BRANCH  19  22
ATOM     22  N   UNL     1       3.128   4.842  19.142  0.00  0.00    +0.000 N 
ATOM     23  C   UNL     1       3.655   3.957  18.235  0.00  0.00    +0.000 A 
ATOM     24  N   UNL     1       3.987   2.845  18.849  0.00  0.00    +0.000 NA
ATOM     25  N   UNL     1       3.662   3.038  20.166  0.00  0.00    +0.000 NA
ATOM     26  N   UNL     1       3.144   4.243  20.357  0.00  0.00    +0.000 NA
ENDBRANCH  19  22
ENDBRANCH  15  16
ENDBRANCH   8  15
TORSDOF 3
ENDMDL
MODEL 8
REMARK VINA RESULT:      -6.9      1.501      1.893
REMARK  Name = 
REMARK  6 active torsions:
REMARK  status: ('A' for Active; 'I' for Inactive)
REMARK    1  A    between atoms: C_1  and  N_2
REMARK    2  A    between atoms: C_8  and  O_9
REMARK    3  A    between atoms: O_9  and  C_10
REMARK    4  A    between atoms: C_13  and  N_14
REMARK    5  A    between atoms: N_21  and  C_22
REMARK    6  A    between atoms: N_23  and  C_24
REMARK                            x       y       z     vdW  Elec       q    Type
REMARK                         _______ _______ _______ _____ _____    ______ ____
ROOT
ATOM      1  C   UNL     1      -6.361  13.338  20.490  0.00  0.00    +0.000 C 
ATOM      2  N   UNL     1      -5.113  12.808  19.973  0.00  0.00    +0.000 N 
ATOM      3  C   UNL     1      -3.967  12.937  20.760  0.00  0.00    +0.000 A 
ATOM      4  O   UNL     1      -3.942  13.465  21.868  0.00  0.00    +0.000 OA
ATOM      5  C   UNL     1      -2.811  12.381  20.146  0.00  0.00    +0.000 A 
ATOM      6  C   UNL     1      -2.826  11.776  18.928  0.00  0.00    +0.000 A 
ATOM      7  N   UNL     1      -1.600  11.304  18.575  0.00  0.00    +0.000 NA
ATOM      8  C   UNL     1      -0.817  11.624  19.591  0.00  0.00    +0.000 A 
ATOM      9  N   UNL     1      -1.510  12.305  20.564  0.00  0.00    +0.000 N 
ATOM     10  C   UNL     1      -1.001  12.807  21.816  0.00  0.00    +0.000 C 
ATOM     11  N   UNL     1      -3.983  11.673  18.191  0.00  0.00    +0.000 N 
ATOM     12  C   UNL     1      -4.005  11.044  16.888  0.00  0.00    +0.000 C 
ATOM     13  C   UNL     1      -5.171  12.202  18.702  0.00  0.00    +0.000 A 
ATOM     14  O   UNL     1      -6.228  12.140  18.069  0.00  0.00    +0.000 OA
ENDROOT
BRANCH   8  15
ATOM     15  O   UNL     1       0.487  11.362  19.683  0.00  0.00    +0.000 OA
BRANCH  15  16
ATOM     16  C   UNL     1       0.985  10.111  19.392  0.00  0.00    +0.000 A 
ATOM     17  C   UNL     1       1.483   9.904  18.104  0.00  0.00    +0.000 A 
ATOM     18  C   UNL     1       2.109   8.695  17.769  0.00  0.00    +0.000 A 
ATOM     19  C   UNL     1       2.256   7.689  18.736  0.00  0.00    +0.000 A 
ATOM     20  C   UNL     1       1.736   7.893  20.024  0.00  0.00    +0.000 A 
ATOM     21  C   UNL     1       1.109   9.101  20.349  0.00  0.00    +0.000 A 
BRANCH  19  22
ATOM     22  N   UNL     1       2.947   6.487  18.445  0.00  0.00    +0.000 N 
ATOM     23  C   UNL     1       4.162   6.302  17.835  0.00  0.00    +0.000 A 
ATOM     24  N   UNL     1       4.443   5.019  17.799  0.00  0.00    +0.000 NA
ATOM     25  N   UNL     1       3.384   4.391  18.398  0.00  0.00    +0.000 NA
ATOM     26  N   UNL     1       2.472   5.268  18.796  0.00  0.00    +0.000 NA
ENDBRANCH  19  22
ENDBRANCH  15  16
ENDBRANCH   8  15
TORSDOF 3
ENDMDL
MODEL 9
REMARK VINA RESULT:      -6.9      1.522      3.071
REMARK  Name = 
REMARK  6 active torsions:
REMARK  status: ('A' for Active; 'I' for Inactive)
REMARK    1  A    between atoms: C_1  and  N_2
REMARK    2  A    between atoms: C_8  and  O_9
REMARK    3  A    between atoms: O_9  and  C_10
REMARK    4  A    between atoms: C_13  and  N_14
REMARK    5  A    between atoms: N_21  and  C_22
REMARK    6  A    between atoms: N_23  and  C_24
REMARK                            x       y       z     vdW  Elec       q    Type
REMARK                         _______ _______ _______ _____ _____    ______ ____
ROOT
ATOM      1  C   UNL     1      -5.589  12.738  20.003  0.00  0.00    +0.000 C 
ATOM      2  N   UNL     1      -4.156  12.510  19.998  0.00  0.00    +0.000 N 
ATOM      3  C   UNL     1      -3.618  11.730  18.972  0.00  0.00    +0.000 A 
ATOM      4  O   UNL     1      -4.274  11.228  18.065  0.00  0.00    +0.000 OA
ATOM      5  C   UNL     1      -2.207  11.578  19.077  0.00  0.00    +0.000 A 
ATOM      6  C   UNL     1      -1.463  12.145  20.065  0.00  0.00    +0.000 A 
ATOM      7  N   UNL     1      -0.137  11.872  19.929  0.00  0.00    +0.000 NA
ATOM      8  C   UNL     1      -0.064  11.125  18.840  0.00  0.00    +0.000 A 
ATOM      9  N   UNL     1      -1.308  10.900  18.300  0.00  0.00    +0.000 N 
ATOM     10  C   UNL     1      -1.627  10.144  17.115  0.00  0.00    +0.000 C 
ATOM     11  N   UNL     1      -2.043  12.905  21.054  0.00  0.00    +0.000 N 
ATOM     12  C   UNL     1      -1.260  13.499  22.117  0.00  0.00    +0.000 C 
ATOM     13  C   UNL     1      -3.426  13.102  21.048  0.00  0.00    +0.000 A 
ATOM     14  O   UNL     1      -3.985  13.769  21.922  0.00  0.00    +0.000 OA
ENDROOT
BRANCH   8  15
ATOM     15  O   UNL     1       1.052  10.615  18.319  0.00  0.00    +0.000 OA
BRANCH  15  16
ATOM     16  C   UNL     1       1.523   9.381  18.711  0.00  0.00    +0.000 A 
ATOM     17  C   UNL     1       1.325   9.014  20.044  0.00  0.00    +0.000 A 
ATOM     18  C   UNL     1       1.672   7.731  20.489  0.00  0.00    +0.000 A 
ATOM     19  C   UNL     1       2.206   6.798  19.588  0.00  0.00    +0.000 A 
ATOM     20  C   UNL     1       2.423   7.176  18.254  0.00  0.00    +0.000 A 
ATOM     21  C   UNL     1       2.076   8.460  17.819  0.00  0.00    +0.000 A 
BRANCH  19  22
ATOM     22  N   UNL     1       2.500   5.473  19.994  0.00  0.00    +0.000 N 
ATOM     23  C   UNL     1       3.520   4.642  19.602  0.00  0.00    +0.000 A 
ATOM     24  N   UNL     1       3.439   3.508  20.259  0.00  0.00    +0.000 NA
ATOM     25  N   UNL     1       2.347   3.631  21.077  0.00  0.00    +0.000 NA
ATOM     26  N   UNL     1       1.771   4.815  20.928  0.00  0.00    +0.000 NA
ENDBRANCH  19  22
ENDBRANCH  15  16
ENDBRANCH   8  15
TORSDOF 3
ENDMDL
