MODEL 1
REMARK VINA RESULT:      -7.8      0.000      0.000
REMARK  Name = 
REMARK  14 active torsions:
REMARK  status: ('A' for Active; 'I' for Inactive)
REMARK    1  A    between atoms: C_1  and  O_2
REMARK    2  A    between atoms: O_2  and  C_3
REMARK    3  A    between atoms: C_5  and  N_6
REMARK    4  A    between atoms: N_6  and  C_7
REMARK    5  A    between atoms: C_7  and  N_9
REMARK    6  A    between atoms: N_9  and  C_10
REMARK    7  A    between atoms: C_10  and  C_11
REMARK    8  A    between atoms: C_11  and  C_12
REMARK    9  A    between atoms: C_12  and  N_13
REMARK   10  A    between atoms: C_17  and  C_18
REMARK   11  A    between atoms: C_21  and  O_22
REMARK   12  A    between atoms: O_22  and  C_23
REMARK   13  A    between atoms: C_23  and  C_24
REMARK   14  A    between atoms: C_27  and  N_28
REMARK                            x       y       z     vdW  Elec       q    Type
REMARK                         _______ _______ _______ _____ _____    ______ ____
ROOT
ATOM      1  C   UNL     1       7.014   5.474  16.807  0.00  0.00    +0.000 A 
ATOM      2  C   UNL     1       6.045   4.455  16.827  0.00  0.00    +0.000 A 
ATOM      3  C   UNL     1       5.370   4.127  18.007  0.00  0.00    +0.000 A 
ATOM      4  C   UNL     1       5.750   4.711  19.199  0.00  0.00    +0.000 A 
ATOM      5  C   UNL     1       6.659   5.748  19.183  0.00  0.00    +0.000 A 
ATOM      6  C   UNL     1       7.299   6.150  18.001  0.00  0.00    +0.000 A 
ENDROOT
BRANCH   1   8
ATOM      7  C   UNL     1       7.075   4.900  14.468  0.00  0.00    +0.000 C 
ATOM      8  O   UNL     1       7.515   5.705  15.555  0.00  0.00    +0.000 OA
ENDBRANCH   1   8
BRANCH   3   9
ATOM      9  N   UNL     1       4.327   3.190  17.988  0.00  0.00    +0.000 N 
ATOM     10  H   UNL     1       3.712   3.218  17.185  0.00  0.00    +0.000 HD
BRANCH   9  11
ATOM     11  C   UNL     1       3.802   2.517  19.069  0.00  0.00    +0.000 C 
ATOM     12  S   UNL     1       4.610   1.752  20.317  0.00  0.00    +0.000 S 
BRANCH  11  13
ATOM     13  N   UNL     1       2.434   2.509  19.108  0.00  0.00    +0.000 N 
ATOM     14  H   UNL     1       1.999   2.635  18.198  0.00  0.00    +0.000 HD
BRANCH  13  15
ATOM     15  C   UNL     1       1.648   2.806  20.293  0.00  0.00    +0.000 C 
BRANCH  15  16
ATOM     16  C   UNL     1       1.004   4.199  20.271  0.00  0.00    +0.000 C 
BRANCH  16  17
ATOM     17  C   UNL     1       1.945   5.280  20.797  0.00  0.00    +0.000 C 
BRANCH  17  18
ATOM     18  N   UNL     1       2.084   6.398  19.882  0.00  0.00    +0.000 N 
ATOM     19  C   UNL     1       2.499   6.292  18.583  0.00  0.00    +0.000 A 
ATOM     20  N   UNL     1       2.511   7.459  17.981  0.00  0.00    +0.000 NA
ATOM     21  C   UNL     1       2.064   8.351  18.919  0.00  0.00    +0.000 A 
ATOM     22  C   UNL     1       1.778   7.718  20.114  0.00  0.00    +0.000 A 
ATOM     23  C   UNL     1       1.251   8.256  21.387  0.00  0.00    +0.000 C 
ENDBRANCH  17  18
ENDBRANCH  16  17
ENDBRANCH  15  16
ENDBRANCH  13  15
ENDBRANCH  11  13
ENDBRANCH   9  11
ENDBRANCH   3   9
BRANCH   6  24
ATOM     24  O   UNL     1       8.177   7.205  18.015  0.00  0.00    +0.000 OA
BRANCH  24  25
ATOM     25  C   UNL     1       7.571   8.425  17.572  0.00  0.00    +0.000 C 
BRANCH  25  26
ATOM     26  C   UNL     1       8.276   9.620  18.111  0.00  0.00    +0.000 A 
ATOM     27  C   UNL     1       9.137   9.505  19.197  0.00  0.00    +0.000 A 
ATOM     28  C   UNL     1       9.797  10.627  19.660  0.00  0.00    +0.000 A 
ATOM     29  C   UNL     1       9.624  11.894  19.064  0.00  0.00    +0.000 A 
ATOM     30  C   UNL     1       8.797  11.967  17.933  0.00  0.00    +0.000 A 
ATOM     31  C   UNL     1       8.131  10.846  17.458  0.00  0.00    +0.000 A 
BRANCH  29  32
ATOM     32  N   UNL     1      10.268  12.978  19.598  0.00  0.00    +0.000 N 
ATOM     33  C   UNL     1      10.503  14.217  18.831  0.00  0.00    +0.000 C 
ATOM     34  C   UNL     1       9.691  15.394  19.405  0.00  0.00    +0.000 C 
ATOM     35  N   UNL     1       9.870  15.580  20.860  0.00  0.00    +0.000 NA
ATOM     36  C   UNL     1       9.523  14.321  21.548  0.00  0.00    +0.000 C 
ATOM     37  C   UNL     1      10.344  13.111  21.056  0.00  0.00    +0.000 C 
ATOM     38  H   UNL     1       9.249  16.317  21.182  0.00  0.00    +0.000 HD
ENDBRANCH  29  32
ENDBRANCH  25  26
ENDBRANCH  24  25
ENDBRANCH   6  24
TORSDOF 12
ENDMDL
MODEL 2
REMARK VINA RESULT:      -7.5      5.055      9.496
REMARK  Name = 
REMARK  14 active torsions:
REMARK  status: ('A' for Active; 'I' for Inactive)
REMARK    1  A    between atoms: C_1  and  O_2
REMARK    2  A    between atoms: O_2  and  C_3
REMARK    3  A    between atoms: C_5  and  N_6
REMARK    4  A    between atoms: N_6  and  C_7
REMARK    5  A    between atoms: C_7  and  N_9
REMARK    6  A    between atoms: N_9  and  C_10
REMARK    7  A    between atoms: C_10  and  C_11
REMARK    8  A    between atoms: C_11  and  C_12
REMARK    9  A    between atoms: C_12  and  N_13
REMARK   10  A    between atoms: C_17  and  C_18
REMARK   11  A    between atoms: C_21  and  O_22
REMARK   12  A    between atoms: O_22  and  C_23
REMARK   13  A    between atoms: C_23  and  C_24
REMARK   14  A    between atoms: C_27  and  N_28
REMARK                            x       y       z     vdW  Elec       q    Type
REMARK                         _______ _______ _______ _____ _____    ______ ____
ROOT
ATOM      1  C   UNL     1       2.117   8.271  18.553  0.00  0.00    +0.000 A 
ATOM      2  C   UNL     1       2.537   7.089  19.189  0.00  0.00    +0.000 A 
ATOM      3  C   UNL     1       2.030   6.727  20.441  0.00  0.00    +0.000 A 
ATOM      4  C   UNL     1       1.211   7.601  21.128  0.00  0.00    +0.000 A 
ATOM      5  C   UNL     1       0.750   8.735  20.492  0.00  0.00    +0.000 A 
ATOM      6  C   UNL     1       1.184   9.088  19.206  0.00  0.00    +0.000 A 
ENDROOT
BRANCH   1   8
ATOM      7  C   UNL     1       3.773   7.622  16.928  0.00  0.00    +0.000 C 
ATOM      8  O   UNL     1       2.662   8.424  17.307  0.00  0.00    +0.000 OA
ENDBRANCH   1   8
BRANCH   3   9
ATOM      9  N   UNL     1       2.369   5.493  21.011  0.00  0.00    +0.000 N 
ATOM     10  H   UNL     1       3.212   5.472  21.571  0.00  0.00    +0.000 HD
BRANCH   9  11
ATOM     11  C   UNL     1       1.942   4.248  20.602  0.00  0.00    +0.000 C 
ATOM     12  S   UNL     1       1.697   2.873  21.521  0.00  0.00    +0.000 S 
BRANCH  11  13
ATOM     13  N   UNL     1       1.670   4.167  19.263  0.00  0.00    +0.000 N 
ATOM     14  H   UNL     1       0.915   4.776  18.961  0.00  0.00    +0.000 HD
BRANCH  13  15
ATOM     15  C   UNL     1       2.010   3.027  18.427  0.00  0.00    +0.000 C 
BRANCH  15  16
ATOM     16  C   UNL     1       3.520   2.842  18.226  0.00  0.00    +0.000 C 
BRANCH  16  17
ATOM     17  C   UNL     1       4.135   3.966  17.394  0.00  0.00    +0.000 C 
BRANCH  17  18
ATOM     18  N   UNL     1       5.343   4.509  17.990  0.00  0.00    +0.000 N 
ATOM     19  C   UNL     1       5.475   4.845  19.309  0.00  0.00    +0.000 A 
ATOM     20  N   UNL     1       6.681   5.290  19.577  0.00  0.00    +0.000 NA
ATOM     21  C   UNL     1       7.362   5.217  18.391  0.00  0.00    +0.000 A 
ATOM     22  C   UNL     1       6.557   4.723  17.383  0.00  0.00    +0.000 A 
ATOM     23  C   UNL     1       6.856   4.444  15.961  0.00  0.00    +0.000 C 
ENDBRANCH  17  18
ENDBRANCH  16  17
ENDBRANCH  15  16
ENDBRANCH  13  15
ENDBRANCH  11  13
ENDBRANCH   9  11
ENDBRANCH   3   9
BRANCH   6  24
ATOM     24  O   UNL     1       0.683  10.207  18.590  0.00  0.00    +0.000 OA
BRANCH  24  25
ATOM     25  C   UNL     1      -0.446   9.914  17.759  0.00  0.00    +0.000 C 
BRANCH  25  26
ATOM     26  C   UNL     1      -1.663  10.649  18.201  0.00  0.00    +0.000 A 
ATOM     27  C   UNL     1      -1.608  11.530  19.276  0.00  0.00    +0.000 A 
ATOM     28  C   UNL     1      -2.747  12.217  19.647  0.00  0.00    +0.000 A 
ATOM     29  C   UNL     1      -3.973  12.051  18.970  0.00  0.00    +0.000 A 
ATOM     30  C   UNL     1      -3.983  11.202  17.853  0.00  0.00    +0.000 A 
ATOM     31  C   UNL     1      -2.844  10.509  17.469  0.00  0.00    +0.000 A 
BRANCH  29  32
ATOM     32  N   UNL     1      -5.081  12.722  19.416  0.00  0.00    +0.000 N 
ATOM     33  C   UNL     1      -6.407  12.569  18.787  0.00  0.00    +0.000 C 
ATOM     34  C   UNL     1      -7.401  11.876  19.738  0.00  0.00    +0.000 C 
ATOM     35  N   UNL     1      -7.472  12.501  21.076  0.00  0.00    +0.000 NA
ATOM     36  C   UNL     1      -6.118  12.526  21.662  0.00  0.00    +0.000 C 
ATOM     37  C   UNL     1      -5.084  13.257  20.781  0.00  0.00    +0.000 C 
ATOM     38  H   UNL     1      -8.082  11.949  21.671  0.00  0.00    +0.000 HD
ENDBRANCH  29  32
ENDBRANCH  25  26
ENDBRANCH  24  25
ENDBRANCH   6  24
TORSDOF 12
ENDMDL
MODEL 3
REMARK VINA RESULT:      -7.4      5.293      9.794
REMARK  Name = 
REMARK  14 active torsions:
REMARK  status: ('A' for Active; 'I' for Inactive)
REMARK    1  A    between atoms: C_1  and  O_2
REMARK    2  A    between atoms: O_2  and  C_3
REMARK    3  A    between atoms: C_5  and  N_6
REMARK    4  A    between atoms: N_6  and  C_7
REMARK    5  A    between atoms: C_7  and  N_9
REMARK    6  A    between atoms: N_9  and  C_10
REMARK    7  A    between atoms: C_10  and  C_11
REMARK    8  A    between atoms: C_11  and  C_12
REMARK    9  A    between atoms: C_12  and  N_13
REMARK   10  A    between atoms: C_17  and  C_18
REMARK   11  A    between atoms: C_21  and  O_22
REMARK   12  A    between atoms: O_22  and  C_23
REMARK   13  A    between atoms: C_23  and  C_24
REMARK   14  A    between atoms: C_27  and  N_28
REMARK                            x       y       z     vdW  Elec       q    Type
REMARK                         _______ _______ _______ _____ _____    ______ ____
ROOT
ATOM      1  C   UNL     1       1.003   8.870  20.354  0.00  0.00    +0.000 A 
ATOM      2  C   UNL     1       1.469   7.613  20.776  0.00  0.00    +0.000 A 
ATOM      3  C   UNL     1       2.250   6.815  19.934  0.00  0.00    +0.000 A 
ATOM      4  C   UNL     1       2.456   7.198  18.623  0.00  0.00    +0.000 A 
ATOM      5  C   UNL     1       2.051   8.452  18.215  0.00  0.00    +0.000 A 
ATOM      6  C   UNL     1       1.328   9.306  19.062  0.00  0.00    +0.000 A 
ENDROOT
BRANCH   1   8
ATOM      7  C   UNL     1       0.672   9.332  22.695  0.00  0.00    +0.000 C 
ATOM      8  O   UNL     1       0.318   9.538  21.333  0.00  0.00    +0.000 OA
ENDBRANCH   1   8
BRANCH   3   9
ATOM      9  N   UNL     1       2.803   5.617  20.408  0.00  0.00    +0.000 N 
ATOM     10  H   UNL     1       3.813   5.562  20.418  0.00  0.00    +0.000 HD
BRANCH   9  11
ATOM     11  C   UNL     1       2.177   4.392  20.487  0.00  0.00    +0.000 C 
ATOM     12  S   UNL     1       2.227   3.272  21.727  0.00  0.00    +0.000 S 
BRANCH  11  13
ATOM     13  N   UNL     1       1.402   4.093  19.399  0.00  0.00    +0.000 N 
ATOM     14  H   UNL     1       0.423   4.339  19.515  0.00  0.00    +0.000 HD
BRANCH  13  15
ATOM     15  C   UNL     1       1.747   3.097  18.398  0.00  0.00    +0.000 C 
BRANCH  15  16
ATOM     16  C   UNL     1       2.504   3.674  17.195  0.00  0.00    +0.000 C 
BRANCH  16  17
ATOM     17  C   UNL     1       3.973   3.254  17.178  0.00  0.00    +0.000 C 
BRANCH  17  18
ATOM     18  N   UNL     1       4.833   4.190  17.878  0.00  0.00    +0.000 N 
ATOM     19  C   UNL     1       5.297   4.015  19.153  0.00  0.00    +0.000 A 
ATOM     20  N   UNL     1       6.073   5.006  19.526  0.00  0.00    +0.000 NA
ATOM     21  C   UNL     1       6.134   5.842  18.443  0.00  0.00    +0.000 A 
ATOM     22  C   UNL     1       5.379   5.355  17.394  0.00  0.00    +0.000 A 
ATOM     23  C   UNL     1       5.166   5.890  16.030  0.00  0.00    +0.000 C 
ENDBRANCH  17  18
ENDBRANCH  16  17
ENDBRANCH  15  16
ENDBRANCH  13  15
ENDBRANCH  11  13
ENDBRANCH   9  11
ENDBRANCH   3   9
BRANCH   6  24
ATOM     24  O   UNL     1       0.965  10.559  18.635  0.00  0.00    +0.000 OA
BRANCH  24  25
ATOM     25  C   UNL     1       0.134  11.238  19.581  0.00  0.00    +0.000 C 
BRANCH  25  26
ATOM     26  C   UNL     1      -1.287  11.282  19.137  0.00  0.00    +0.000 A 
ATOM     27  C   UNL     1      -2.186  12.167  19.722  0.00  0.00    +0.000 A 
ATOM     28  C   UNL     1      -3.491  12.202  19.272  0.00  0.00    +0.000 A 
ATOM     29  C   UNL     1      -3.946  11.363  18.233  0.00  0.00    +0.000 A 
ATOM     30  C   UNL     1      -3.002  10.524  17.622  0.00  0.00    +0.000 A 
ATOM     31  C   UNL     1      -1.687  10.483  18.064  0.00  0.00    +0.000 A 
BRANCH  29  32
ATOM     32  N   UNL     1      -5.264  11.409  17.864  0.00  0.00    +0.000 N 
ATOM     33  C   UNL     1      -6.334  10.783  18.665  0.00  0.00    +0.000 C 
ATOM     34  C   UNL     1      -7.272  11.843  19.273  0.00  0.00    +0.000 C 
ATOM     35  N   UNL     1      -7.790  12.810  18.283  0.00  0.00    +0.000 NA
ATOM     36  C   UNL     1      -6.650  13.451  17.600  0.00  0.00    +0.000 C 
ATOM     37  C   UNL     1      -5.700  12.443  16.921  0.00  0.00    +0.000 C 
ATOM     38  H   UNL     1      -8.333  13.522  18.764  0.00  0.00    +0.000 HD
ENDBRANCH  29  32
ENDBRANCH  25  26
ENDBRANCH  24  25
ENDBRANCH   6  24
TORSDOF 12
ENDMDL
MODEL 4
REMARK VINA RESULT:      -7.4      5.137      9.313
REMARK  Name = 
REMARK  14 active torsions:
REMARK  status: ('A' for Active; 'I' for Inactive)
REMARK    1  A    between atoms: C_1  and  O_2
REMARK    2  A    between atoms: O_2  and  C_3
REMARK    3  A    between atoms: C_5  and  N_6
REMARK    4  A    between atoms: N_6  and  C_7
REMARK    5  A    between atoms: C_7  and  N_9
REMARK    6  A    between atoms: N_9  and  C_10
REMARK    7  A    between atoms: C_10  and  C_11
REMARK    8  A    between atoms: C_11  and  C_12
REMARK    9  A    between atoms: C_12  and  N_13
REMARK   10  A    between atoms: C_17  and  C_18
REMARK   11  A    between atoms: C_21  and  O_22
REMARK   12  A    between atoms: O_22  and  C_23
REMARK   13  A    between atoms: C_23  and  C_24
REMARK   14  A    between atoms: C_27  and  N_28
REMARK                            x       y       z     vdW  Elec       q    Type
REMARK                         _______ _______ _______ _____ _____    ______ ____
ROOT
ATOM      1  C   UNL     1       1.226   8.221  20.307  0.00  0.00    +0.000 A 
ATOM      2  C   UNL     1       1.731   6.965  20.689  0.00  0.00    +0.000 A 
ATOM      3  C   UNL     1       2.629   6.272  19.873  0.00  0.00    +0.000 A 
ATOM      4  C   UNL     1       2.923   6.755  18.612  0.00  0.00    +0.000 A 
ATOM      5  C   UNL     1       2.478   8.009  18.250  0.00  0.00    +0.000 A 
ATOM      6  C   UNL     1       1.634   8.761  19.080  0.00  0.00    +0.000 A 
ENDROOT
BRANCH   1   8
ATOM      7  C   UNL     1       1.009   9.487  22.345  0.00  0.00    +0.000 C 
ATOM      8  O   UNL     1       0.419   8.781  21.261  0.00  0.00    +0.000 OA
ENDBRANCH   1   8
BRANCH   3   9
ATOM      9  N   UNL     1       3.212   5.078  20.317  0.00  0.00    +0.000 N 
ATOM     10  H   UNL     1       4.219   5.077  20.414  0.00  0.00    +0.000 HD
BRANCH   9  11
ATOM     11  C   UNL     1       2.657   3.817  20.264  0.00  0.00    +0.000 C 
ATOM     12  S   UNL     1       1.072   3.361  20.540  0.00  0.00    +0.000 S 
BRANCH  11  13
ATOM     13  N   UNL     1       3.543   2.834  19.916  0.00  0.00    +0.000 N 
ATOM     14  H   UNL     1       4.325   2.744  20.559  0.00  0.00    +0.000 HD
BRANCH  13  15
ATOM     15  C   UNL     1       3.693   2.306  18.571  0.00  0.00    +0.000 C 
BRANCH  15  16
ATOM     16  C   UNL     1       3.952   3.387  17.513  0.00  0.00    +0.000 C 
BRANCH  16  17
ATOM     17  C   UNL     1       5.313   4.058  17.691  0.00  0.00    +0.000 C 
BRANCH  17  18
ATOM     18  N   UNL     1       5.977   4.325  16.428  0.00  0.00    +0.000 N 
ATOM     19  C   UNL     1       5.812   3.583  15.291  0.00  0.00    +0.000 A 
ATOM     20  N   UNL     1       6.516   4.065  14.292  0.00  0.00    +0.000 NA
ATOM     21  C   UNL     1       7.141   5.174  14.796  0.00  0.00    +0.000 A 
ATOM     22  C   UNL     1       6.816   5.371  16.124  0.00  0.00    +0.000 A 
ATOM     23  C   UNL     1       7.220   6.437  17.067  0.00  0.00    +0.000 C 
ENDBRANCH  17  18
ENDBRANCH  16  17
ENDBRANCH  15  16
ENDBRANCH  13  15
ENDBRANCH  11  13
ENDBRANCH   9  11
ENDBRANCH   3   9
BRANCH   6  24
ATOM     24  O   UNL     1       1.233  10.018  18.702  0.00  0.00    +0.000 OA
BRANCH  24  25
ATOM     25  C   UNL     1       0.076   9.991  17.859  0.00  0.00    +0.000 C 
BRANCH  25  26
ATOM     26  C   UNL     1      -1.057  10.755  18.451  0.00  0.00    +0.000 A 
ATOM     27  C   UNL     1      -0.869  11.536  19.586  0.00  0.00    +0.000 A 
ATOM     28  C   UNL     1      -1.932  12.253  20.098  0.00  0.00    +0.000 A 
ATOM     29  C   UNL     1      -3.212  12.217  19.506  0.00  0.00    +0.000 A 
ATOM     30  C   UNL     1      -3.356  11.469  18.328  0.00  0.00    +0.000 A 
ATOM     31  C   UNL     1      -2.294  10.747  17.803  0.00  0.00    +0.000 A 
BRANCH  29  32
ATOM     32  N   UNL     1      -4.239  12.911  20.088  0.00  0.00    +0.000 N 
ATOM     33  C   UNL     1      -5.655  12.649  19.766  0.00  0.00    +0.000 C 
ATOM     34  C   UNL     1      -6.404  12.054  20.974  0.00  0.00    +0.000 C 
ATOM     35  N   UNL     1      -6.236  12.837  22.216  0.00  0.00    +0.000 NA
ATOM     36  C   UNL     1      -4.795  12.967  22.506  0.00  0.00    +0.000 C 
ATOM     37  C   UNL     1      -3.996  13.609  21.354  0.00  0.00    +0.000 C 
ATOM     38  H   UNL     1      -6.687  12.348  22.984  0.00  0.00    +0.000 HD
ENDBRANCH  29  32
ENDBRANCH  25  26
ENDBRANCH  24  25
ENDBRANCH   6  24
TORSDOF 12
ENDMDL
MODEL 5
REMARK VINA RESULT:      -7.4      1.720      2.442
REMARK  Name = 
REMARK  14 active torsions:
REMARK  status: ('A' for Active; 'I' for Inactive)
REMARK    1  A    between atoms: C_1  and  O_2
REMARK    2  A    between atoms: O_2  and  C_3
REMARK    3  A    between atoms: C_5  and  N_6
REMARK    4  A    between atoms: N_6  and  C_7
REMARK    5  A    between atoms: C_7  and  N_9
REMARK    6  A    between atoms: N_9  and  C_10
REMARK    7  A    between atoms: C_10  and  C_11
REMARK    8  A    between atoms: C_11  and  C_12
REMARK    9  A    between atoms: C_12  and  N_13
REMARK   10  A    between atoms: C_17  and  C_18
REMARK   11  A    between atoms: C_21  and  O_22
REMARK   12  A    between atoms: O_22  and  C_23
REMARK   13  A    between atoms: C_23  and  C_24
REMARK   14  A    between atoms: C_27  and  N_28
REMARK                            x       y       z     vdW  Elec       q    Type
REMARK                         _______ _______ _______ _____ _____    ______ ____
ROOT
ATOM      1  C   UNL     1       6.589   6.590  17.077  0.00  0.00    +0.000 A 
ATOM      2  C   UNL     1       6.011   5.371  17.474  0.00  0.00    +0.000 A 
ATOM      3  C   UNL     1       6.368   4.766  18.684  0.00  0.00    +0.000 A 
ATOM      4  C   UNL     1       7.397   5.295  19.438  0.00  0.00    +0.000 A 
ATOM      5  C   UNL     1       7.932   6.517  19.086  0.00  0.00    +0.000 A 
ATOM      6  C   UNL     1       7.541   7.184  17.916  0.00  0.00    +0.000 A 
ENDROOT
BRANCH   1   8
ATOM      7  C   UNL     1       4.903   6.457  15.361  0.00  0.00    +0.000 C 
ATOM      8  O   UNL     1       6.067   7.066  15.904  0.00  0.00    +0.000 OA
ENDBRANCH   1   8
BRANCH   3   9
ATOM      9  N   UNL     1       5.702   3.613  19.121  0.00  0.00    +0.000 N 
ATOM     10  H   UNL     1       6.272   2.789  19.259  0.00  0.00    +0.000 HD
BRANCH   9  11
ATOM     11  C   UNL     1       4.354   3.346  19.011  0.00  0.00    +0.000 C 
ATOM     12  S   UNL     1       3.596   1.873  18.783  0.00  0.00    +0.000 S 
BRANCH  11  13
ATOM     13  N   UNL     1       3.557   4.452  19.131  0.00  0.00    +0.000 N 
ATOM     14  H   UNL     1       3.542   4.845  20.068  0.00  0.00    +0.000 HD
BRANCH  13  15
ATOM     15  C   UNL     1       2.458   4.769  18.234  0.00  0.00    +0.000 C 
BRANCH  15  16
ATOM     16  C   UNL     1       2.137   6.268  18.164  0.00  0.00    +0.000 C 
BRANCH  16  17
ATOM     17  C   UNL     1       2.704   7.039  19.354  0.00  0.00    +0.000 C 
BRANCH  17  18
ATOM     18  N   UNL     1       1.788   8.045  19.860  0.00  0.00    +0.000 N 
ATOM     19  C   UNL     1       1.244   8.040  21.115  0.00  0.00    +0.000 A 
ATOM     20  N   UNL     1       0.468   9.082  21.310  0.00  0.00    +0.000 NA
ATOM     21  C   UNL     1       0.533   9.800  20.146  0.00  0.00    +0.000 A 
ATOM     22  C   UNL     1       1.357   9.186  19.224  0.00  0.00    +0.000 A 
ATOM     23  C   UNL     1       1.751   9.596  17.858  0.00  0.00    +0.000 C 
ENDBRANCH  17  18
ENDBRANCH  16  17
ENDBRANCH  15  16
ENDBRANCH  13  15
ENDBRANCH  11  13
ENDBRANCH   9  11
ENDBRANCH   3   9
BRANCH   6  24
ATOM     24  O   UNL     1       8.072   8.413  17.610  0.00  0.00    +0.000 OA
BRANCH  24  25
ATOM     25  C   UNL     1       8.756   9.003  18.721  0.00  0.00    +0.000 C 
BRANCH  25  26
ATOM     26  C   UNL     1       9.092  10.431  18.468  0.00  0.00    +0.000 A 
ATOM     27  C   UNL     1       8.239  11.238  17.723  0.00  0.00    +0.000 A 
ATOM     28  C   UNL     1       8.564  12.566  17.526  0.00  0.00    +0.000 A 
ATOM     29  C   UNL     1       9.742  13.133  18.056  0.00  0.00    +0.000 A 
ATOM     30  C   UNL     1      10.552  12.310  18.853  0.00  0.00    +0.000 A 
ATOM     31  C   UNL     1      10.233  10.976  19.060  0.00  0.00    +0.000 A 
BRANCH  29  32
ATOM     32  N   UNL     1      10.035  14.443  17.785  0.00  0.00    +0.000 N 
ATOM     33  C   UNL     1       9.322  15.564  18.428  0.00  0.00    +0.000 C 
ATOM     34  C   UNL     1      10.253  16.359  19.363  0.00  0.00    +0.000 C 
ATOM     35  N   UNL     1      11.516  16.778  18.721  0.00  0.00    +0.000 NA
ATOM     36  C   UNL     1      12.201  15.583  18.191  0.00  0.00    +0.000 C 
ATOM     37  C   UNL     1      11.339  14.773  17.202  0.00  0.00    +0.000 C 
ATOM     38  H   UNL     1      12.111  17.224  19.413  0.00  0.00    +0.000 HD
ENDBRANCH  29  32
ENDBRANCH  25  26
ENDBRANCH  24  25
ENDBRANCH   6  24
TORSDOF 12
ENDMDL
MODEL 6
REMARK VINA RESULT:      -7.3      0.897      1.546
REMARK  Name = 
REMARK  14 active torsions:
REMARK  status: ('A' for Active; 'I' for Inactive)
REMARK    1  A    between atoms: C_1  and  O_2
REMARK    2  A    between atoms: O_2  and  C_3
REMARK    3  A    between atoms: C_5  and  N_6
REMARK    4  A    between atoms: N_6  and  C_7
REMARK    5  A    between atoms: C_7  and  N_9
REMARK    6  A    between atoms: N_9  and  C_10
REMARK    7  A    between atoms: C_10  and  C_11
REMARK    8  A    between atoms: C_11  and  C_12
REMARK    9  A    between atoms: C_12  and  N_13
REMARK   10  A    between atoms: C_17  and  C_18
REMARK   11  A    between atoms: C_21  and  O_22
REMARK   12  A    between atoms: O_22  and  C_23
REMARK   13  A    between atoms: C_23  and  C_24
REMARK   14  A    between atoms: C_27  and  N_28
REMARK                            x       y       z     vdW  Elec       q    Type
REMARK                         _______ _______ _______ _____ _____    ______ ____
ROOT
ATOM      1  C   UNL     1       6.833   5.660  16.771  0.00  0.00    +0.000 A 
ATOM      2  C   UNL     1       5.779   4.731  16.719  0.00  0.00    +0.000 A 
ATOM      3  C   UNL     1       5.052   4.402  17.868  0.00  0.00    +0.000 A 
ATOM      4  C   UNL     1       5.454   4.888  19.096  0.00  0.00    +0.000 A 
ATOM      5  C   UNL     1       6.449   5.841  19.152  0.00  0.00    +0.000 A 
ATOM      6  C   UNL     1       7.148   6.246  18.005  0.00  0.00    +0.000 A 
ENDROOT
BRANCH   1   8
ATOM      7  C   UNL     1       7.118   5.017  14.467  0.00  0.00    +0.000 C 
ATOM      8  O   UNL     1       7.380   5.911  15.542  0.00  0.00    +0.000 OA
ENDBRANCH   1   8
BRANCH   3   9
ATOM      9  N   UNL     1       3.933   3.562  17.780  0.00  0.00    +0.000 N 
ATOM     10  H   UNL     1       3.234   3.814  17.093  0.00  0.00    +0.000 HD
BRANCH   9  11
ATOM     11  C   UNL     1       3.477   2.690  18.744  0.00  0.00    +0.000 C 
ATOM     12  S   UNL     1       4.123   1.223  19.216  0.00  0.00    +0.000 S 
BRANCH  11  13
ATOM     13  N   UNL     1       2.355   3.123  19.399  0.00  0.00    +0.000 N 
ATOM     14  H   UNL     1       1.519   3.121  18.821  0.00  0.00    +0.000 HD
BRANCH  13  15
ATOM     15  C   UNL     1       2.372   3.967  20.582  0.00  0.00    +0.000 C 
BRANCH  15  16
ATOM     16  C   UNL     1       1.576   5.269  20.419  0.00  0.00    +0.000 C 
BRANCH  16  17
ATOM     17  C   UNL     1       2.452   6.428  19.947  0.00  0.00    +0.000 C 
BRANCH  17  18
ATOM     18  N   UNL     1       1.785   7.713  20.049  0.00  0.00    +0.000 N 
ATOM     19  C   UNL     1       1.161   8.178  21.174  0.00  0.00    +0.000 A 
ATOM     20  N   UNL     1       0.663   9.379  20.991  0.00  0.00    +0.000 NA
ATOM     21  C   UNL     1       0.998   9.714  19.706  0.00  0.00    +0.000 A 
ATOM     22  C   UNL     1       1.709   8.700  19.095  0.00  0.00    +0.000 A 
ATOM     23  C   UNL     1       2.299   8.618  17.740  0.00  0.00    +0.000 C 
ENDBRANCH  17  18
ENDBRANCH  16  17
ENDBRANCH  15  16
ENDBRANCH  13  15
ENDBRANCH  11  13
ENDBRANCH   9  11
ENDBRANCH   3   9
BRANCH   6  24
ATOM     24  O   UNL     1       8.113   7.218  18.091  0.00  0.00    +0.000 OA
BRANCH  24  25
ATOM     25  C   UNL     1       7.703   8.449  17.484  0.00  0.00    +0.000 C 
BRANCH  25  26
ATOM     26  C   UNL     1       8.392   9.621  18.091  0.00  0.00    +0.000 A 
ATOM     27  C   UNL     1       8.294  10.880  17.511  0.00  0.00    +0.000 A 
ATOM     28  C   UNL     1       8.923  11.953  18.111  0.00  0.00    +0.000 A 
ATOM     29  C   UNL     1       9.669  11.812  19.300  0.00  0.00    +0.000 A 
ATOM     30  C   UNL     1       9.701  10.542  19.894  0.00  0.00    +0.000 A 
ATOM     31  C   UNL     1       9.070   9.457  19.301  0.00  0.00    +0.000 A 
BRANCH  29  32
ATOM     32  N   UNL     1      10.312  12.904  19.821  0.00  0.00    +0.000 N 
ATOM     33  C   UNL     1      10.859  13.981  18.973  0.00  0.00    +0.000 C 
ATOM     34  C   UNL     1      10.094  15.302  19.181  0.00  0.00    +0.000 C 
ATOM     35  N   UNL     1       9.975  15.697  20.601  0.00  0.00    +0.000 NA
ATOM     36  C   UNL     1       9.335  14.598  21.349  0.00  0.00    +0.000 C 
ATOM     37  C   UNL     1      10.086  13.256  21.225  0.00  0.00    +0.000 C 
ATOM     38  H   UNL     1       9.395  16.528  20.669  0.00  0.00    +0.000 HD
ENDBRANCH  29  32
ENDBRANCH  25  26
ENDBRANCH  24  25
ENDBRANCH   6  24
TORSDOF 12
ENDMDL
MODEL 7
REMARK VINA RESULT:      -7.3      4.290      8.334
REMARK  Name = 
REMARK  14 active torsions:
REMARK  status: ('A' for Active; 'I' for Inactive)
REMARK    1  A    between atoms: C_1  and  O_2
REMARK    2  A    between atoms: O_2  and  C_3
REMARK    3  A    between atoms: C_5  and  N_6
REMARK    4  A    between atoms: N_6  and  C_7
REMARK    5  A    between atoms: C_7  and  N_9
REMARK    6  A    between atoms: N_9  and  C_10
REMARK    7  A    between atoms: C_10  and  C_11
REMARK    8  A    between atoms: C_11  and  C_12
REMARK    9  A    between atoms: C_12  and  N_13
REMARK   10  A    between atoms: C_17  and  C_18
REMARK   11  A    between atoms: C_21  and  O_22
REMARK   12  A    between atoms: O_22  and  C_23
REMARK   13  A    between atoms: C_23  and  C_24
REMARK   14  A    between atoms: C_27  and  N_28
REMARK                            x       y       z     vdW  Elec       q    Type
REMARK                         _______ _______ _______ _____ _____    ______ ____
ROOT
ATOM      1  C   UNL     1       2.513   7.255  19.342  0.00  0.00    +0.000 A 
ATOM      2  C   UNL     1       3.440   6.310  18.867  0.00  0.00    +0.000 A 
ATOM      3  C   UNL     1       3.500   5.024  19.414  0.00  0.00    +0.000 A 
ATOM      4  C   UNL     1       2.738   4.714  20.523  0.00  0.00    +0.000 A 
ATOM      5  C   UNL     1       1.789   5.613  20.963  0.00  0.00    +0.000 A 
ATOM      6  C   UNL     1       1.655   6.885  20.386  0.00  0.00    +0.000 A 
ENDROOT
BRANCH   1   8
ATOM      7  C   UNL     1       1.451   8.780  17.809  0.00  0.00    +0.000 C 
ATOM      8  O   UNL     1       2.549   8.430  18.642  0.00  0.00    +0.000 OA
ENDBRANCH   1   8
BRANCH   3   9
ATOM      9  N   UNL     1       4.348   4.057  18.855  0.00  0.00    +0.000 N 
ATOM     10  H   UNL     1       5.338   4.173  19.027  0.00  0.00    +0.000 HD
BRANCH   9  11
ATOM     11  C   UNL     1       4.060   3.216  17.802  0.00  0.00    +0.000 C 
ATOM     12  S   UNL     1       2.751   2.195  17.608  0.00  0.00    +0.000 S 
BRANCH  11  13
ATOM     13  N   UNL     1       4.978   3.262  16.788  0.00  0.00    +0.000 N 
ATOM     14  H   UNL     1       5.907   2.956  17.063  0.00  0.00    +0.000 HD
BRANCH  13  15
ATOM     15  C   UNL     1       4.851   4.100  15.608  0.00  0.00    +0.000 C 
BRANCH  15  16
ATOM     16  C   UNL     1       5.365   5.532  15.814  0.00  0.00    +0.000 C 
BRANCH  16  17
ATOM     17  C   UNL     1       6.889   5.594  15.898  0.00  0.00    +0.000 C 
BRANCH  17  18
ATOM     18  N   UNL     1       7.373   5.689  17.263  0.00  0.00    +0.000 N 
ATOM     19  C   UNL     1       7.699   4.618  18.048  0.00  0.00    +0.000 A 
ATOM     20  N   UNL     1       8.130   4.997  19.230  0.00  0.00    +0.000 NA
ATOM     21  C   UNL     1       8.104   6.365  19.199  0.00  0.00    +0.000 A 
ATOM     22  C   UNL     1       7.647   6.829  17.981  0.00  0.00    +0.000 A 
ATOM     23  C   UNL     1       7.474   8.210  17.479  0.00  0.00    +0.000 C 
ENDBRANCH  17  18
ENDBRANCH  16  17
ENDBRANCH  15  16
ENDBRANCH  13  15
ENDBRANCH  11  13
ENDBRANCH   9  11
ENDBRANCH   3   9
BRANCH   6  24
ATOM     24  O   UNL     1       0.680   7.745  20.827  0.00  0.00    +0.000 OA
BRANCH  24  25
ATOM     25  C   UNL     1       1.188   8.722  21.742  0.00  0.00    +0.000 C 
BRANCH  25  26
ATOM     26  C   UNL     1       0.277   9.894  21.860  0.00  0.00    +0.000 A 
ATOM     27  C   UNL     1       0.130  10.787  20.805  0.00  0.00    +0.000 A 
ATOM     28  C   UNL     1      -0.741  11.851  20.935  0.00  0.00    +0.000 A 
ATOM     29  C   UNL     1      -1.490  12.064  22.111  0.00  0.00    +0.000 A 
ATOM     30  C   UNL     1      -1.367  11.113  23.135  0.00  0.00    +0.000 A 
ATOM     31  C   UNL     1      -0.497  10.039  23.014  0.00  0.00    +0.000 A 
BRANCH  29  32
ATOM     32  N   UNL     1      -2.301  13.164  22.198  0.00  0.00    +0.000 N 
ATOM     33  C   UNL     1      -1.783  14.541  22.082  0.00  0.00    +0.000 C 
ATOM     34  C   UNL     1      -2.296  15.228  20.802  0.00  0.00    +0.000 C 
ATOM     35  N   UNL     1      -3.763  15.154  20.641  0.00  0.00    +0.000 NA
ATOM     36  C   UNL     1      -4.176  13.738  20.676  0.00  0.00    +0.000 C 
ATOM     37  C   UNL     1      -3.739  13.006  21.962  0.00  0.00    +0.000 C 
ATOM     38  H   UNL     1      -4.022  15.554  19.744  0.00  0.00    +0.000 HD
ENDBRANCH  29  32
ENDBRANCH  25  26
ENDBRANCH  24  25
ENDBRANCH   6  24
TORSDOF 12
ENDMDL
MODEL 8
REMARK VINA RESULT:      -7.3      5.455      9.973
REMARK  Name = 
REMARK  14 active torsions:
REMARK  status: ('A' for Active; 'I' for Inactive)
REMARK    1  A    between atoms: C_1  and  O_2
REMARK    2  A    between atoms: O_2  and  C_3
REMARK    3  A    between atoms: C_5  and  N_6
REMARK    4  A    between atoms: N_6  and  C_7
REMARK    5  A    between atoms: C_7  and  N_9
REMARK    6  A    between atoms: N_9  and  C_10
REMARK    7  A    between atoms: C_10  and  C_11
REMARK    8  A    between atoms: C_11  and  C_12
REMARK    9  A    between atoms: C_12  and  N_13
REMARK   10  A    between atoms: C_17  and  C_18
REMARK   11  A    between atoms: C_21  and  O_22
REMARK   12  A    between atoms: O_22  and  C_23
REMARK   13  A    between atoms: C_23  and  C_24
REMARK   14  A    between atoms: C_27  and  N_28
REMARK                            x       y       z     vdW  Elec       q    Type
REMARK                         _______ _______ _______ _____ _____    ______ ____
ROOT
ATOM      1  C   UNL     1       1.026   8.562  20.472  0.00  0.00    +0.000 A 
ATOM      2  C   UNL     1       1.633   7.322  20.741  0.00  0.00    +0.000 A 
ATOM      3  C   UNL     1       2.449   6.700  19.791  0.00  0.00    +0.000 A 
ATOM      4  C   UNL     1       2.555   7.235  18.522  0.00  0.00    +0.000 A 
ATOM      5  C   UNL     1       2.009   8.476  18.265  0.00  0.00    +0.000 A 
ATOM      6  C   UNL     1       1.246   9.159  19.223  0.00  0.00    +0.000 A 
ENDROOT
BRANCH   1   8
ATOM      7  C   UNL     1       1.023   9.411  22.726  0.00  0.00    +0.000 C 
ATOM      8  O   UNL     1       0.325   9.052  21.541  0.00  0.00    +0.000 OA
ENDBRANCH   1   8
BRANCH   3   9
ATOM      9  N   UNL     1       3.139   5.523  20.113  0.00  0.00    +0.000 N 
ATOM     10  H   UNL     1       4.149   5.575  20.095  0.00  0.00    +0.000 HD
BRANCH   9  11
ATOM     11  C   UNL     1       2.646   4.237  20.068  0.00  0.00    +0.000 C 
ATOM     12  S   UNL     1       1.084   3.707  20.342  0.00  0.00    +0.000 S 
BRANCH  11  13
ATOM     13  N   UNL     1       3.580   3.296  19.729  0.00  0.00    +0.000 N 
ATOM     14  H   UNL     1       3.660   2.540  20.404  0.00  0.00    +0.000 HD
BRANCH  13  15
ATOM     15  C   UNL     1       4.694   3.535  18.828  0.00  0.00    +0.000 C 
BRANCH  15  16
ATOM     16  C   UNL     1       4.349   3.304  17.351  0.00  0.00    +0.000 C 
BRANCH  16  17
ATOM     17  C   UNL     1       4.289   4.608  16.558  0.00  0.00    +0.000 C 
BRANCH  17  18
ATOM     18  N   UNL     1       5.547   4.930  15.910  0.00  0.00    +0.000 N 
ATOM     19  C   UNL     1       6.567   5.628  16.496  0.00  0.00    +0.000 A 
ATOM     20  N   UNL     1       7.595   5.754  15.687  0.00  0.00    +0.000 NA
ATOM     21  C   UNL     1       7.235   5.091  14.544  0.00  0.00    +0.000 A 
ATOM     22  C   UNL     1       5.967   4.556  14.655  0.00  0.00    +0.000 A 
ATOM     23  C   UNL     1       5.177   3.745  13.703  0.00  0.00    +0.000 C 
ENDBRANCH  17  18
ENDBRANCH  16  17
ENDBRANCH  15  16
ENDBRANCH  13  15
ENDBRANCH  11  13
ENDBRANCH   9  11
ENDBRANCH   3   9
BRANCH   6  24
ATOM     24  O   UNL     1       0.742  10.405  18.946  0.00  0.00    +0.000 OA
BRANCH  24  25
ATOM     25  C   UNL     1      -0.165  10.392  17.838  0.00  0.00    +0.000 C 
BRANCH  25  26
ATOM     26  C   UNL     1      -1.525  10.853  18.232  0.00  0.00    +0.000 A 
ATOM     27  C   UNL     1      -1.689  11.802  19.235  0.00  0.00    +0.000 A 
ATOM     28  C   UNL     1      -2.961  12.229  19.562  0.00  0.00    +0.000 A 
ATOM     29  C   UNL     1      -4.107  11.728  18.910  0.00  0.00    +0.000 A 
ATOM     30  C   UNL     1      -3.907  10.816  17.863  0.00  0.00    +0.000 A 
ATOM     31  C   UNL     1      -2.632  10.383  17.524  0.00  0.00    +0.000 A 
BRANCH  29  32
ATOM     32  N   UNL     1      -5.346  12.153  19.312  0.00  0.00    +0.000 N 
ATOM     33  C   UNL     1      -5.567  13.474  19.932  0.00  0.00    +0.000 C 
ATOM     34  C   UNL     1      -6.406  14.388  19.019  0.00  0.00    +0.000 C 
ATOM     35  N   UNL     1      -7.658  13.761  18.546  0.00  0.00    +0.000 NA
ATOM     36  C   UNL     1      -7.328  12.497  17.860  0.00  0.00    +0.000 C 
ATOM     37  C   UNL     1      -6.535  11.513  18.743  0.00  0.00    +0.000 C 
ATOM     38  H   UNL     1      -8.118  14.387  17.890  0.00  0.00    +0.000 HD
ENDBRANCH  29  32
ENDBRANCH  25  26
ENDBRANCH  24  25
ENDBRANCH   6  24
TORSDOF 12
ENDMDL
MODEL 9
REMARK VINA RESULT:      -7.2      1.319      1.887
REMARK  Name = 
REMARK  14 active torsions:
REMARK  status: ('A' for Active; 'I' for Inactive)
REMARK    1  A    between atoms: C_1  and  O_2
REMARK    2  A    between atoms: O_2  and  C_3
REMARK    3  A    between atoms: C_5  and  N_6
REMARK    4  A    between atoms: N_6  and  C_7
REMARK    5  A    between atoms: C_7  and  N_9
REMARK    6  A    between atoms: N_9  and  C_10
REMARK    7  A    between atoms: C_10  and  C_11
REMARK    8  A    between atoms: C_11  and  C_12
REMARK    9  A    between atoms: C_12  and  N_13
REMARK   10  A    between atoms: C_17  and  C_18
REMARK   11  A    between atoms: C_21  and  O_22
REMARK   12  A    between atoms: O_22  and  C_23
REMARK   13  A    between atoms: C_23  and  C_24
REMARK   14  A    between atoms: C_27  and  N_28
REMARK                            x       y       z     vdW  Elec       q    Type
REMARK                         _______ _______ _______ _____ _____    ______ ____
ROOT
ATOM      1  C   UNL     1       6.412   5.743  16.086  0.00  0.00    +0.000 A 
ATOM      2  C   UNL     1       5.361   4.820  16.236  0.00  0.00    +0.000 A 
ATOM      3  C   UNL     1       4.654   4.724  17.439  0.00  0.00    +0.000 A 
ATOM      4  C   UNL     1       5.074   5.445  18.540  0.00  0.00    +0.000 A 
ATOM      5  C   UNL     1       6.066   6.391  18.389  0.00  0.00    +0.000 A 
ATOM      6  C   UNL     1       6.744   6.562  17.173  0.00  0.00    +0.000 A 
ENDROOT
BRANCH   1   8
ATOM      7  C   UNL     1       6.872   4.562  14.037  0.00  0.00    +0.000 C 
ATOM      8  O   UNL     1       6.938   5.746  14.822  0.00  0.00    +0.000 OA
ENDBRANCH   1   8
BRANCH   3   9
ATOM      9  N   UNL     1       3.538   3.883  17.537  0.00  0.00    +0.000 N 
ATOM     10  H   UNL     1       2.727   4.145  16.992  0.00  0.00    +0.000 HD
BRANCH   9  11
ATOM     11  C   UNL     1       3.262   2.992  18.552  0.00  0.00    +0.000 C 
ATOM     12  S   UNL     1       3.462   1.332  18.568  0.00  0.00    +0.000 S 
BRANCH  11  13
ATOM     13  N   UNL     1       2.781   3.578  19.692  0.00  0.00    +0.000 N 
ATOM     14  H   UNL     1       3.143   3.166  20.547  0.00  0.00    +0.000 HD
BRANCH  13  15
ATOM     15  C   UNL     1       1.542   4.333  19.762  0.00  0.00    +0.000 C 
BRANCH  15  16
ATOM     16  C   UNL     1       1.641   5.597  20.626  0.00  0.00    +0.000 C 
BRANCH  16  17
ATOM     17  C   UNL     1       2.278   6.764  19.874  0.00  0.00    +0.000 C 
BRANCH  17  18
ATOM     18  N   UNL     1       1.624   8.031  20.144  0.00  0.00    +0.000 N 
ATOM     19  C   UNL     1       1.148   8.415  21.368  0.00  0.00    +0.000 A 
ATOM     20  N   UNL     1       0.625   9.619  21.329  0.00  0.00    +0.000 NA
ATOM     21  C   UNL     1       0.790  10.039  20.036  0.00  0.00    +0.000 A 
ATOM     22  C   UNL     1       1.420   9.076  19.273  0.00  0.00    +0.000 A 
ATOM     23  C   UNL     1       1.831   9.087  17.852  0.00  0.00    +0.000 C 
ENDBRANCH  17  18
ENDBRANCH  16  17
ENDBRANCH  15  16
ENDBRANCH  13  15
ENDBRANCH  11  13
ENDBRANCH   9  11
ENDBRANCH   3   9
BRANCH   6  24
ATOM     24  O   UNL     1       7.706   7.533  17.049  0.00  0.00    +0.000 OA
BRANCH  24  25
ATOM     25  C   UNL     1       8.299   7.878  18.305  0.00  0.00    +0.000 C 
BRANCH  25  26
ATOM     26  C   UNL     1       8.571   9.339  18.406  0.00  0.00    +0.000 A 
ATOM     27  C   UNL     1       9.444   9.834  19.368  0.00  0.00    +0.000 A 
ATOM     28  C   UNL     1       9.695  11.190  19.421  0.00  0.00    +0.000 A 
ATOM     29  C   UNL     1       9.090  12.097  18.526  0.00  0.00    +0.000 A 
ATOM     30  C   UNL     1       8.261  11.562  17.528  0.00  0.00    +0.000 A 
ATOM     31  C   UNL     1       8.004  10.200  17.464  0.00  0.00    +0.000 A 
BRANCH  29  32
ATOM     32  N   UNL     1       9.340  13.437  18.659  0.00  0.00    +0.000 N 
ATOM     33  C   UNL     1       9.059  14.176  19.905  0.00  0.00    +0.000 C 
ATOM     34  C   UNL     1      10.359  14.657  20.578  0.00  0.00    +0.000 C 
ATOM     35  N   UNL     1      11.256  15.397  19.665  0.00  0.00    +0.000 NA
ATOM     36  C   UNL     1      11.554  14.545  18.497  0.00  0.00    +0.000 C 
ATOM     37  C   UNL     1      10.292  14.075  17.746  0.00  0.00    +0.000 C 
ATOM     38  H   UNL     1      12.122  15.613  20.150  0.00  0.00    +0.000 HD
ENDBRANCH  29  32
ENDBRANCH  25  26
ENDBRANCH  24  25
ENDBRANCH   6  24
TORSDOF 12
ENDMDL
