MODEL 1
REMARK VINA RESULT:      -8.6      0.000      0.000
REMARK  Name = 
REMARK  7 active torsions:
REMARK  status: ('A' for Active; 'I' for Inactive)
REMARK    1  A    between atoms: C_1  and  C_2
REMARK    2  A    between atoms: C_2  and  C_3
REMARK    3  A    between atoms: C_2  and  C_4
REMARK    4  A    between atoms: C_2  and  C_5
REMARK    5  A    between atoms: C_7  and  C_8
REMARK    6  A    between atoms: C_12  and  C_13
REMARK    7  A    between atoms: C_18  and  C_19
REMARK                            x       y       z     vdW  Elec       q    Type
REMARK                         _______ _______ _______ _____ _____    ______ ____
ROOT
ATOM      1  C   UNL     1       1.489   7.875  20.602  0.00  0.00    +0.000 A 
ATOM      2  N   UNL     1       2.367   8.048  19.637  0.00  0.00    +0.000 NA
ATOM      3  C   UNL     1       2.907   6.809  19.403  0.00  0.00    +0.000 A 
ATOM      4  N   UNL     1       3.830   6.508  18.470  0.00  0.00    +0.000 NA
ATOM      5  C   UNL     1       4.128   5.192  18.333  0.00  0.00    +0.000 A 
ATOM      6  C   UNL     1       3.604   4.200  19.176  0.00  0.00    +0.000 A 
ATOM      7  C   UNL     1       2.713   4.536  20.185  0.00  0.00    +0.000 A 
ATOM      8 CL   UNL     1       2.069   3.355  21.243  0.00  0.00    +0.000 Cl
ATOM      9  C   UNL     1       2.354   5.871  20.257  0.00  0.00    +0.000 A 
ATOM     10  N   UNL     1       1.476   6.570  21.030  0.00  0.00    +0.000 N 
ATOM     11  H   UNL     1       0.875   6.197  21.759  0.00  0.00    +0.000 HD
ENDROOT
BRANCH   5  12
ATOM     12  C   UNL     1       5.050   4.836  17.225  0.00  0.00    +0.000 A 
ATOM     13  C   UNL     1       4.481   4.381  16.003  0.00  0.00    +0.000 A 
ATOM     14  C   UNL     1       5.250   4.097  14.874  0.00  0.00    +0.000 A 
ATOM     15  C   UNL     1       6.626   4.226  14.927  0.00  0.00    +0.000 A 
ATOM     16  C   UNL     1       7.221   4.634  16.117  0.00  0.00    +0.000 A 
ATOM     17  C   UNL     1       6.460   4.960  17.271  0.00  0.00    +0.000 A 
BRANCH  17  18
ATOM     18  C   UNL     1       7.279   5.424  18.464  0.00  0.00    +0.000 C 
ATOM     19  F   UNL     1       6.668   5.469  19.671  0.00  0.00    +0.000 F 
ATOM     20  F   UNL     1       8.419   4.691  18.618  0.00  0.00    +0.000 F 
ATOM     21  F   UNL     1       7.717   6.713  18.272  0.00  0.00    +0.000 F 
ENDBRANCH  17  18
ENDBRANCH   5  12
BRANCH   1  24
ATOM     22  C   UNL     1      -0.593  10.667  21.619  0.00  0.00    +0.000 A 
ATOM     23  C   UNL     1       0.293  10.107  20.662  0.00  0.00    +0.000 A 
ATOM     24  C   UNL     1       0.631   8.867  21.156  0.00  0.00    +0.000 A 
ATOM     25  O   UNL     1      -0.029   8.696  22.341  0.00  0.00    +0.000 OA
ATOM     26  N   UNL     1      -0.783   9.812  22.632  0.00  0.00    +0.000 NA
BRANCH  22  28
ATOM     27  C   UNL     1      -0.284  13.176  21.789  0.00  0.00    +0.000 C 
ATOM     28  C   UNL     1      -1.288  12.017  21.623  0.00  0.00    +0.000 C 
ATOM     29  C   UNL     1      -2.296  12.094  22.789  0.00  0.00    +0.000 C 
ATOM     30  C   UNL     1      -2.045  12.232  20.296  0.00  0.00    +0.000 C 
ENDBRANCH  22  28
ENDBRANCH   1  24
TORSDOF 4
ENDMDL
MODEL 2
REMARK VINA RESULT:      -8.5      0.321      1.085
REMARK  Name = 
REMARK  7 active torsions:
REMARK  status: ('A' for Active; 'I' for Inactive)
REMARK    1  A    between atoms: C_1  and  C_2
REMARK    2  A    between atoms: C_2  and  C_3
REMARK    3  A    between atoms: C_2  and  C_4
REMARK    4  A    between atoms: C_2  and  C_5
REMARK    5  A    between atoms: C_7  and  C_8
REMARK    6  A    between atoms: C_12  and  C_13
REMARK    7  A    between atoms: C_18  and  C_19
REMARK                            x       y       z     vdW  Elec       q    Type
REMARK                         _______ _______ _______ _____ _____    ______ ____
ROOT
ATOM      1  C   UNL     1       1.620   7.780  20.419  0.00  0.00    +0.000 A 
ATOM      2  N   UNL     1       2.450   7.970  19.415  0.00  0.00    +0.000 NA
ATOM      3  C   UNL     1       3.020   6.746  19.171  0.00  0.00    +0.000 A 
ATOM      4  N   UNL     1       3.912   6.464  18.203  0.00  0.00    +0.000 NA
ATOM      5  C   UNL     1       4.246   5.156  18.067  0.00  0.00    +0.000 A 
ATOM      6  C   UNL     1       3.790   4.158  18.941  0.00  0.00    +0.000 A 
ATOM      7  C   UNL     1       2.933   4.478  19.984  0.00  0.00    +0.000 A 
ATOM      8 CL   UNL     1       2.373   3.288  21.081  0.00  0.00    +0.000 Cl
ATOM      9  C   UNL     1       2.534   5.801  20.058  0.00  0.00    +0.000 A 
ATOM     10  N   UNL     1       1.668   6.480  20.861  0.00  0.00    +0.000 N 
ATOM     11  H   UNL     1       1.111   6.097  21.619  0.00  0.00    +0.000 HD
ENDROOT
BRANCH   5  12
ATOM     12  C   UNL     1       5.131   4.817  16.924  0.00  0.00    +0.000 A 
ATOM     13  C   UNL     1       4.520   4.439  15.696  0.00  0.00    +0.000 A 
ATOM     14  C   UNL     1       5.254   4.178  14.538  0.00  0.00    +0.000 A 
ATOM     15  C   UNL     1       6.635   4.254  14.567  0.00  0.00    +0.000 A 
ATOM     16  C   UNL     1       7.270   4.587  15.760  0.00  0.00    +0.000 A 
ATOM     17  C   UNL     1       6.545   4.888  16.944  0.00  0.00    +0.000 A 
BRANCH  17  18
ATOM     18  C   UNL     1       7.406   5.268  18.137  0.00  0.00    +0.000 C 
ATOM     19  F   UNL     1       7.990   6.489  18.131  0.00  0.00    +0.000 F 
ATOM     20  F   UNL     1       6.728   5.153  19.315  0.00  0.00    +0.000 F 
ATOM     21  F   UNL     1       8.465   4.400  18.258  0.00  0.00    +0.000 F 
ENDBRANCH  17  18
ENDBRANCH   5  12
BRANCH   1  24
ATOM     22  C   UNL     1      -0.431  10.553  21.546  0.00  0.00    +0.000 A 
ATOM     23  C   UNL     1       0.521  10.053  20.619  0.00  0.00    +0.000 A 
ATOM     24  C   UNL     1       0.756   8.751  20.999  0.00  0.00    +0.000 A 
ATOM     25  O   UNL     1      -0.025   8.488  22.091  0.00  0.00    +0.000 OA
ATOM     26  N   UNL     1      -0.756   9.604  22.435  0.00  0.00    +0.000 NA
BRANCH  22  28
ATOM     27  C   UNL     1      -1.903  12.088  22.923  0.00  0.00    +0.000 C 
ATOM     28  C   UNL     1      -1.064  11.929  21.638  0.00  0.00    +0.000 C 
ATOM     29  C   UNL     1      -1.997  12.169  20.433  0.00  0.00    +0.000 C 
ATOM     30  C   UNL     1       0.027  13.020  21.647  0.00  0.00    +0.000 C 
ENDBRANCH  22  28
ENDBRANCH   1  24
TORSDOF 4
ENDMDL
MODEL 3
REMARK VINA RESULT:      -8.5      1.215      1.467
REMARK  Name = 
REMARK  7 active torsions:
REMARK  status: ('A' for Active; 'I' for Inactive)
REMARK    1  A    between atoms: C_1  and  C_2
REMARK    2  A    between atoms: C_2  and  C_3
REMARK    3  A    between atoms: C_2  and  C_4
REMARK    4  A    between atoms: C_2  and  C_5
REMARK    5  A    between atoms: C_7  and  C_8
REMARK    6  A    between atoms: C_12  and  C_13
REMARK    7  A    between atoms: C_18  and  C_19
REMARK                            x       y       z     vdW  Elec       q    Type
REMARK                         _______ _______ _______ _____ _____    ______ ____
ROOT
ATOM      1  C   UNL     1       1.446   8.684  19.564  0.00  0.00    +0.000 A 
ATOM      2  N   UNL     1       2.309   8.685  18.570  0.00  0.00    +0.000 NA
ATOM      3  C   UNL     1       2.926   7.460  18.616  0.00  0.00    +0.000 A 
ATOM      4  N   UNL     1       3.863   7.010  17.760  0.00  0.00    +0.000 NA
ATOM      5  C   UNL     1       4.242   5.718  17.922  0.00  0.00    +0.000 A 
ATOM      6  C   UNL     1       3.784   4.915  18.977  0.00  0.00    +0.000 A 
ATOM      7  C   UNL     1       2.876   5.419  19.898  0.00  0.00    +0.000 A 
ATOM      8 CL   UNL     1       2.310   4.473  21.209  0.00  0.00    +0.000 Cl
ATOM      9  C   UNL     1       2.435   6.711  19.670  0.00  0.00    +0.000 A 
ATOM     10  N   UNL     1       1.517   7.513  20.278  0.00  0.00    +0.000 N 
ATOM     11  H   UNL     1       0.942   7.281  21.084  0.00  0.00    +0.000 HD
ENDROOT
BRANCH   5  12
ATOM     12  C   UNL     1       5.182   5.175  16.909  0.00  0.00    +0.000 A 
ATOM     13  C   UNL     1       4.645   4.739  15.666  0.00  0.00    +0.000 A 
ATOM     14  C   UNL     1       5.445   4.288  14.616  0.00  0.00    +0.000 A 
ATOM     15  C   UNL     1       6.817   4.222  14.775  0.00  0.00    +0.000 A 
ATOM     16  C   UNL     1       7.377   4.606  15.991  0.00  0.00    +0.000 A 
ATOM     17  C   UNL     1       6.588   5.100  17.064  0.00  0.00    +0.000 A 
BRANCH  17  18
ATOM     18  C   UNL     1       7.376   5.506  18.298  0.00  0.00    +0.000 C 
ATOM     19  F   UNL     1       6.710   5.586  19.474  0.00  0.00    +0.000 F 
ATOM     20  F   UNL     1       8.458   4.703  18.502  0.00  0.00    +0.000 F 
ATOM     21  F   UNL     1       7.902   6.766  18.136  0.00  0.00    +0.000 F 
ENDBRANCH  17  18
ENDBRANCH   5  12
BRANCH   1  24
ATOM     22  C   UNL     1      -0.740  11.275  20.857  0.00  0.00    +0.000 A 
ATOM     23  C   UNL     1       0.242  10.283  21.116  0.00  0.00    +0.000 A 
ATOM     24  C   UNL     1       0.530   9.723  19.891  0.00  0.00    +0.000 A 
ATOM     25  O   UNL     1      -0.235  10.357  18.953  0.00  0.00    +0.000 OA
ATOM     26  N   UNL     1      -1.027  11.314  19.549  0.00  0.00    +0.000 NA
BRANCH  22  28
ATOM     27  C   UNL     1      -2.784  12.722  21.242  0.00  0.00    +0.000 C 
ATOM     28  C   UNL     1      -1.447  12.213  21.818  0.00  0.00    +0.000 C 
ATOM     29  C   UNL     1      -0.560  13.442  22.112  0.00  0.00    +0.000 C 
ATOM     30  C   UNL     1      -1.749  11.489  23.147  0.00  0.00    +0.000 C 
ENDBRANCH  22  28
ENDBRANCH   1  24
TORSDOF 4
ENDMDL
MODEL 4
REMARK VINA RESULT:      -8.4      0.828      1.234
REMARK  Name = 
REMARK  7 active torsions:
REMARK  status: ('A' for Active; 'I' for Inactive)
REMARK    1  A    between atoms: C_1  and  C_2
REMARK    2  A    between atoms: C_2  and  C_3
REMARK    3  A    between atoms: C_2  and  C_4
REMARK    4  A    between atoms: C_2  and  C_5
REMARK    5  A    between atoms: C_7  and  C_8
REMARK    6  A    between atoms: C_12  and  C_13
REMARK    7  A    between atoms: C_18  and  C_19
REMARK                            x       y       z     vdW  Elec       q    Type
REMARK                         _______ _______ _______ _____ _____    ______ ____
ROOT
ATOM      1  C   UNL     1       1.389   8.444  20.012  0.00  0.00    +0.000 A 
ATOM      2  N   UNL     1       2.253   8.484  19.019  0.00  0.00    +0.000 NA
ATOM      3  C   UNL     1       2.852   7.250  19.002  0.00  0.00    +0.000 A 
ATOM      4  N   UNL     1       3.783   6.831  18.125  0.00  0.00    +0.000 NA
ATOM      5  C   UNL     1       4.144   5.527  18.220  0.00  0.00    +0.000 A 
ATOM      6  C   UNL     1       3.673   4.677  19.232  0.00  0.00    +0.000 A 
ATOM      7  C   UNL     1       2.772   5.146  20.177  0.00  0.00    +0.000 A 
ATOM      8 CL   UNL     1       2.190   4.142  21.437  0.00  0.00    +0.000 Cl
ATOM      9  C   UNL     1       2.349   6.454  20.016  0.00  0.00    +0.000 A 
ATOM     10  N   UNL     1       1.442   7.237  20.665  0.00  0.00    +0.000 N 
ATOM     11  H   UNL     1       0.863   6.972  21.457  0.00  0.00    +0.000 HD
ENDROOT
BRANCH   5  12
ATOM     12  C   UNL     1       5.077   5.023  17.180  0.00  0.00    +0.000 A 
ATOM     13  C   UNL     1       4.520   4.513  15.975  0.00  0.00    +0.000 A 
ATOM     14  C   UNL     1       5.306   4.089  14.902  0.00  0.00    +0.000 A 
ATOM     15  C   UNL     1       6.685   4.129  15.002  0.00  0.00    +0.000 A 
ATOM     16  C   UNL     1       7.266   4.588  16.180  0.00  0.00    +0.000 A 
ATOM     17  C   UNL     1       6.489   5.055  17.274  0.00  0.00    +0.000 A 
BRANCH  17  18
ATOM     18  C   UNL     1       7.297   5.554  18.460  0.00  0.00    +0.000 C 
ATOM     19  F   UNL     1       6.680   5.618  19.663  0.00  0.00    +0.000 F 
ATOM     20  F   UNL     1       8.446   4.840  18.635  0.00  0.00    +0.000 F 
ATOM     21  F   UNL     1       7.720   6.845  18.242  0.00  0.00    +0.000 F 
ENDBRANCH  17  18
ENDBRANCH   5  12
BRANCH   1  24
ATOM     22  C   UNL     1      -0.965  11.161  20.506  0.00  0.00    +0.000 A 
ATOM     23  C   UNL     1      -0.228  10.350  19.603  0.00  0.00    +0.000 A 
ATOM     24  C   UNL     1       0.487   9.478  20.392  0.00  0.00    +0.000 A 
ATOM     25  O   UNL     1       0.183   9.750  21.697  0.00  0.00    +0.000 OA
ATOM     26  N   UNL     1      -0.712  10.796  21.770  0.00  0.00    +0.000 NA
BRANCH  22  28
ATOM     27  C   UNL     1      -2.885  11.969  19.064  0.00  0.00    +0.000 C 
ATOM     28  C   UNL     1      -1.923  12.303  20.222  0.00  0.00    +0.000 C 
ATOM     29  C   UNL     1      -1.139  13.574  19.833  0.00  0.00    +0.000 C 
ATOM     30  C   UNL     1      -2.775  12.608  21.472  0.00  0.00    +0.000 C 
ENDBRANCH  22  28
ENDBRANCH   1  24
TORSDOF 4
ENDMDL
MODEL 5
REMARK VINA RESULT:      -8.3      0.231      1.096
REMARK  Name = 
REMARK  7 active torsions:
REMARK  status: ('A' for Active; 'I' for Inactive)
REMARK    1  A    between atoms: C_1  and  C_2
REMARK    2  A    between atoms: C_2  and  C_3
REMARK    3  A    between atoms: C_2  and  C_4
REMARK    4  A    between atoms: C_2  and  C_5
REMARK    5  A    between atoms: C_7  and  C_8
REMARK    6  A    between atoms: C_12  and  C_13
REMARK    7  A    between atoms: C_18  and  C_19
REMARK                            x       y       z     vdW  Elec       q    Type
REMARK                         _______ _______ _______ _____ _____    ______ ____
ROOT
ATOM      1  C   UNL     1       1.459   7.912  20.745  0.00  0.00    +0.000 A 
ATOM      2  N   UNL     1       2.370   8.073  19.808  0.00  0.00    +0.000 NA
ATOM      3  C   UNL     1       2.841   6.814  19.530  0.00  0.00    +0.000 A 
ATOM      4  N   UNL     1       3.766   6.498  18.605  0.00  0.00    +0.000 NA
ATOM      5  C   UNL     1       3.987   5.174  18.416  0.00  0.00    +0.000 A 
ATOM      6  C   UNL     1       3.384   4.180  19.201  0.00  0.00    +0.000 A 
ATOM      7  C   UNL     1       2.491   4.526  20.204  0.00  0.00    +0.000 A 
ATOM      8 CL   UNL     1       1.750   3.341  21.194  0.00  0.00    +0.000 Cl
ATOM      9  C   UNL     1       2.211   5.876  20.329  0.00  0.00    +0.000 A 
ATOM     10  N   UNL     1       1.358   6.592  21.113  0.00  0.00    +0.000 N 
ATOM     11  H   UNL     1       0.718   6.225  21.812  0.00  0.00    +0.000 HD
ENDROOT
BRANCH   5  12
ATOM     12  C   UNL     1       4.914   4.811  17.313  0.00  0.00    +0.000 A 
ATOM     13  C   UNL     1       4.351   4.300  16.110  0.00  0.00    +0.000 A 
ATOM     14  C   UNL     1       5.122   4.004  14.985  0.00  0.00    +0.000 A 
ATOM     15  C   UNL     1       6.494   4.177  15.026  0.00  0.00    +0.000 A 
ATOM     16  C   UNL     1       7.083   4.641  16.198  0.00  0.00    +0.000 A 
ATOM     17  C   UNL     1       6.319   4.980  17.346  0.00  0.00    +0.000 A 
BRANCH  17  18
ATOM     18  C   UNL     1       7.131   5.507  18.517  0.00  0.00    +0.000 C 
ATOM     19  F   UNL     1       8.351   4.962  18.735  0.00  0.00    +0.000 F 
ATOM     20  F   UNL     1       7.299   6.859  18.457  0.00  0.00    +0.000 F 
ATOM     21  F   UNL     1       6.462   5.291  19.699  0.00  0.00    +0.000 F 
ENDBRANCH  17  18
ENDBRANCH   5  12
BRANCH   1  24
ATOM     22  C   UNL     1      -0.590  10.720  21.786  0.00  0.00    +0.000 A 
ATOM     23  C   UNL     1       0.148  10.079  20.756  0.00  0.00    +0.000 A 
ATOM     24  C   UNL     1       0.650   8.929  21.324  0.00  0.00    +0.000 A 
ATOM     25  O   UNL     1       0.223   8.885  22.622  0.00  0.00    +0.000 OA
ATOM     26  N   UNL     1      -0.540   9.995  22.912  0.00  0.00    +0.000 NA
BRANCH  22  28
ATOM     27  C   UNL     1      -2.068  12.243  20.403  0.00  0.00    +0.000 C 
ATOM     28  C   UNL     1      -1.360  12.027  21.756  0.00  0.00    +0.000 C 
ATOM     29  C   UNL     1      -0.403  13.216  21.985  0.00  0.00    +0.000 C 
ATOM     30  C   UNL     1      -2.438  12.036  22.861  0.00  0.00    +0.000 C 
ENDBRANCH  22  28
ENDBRANCH   1  24
TORSDOF 4
ENDMDL
MODEL 6
REMARK VINA RESULT:      -8.2      1.411      1.736
REMARK  Name = 
REMARK  7 active torsions:
REMARK  status: ('A' for Active; 'I' for Inactive)
REMARK    1  A    between atoms: C_1  and  C_2
REMARK    2  A    between atoms: C_2  and  C_3
REMARK    3  A    between atoms: C_2  and  C_4
REMARK    4  A    between atoms: C_2  and  C_5
REMARK    5  A    between atoms: C_7  and  C_8
REMARK    6  A    between atoms: C_12  and  C_13
REMARK    7  A    between atoms: C_18  and  C_19
REMARK                            x       y       z     vdW  Elec       q    Type
REMARK                         _______ _______ _______ _____ _____    ______ ____
ROOT
ATOM      1  C   UNL     1       1.279   8.820  19.551  0.00  0.00    +0.000 A 
ATOM      2  N   UNL     1       2.115   8.840  18.534  0.00  0.00    +0.000 NA
ATOM      3  C   UNL     1       2.777   7.638  18.578  0.00  0.00    +0.000 A 
ATOM      4  N   UNL     1       3.707   7.212  17.703  0.00  0.00    +0.000 NA
ATOM      5  C   UNL     1       4.138   5.937  17.870  0.00  0.00    +0.000 A 
ATOM      6  C   UNL     1       3.736   5.131  18.946  0.00  0.00    +0.000 A 
ATOM      7  C   UNL     1       2.836   5.613  19.885  0.00  0.00    +0.000 A 
ATOM      8 CL   UNL     1       2.339   4.665  21.221  0.00  0.00    +0.000 Cl
ATOM      9  C   UNL     1       2.342   6.885  19.653  0.00  0.00    +0.000 A 
ATOM     10  N   UNL     1       1.411   7.661  20.277  0.00  0.00    +0.000 N 
ATOM     11  H   UNL     1       0.867   7.419  21.100  0.00  0.00    +0.000 HD
ENDROOT
BRANCH   5  12
ATOM     12  C   UNL     1       5.069   5.415  16.838  0.00  0.00    +0.000 A 
ATOM     13  C   UNL     1       4.596   4.396  15.965  0.00  0.00    +0.000 A 
ATOM     14  C   UNL     1       5.360   3.893  14.911  0.00  0.00    +0.000 A 
ATOM     15  C   UNL     1       6.643   4.365  14.704  0.00  0.00    +0.000 A 
ATOM     16  C   UNL     1       7.154   5.336  15.560  0.00  0.00    +0.000 A 
ATOM     17  C   UNL     1       6.386   5.889  16.621  0.00  0.00    +0.000 A 
BRANCH  17  18
ATOM     18  C   UNL     1       7.095   6.965  17.425  0.00  0.00    +0.000 C 
ATOM     19  F   UNL     1       6.457   8.146  17.600  0.00  0.00    +0.000 F 
ATOM     20  F   UNL     1       7.465   6.521  18.660  0.00  0.00    +0.000 F 
ATOM     21  F   UNL     1       8.275   7.320  16.814  0.00  0.00    +0.000 F 
ENDBRANCH  17  18
ENDBRANCH   5  12
BRANCH   1  24
ATOM     22  C   UNL     1      -0.925  11.389  20.857  0.00  0.00    +0.000 A 
ATOM     23  C   UNL     1       0.149  10.489  21.085  0.00  0.00    +0.000 A 
ATOM     24  C   UNL     1       0.335   9.829  19.891  0.00  0.00    +0.000 A 
ATOM     25  O   UNL     1      -0.576  10.320  18.997  0.00  0.00    +0.000 OA
ATOM     26  N   UNL     1      -1.361  11.283  19.595  0.00  0.00    +0.000 NA
BRANCH  22  28
ATOM     27  C   UNL     1      -2.028  11.694  23.118  0.00  0.00    +0.000 C 
ATOM     28  C   UNL     1      -1.581  12.374  21.807  0.00  0.00    +0.000 C 
ATOM     29  C   UNL     1      -2.830  12.998  21.150  0.00  0.00    +0.000 C 
ATOM     30  C   UNL     1      -0.595  13.503  22.172  0.00  0.00    +0.000 C 
ENDBRANCH  22  28
ENDBRANCH   1  24
TORSDOF 4
ENDMDL
MODEL 7
REMARK VINA RESULT:      -8.1      0.679      1.209
REMARK  Name = 
REMARK  7 active torsions:
REMARK  status: ('A' for Active; 'I' for Inactive)
REMARK    1  A    between atoms: C_1  and  C_2
REMARK    2  A    between atoms: C_2  and  C_3
REMARK    3  A    between atoms: C_2  and  C_4
REMARK    4  A    between atoms: C_2  and  C_5
REMARK    5  A    between atoms: C_7  and  C_8
REMARK    6  A    between atoms: C_12  and  C_13
REMARK    7  A    between atoms: C_18  and  C_19
REMARK                            x       y       z     vdW  Elec       q    Type
REMARK                         _______ _______ _______ _____ _____    ______ ____
ROOT
ATOM      1  C   UNL     1       1.522   7.903  20.523  0.00  0.00    +0.000 A 
ATOM      2  N   UNL     1       2.314   8.111  19.493  0.00  0.00    +0.000 NA
ATOM      3  C   UNL     1       2.910   6.902  19.236  0.00  0.00    +0.000 A 
ATOM      4  N   UNL     1       3.778   6.639  18.240  0.00  0.00    +0.000 NA
ATOM      5  C   UNL     1       4.143   5.341  18.099  0.00  0.00    +0.000 A 
ATOM      6  C   UNL     1       3.744   4.335  18.991  0.00  0.00    +0.000 A 
ATOM      7  C   UNL     1       2.912   4.636  20.060  0.00  0.00    +0.000 A 
ATOM      8 CL   UNL     1       2.420   3.437  21.179  0.00  0.00    +0.000 Cl
ATOM      9  C   UNL     1       2.479   5.949  20.141  0.00  0.00    +0.000 A 
ATOM     10  N   UNL     1       1.620   6.607  20.969  0.00  0.00    +0.000 N 
ATOM     11  H   UNL     1       1.099   6.212  21.746  0.00  0.00    +0.000 HD
ENDROOT
BRANCH   5  12
ATOM     12  C   UNL     1       5.001   5.021  16.929  0.00  0.00    +0.000 A 
ATOM     13  C   UNL     1       4.547   4.023  16.023  0.00  0.00    +0.000 A 
ATOM     14  C   UNL     1       5.234   3.701  14.852  0.00  0.00    +0.000 A 
ATOM     15  C   UNL     1       6.422   4.344  14.552  0.00  0.00    +0.000 A 
ATOM     16  C   UNL     1       6.915   5.301  15.433  0.00  0.00    +0.000 A 
ATOM     17  C   UNL     1       6.220   5.670  16.616  0.00  0.00    +0.000 A 
BRANCH  17  18
ATOM     18  C   UNL     1       6.891   6.759  17.435  0.00  0.00    +0.000 C 
ATOM     19  F   UNL     1       6.252   7.947  17.549  0.00  0.00    +0.000 F 
ATOM     20  F   UNL     1       7.190   6.341  18.698  0.00  0.00    +0.000 F 
ATOM     21  F   UNL     1       8.105   7.094  16.882  0.00  0.00    +0.000 F 
ENDBRANCH  17  18
ENDBRANCH   5  12
BRANCH   1  24
ATOM     22  C   UNL     1      -0.591  10.613  21.688  0.00  0.00    +0.000 A 
ATOM     23  C   UNL     1       0.317  10.123  20.713  0.00  0.00    +0.000 A 
ATOM     24  C   UNL     1       0.650   8.853  21.127  0.00  0.00    +0.000 A 
ATOM     25  O   UNL     1      -0.033   8.599  22.284  0.00  0.00    +0.000 OA
ATOM     26  N   UNL     1      -0.797   9.690  22.636  0.00  0.00    +0.000 NA
BRANCH  22  28
ATOM     27  C   UNL     1      -2.100  12.261  20.494  0.00  0.00    +0.000 C 
ATOM     28  C   UNL     1      -1.291  11.958  21.771  0.00  0.00    +0.000 C 
ATOM     29  C   UNL     1      -0.256  13.087  21.955  0.00  0.00    +0.000 C 
ATOM     30  C   UNL     1      -2.267  11.978  22.966  0.00  0.00    +0.000 C 
ENDBRANCH  22  28
ENDBRANCH   1  24
TORSDOF 4
ENDMDL
MODEL 8
REMARK VINA RESULT:      -8.0      1.819      2.169
REMARK  Name = 
REMARK  7 active torsions:
REMARK  status: ('A' for Active; 'I' for Inactive)
REMARK    1  A    between atoms: C_1  and  C_2
REMARK    2  A    between atoms: C_2  and  C_3
REMARK    3  A    between atoms: C_2  and  C_4
REMARK    4  A    between atoms: C_2  and  C_5
REMARK    5  A    between atoms: C_7  and  C_8
REMARK    6  A    between atoms: C_12  and  C_13
REMARK    7  A    between atoms: C_18  and  C_19
REMARK                            x       y       z     vdW  Elec       q    Type
REMARK                         _______ _______ _______ _____ _____    ______ ____
ROOT
ATOM      1  C   UNL     1       1.524   9.394  18.766  0.00  0.00    +0.000 A 
ATOM      2  N   UNL     1       2.463   9.238  17.856  0.00  0.00    +0.000 NA
ATOM      3  C   UNL     1       2.967   7.978  18.058  0.00  0.00    +0.000 A 
ATOM      4  N   UNL     1       3.929   7.381  17.330  0.00  0.00    +0.000 NA
ATOM      5  C   UNL     1       4.182   6.083  17.632  0.00  0.00    +0.000 A 
ATOM      6  C   UNL     1       3.571   5.417  18.705  0.00  0.00    +0.000 A 
ATOM      7  C   UNL     1       2.638   6.070  19.496  0.00  0.00    +0.000 A 
ATOM      8 CL   UNL     1       1.887   5.294  20.825  0.00  0.00    +0.000 Cl
ATOM      9  C   UNL     1       2.328   7.367  19.123  0.00  0.00    +0.000 A 
ATOM     10  N   UNL     1       1.435   8.290  19.578  0.00  0.00    +0.000 N 
ATOM     11  H   UNL     1       0.779   8.177  20.345  0.00  0.00    +0.000 HD
ENDROOT
BRANCH   5  12
ATOM     12  C   UNL     1       5.152   5.379  16.755  0.00  0.00    +0.000 A 
ATOM     13  C   UNL     1       4.701   4.936  15.481  0.00  0.00    +0.000 A 
ATOM     14  C   UNL     1       5.548   4.337  14.548  0.00  0.00    +0.000 A 
ATOM     15  C   UNL     1       6.878   4.126  14.863  0.00  0.00    +0.000 A 
ATOM     16  C   UNL     1       7.348   4.513  16.114  0.00  0.00    +0.000 A 
ATOM     17  C   UNL     1       6.515   5.154  17.070  0.00  0.00    +0.000 A 
BRANCH  17  18
ATOM     18  C   UNL     1       7.211   5.540  18.364  0.00  0.00    +0.000 C 
ATOM     19  F   UNL     1       7.570   6.835  18.526  0.00  0.00    +0.000 F 
ATOM     20  F   UNL     1       6.485   5.184  19.462  0.00  0.00    +0.000 F 
ATOM     21  F   UNL     1       8.396   4.854  18.492  0.00  0.00    +0.000 F 
ENDBRANCH  17  18
ENDBRANCH   5  12
BRANCH   1  24
ATOM     22  C   UNL     1      -0.302  12.448  19.474  0.00  0.00    +0.000 A 
ATOM     23  C   UNL     1       0.845  11.645  19.708  0.00  0.00    +0.000 A 
ATOM     24  C   UNL     1       0.676  10.526  18.923  0.00  0.00    +0.000 A 
ATOM     25  O   UNL     1      -0.506  10.664  18.249  0.00  0.00    +0.000 OA
ATOM     26  N   UNL     1      -1.115  11.851  18.593  0.00  0.00    +0.000 NA
BRANCH  22  28
ATOM     27  C   UNL     1       0.081  14.076  21.377  0.00  0.00    +0.000 C 
ATOM     28  C   UNL     1      -0.679  13.795  20.064  0.00  0.00    +0.000 C 
ATOM     29  C   UNL     1      -2.190  13.837  20.374  0.00  0.00    +0.000 C 
ATOM     30  C   UNL     1      -0.342  14.927  19.071  0.00  0.00    +0.000 C 
ENDBRANCH  22  28
ENDBRANCH   1  24
TORSDOF 4
ENDMDL
MODEL 9
REMARK VINA RESULT:      -8.0      1.613      2.037
REMARK  Name = 
REMARK  7 active torsions:
REMARK  status: ('A' for Active; 'I' for Inactive)
REMARK    1  A    between atoms: C_1  and  C_2
REMARK    2  A    between atoms: C_2  and  C_3
REMARK    3  A    between atoms: C_2  and  C_4
REMARK    4  A    between atoms: C_2  and  C_5
REMARK    5  A    between atoms: C_7  and  C_8
REMARK    6  A    between atoms: C_12  and  C_13
REMARK    7  A    between atoms: C_18  and  C_19
REMARK                            x       y       z     vdW  Elec       q    Type
REMARK                         _______ _______ _______ _____ _____    ______ ____
ROOT
ATOM      1  C   UNL     1       1.585   9.274  19.018  0.00  0.00    +0.000 A 
ATOM      2  N   UNL     1       2.519   9.153  18.099  0.00  0.00    +0.000 NA
ATOM      3  C   UNL     1       2.995   7.872  18.223  0.00  0.00    +0.000 A 
ATOM      4  N   UNL     1       3.943   7.298  17.458  0.00  0.00    +0.000 NA
ATOM      5  C   UNL     1       4.166   5.979  17.680  0.00  0.00    +0.000 A 
ATOM      6  C   UNL     1       3.541   5.263  18.713  0.00  0.00    +0.000 A 
ATOM      7  C   UNL     1       2.624   5.889  19.544  0.00  0.00    +0.000 A 
ATOM      8 CL   UNL     1       1.857   5.051  20.825  0.00  0.00    +0.000 Cl
ATOM      9  C   UNL     1       2.344   7.212  19.250  0.00  0.00    +0.000 A 
ATOM     10  N   UNL     1       1.472   8.126  19.763  0.00  0.00    +0.000 N 
ATOM     11  H   UNL     1       0.814   7.982  20.523  0.00  0.00    +0.000 HD
ENDROOT
BRANCH   5  12
ATOM     12  C   UNL     1       5.119   5.308  16.760  0.00  0.00    +0.000 A 
ATOM     13  C   UNL     1       4.615   4.803  15.529  0.00  0.00    +0.000 A 
ATOM     14  C   UNL     1       5.436   4.227  14.559  0.00  0.00    +0.000 A 
ATOM     15  C   UNL     1       6.793   4.103  14.791  0.00  0.00    +0.000 A 
ATOM     16  C   UNL     1       7.317   4.552  16.000  0.00  0.00    +0.000 A 
ATOM     17  C   UNL     1       6.509   5.171  16.991  0.00  0.00    +0.000 A 
BRANCH  17  18
ATOM     18  C   UNL     1       7.262   5.633  18.227  0.00  0.00    +0.000 C 
ATOM     19  F   UNL     1       7.771   6.887  18.225  0.00  0.00    +0.000 F 
ATOM     20  F   UNL     1       6.514   5.506  19.360  0.00  0.00    +0.000 F 
ATOM     21  F   UNL     1       8.361   4.836  18.444  0.00  0.00    +0.000 F 
ENDBRANCH  17  18
ENDBRANCH   5  12
BRANCH   1  24
ATOM     22  C   UNL     1      -0.816  11.875  19.817  0.00  0.00    +0.000 A 
ATOM     23  C   UNL     1      -0.460  10.502  19.871  0.00  0.00    +0.000 A 
ATOM     24  C   UNL     1       0.764  10.414  19.245  0.00  0.00    +0.000 A 
ATOM     25  O   UNL     1       1.119  11.673  18.848  0.00  0.00    +0.000 OA
ATOM     26  N   UNL     1       0.140  12.578  19.196  0.00  0.00    +0.000 NA
BRANCH  22  28
ATOM     27  C   UNL     1      -2.353  12.204  21.804  0.00  0.00    +0.000 C 
ATOM     28  C   UNL     1      -2.059  12.575  20.336  0.00  0.00    +0.000 C 
ATOM     29  C   UNL     1      -3.288  12.176  19.492  0.00  0.00    +0.000 C 
ATOM     30  C   UNL     1      -1.880  14.106  20.261  0.00  0.00    +0.000 C 
ENDBRANCH  22  28
ENDBRANCH   1  24
TORSDOF 4
ENDMDL
