MODEL 1
REMARK VINA RESULT:      -7.6      0.000      0.000
REMARK  Name = 
REMARK  8 active torsions:
REMARK  status: ('A' for Active; 'I' for Inactive)
REMARK    1  A    between atoms: C_1  and  C_2
REMARK    2  A    between atoms: C_2  and  C_3
REMARK    3  A    between atoms: C_2  and  C_4
REMARK    4  A    between atoms: C_4  and  O_5
REMARK    5  A    between atoms: O_5  and  C_6
REMARK    6  A    between atoms: N_11  and  C_12
REMARK    7  A    between atoms: C_12  and  C_13
REMARK    8  A    between atoms: N_17  and  C_18
REMARK                            x       y       z     vdW  Elec       q    Type
REMARK                         _______ _______ _______ _____ _____    ______ ____
ROOT
ATOM      1  C   UNL     1       6.304   5.127  14.521  0.00  0.00    +0.000 C 
ATOM      2  C   UNL     1       7.052   4.790  15.839  0.00  0.00    +0.000 C 
ATOM      3  C   UNL     1       5.766   5.213  16.622  0.00  0.00    +0.000 C 
ATOM      4  C   UNL     1       5.991   6.122  17.834  0.00  0.00    +0.000 C 
ATOM      5  C   UNL     1       6.188   5.298  19.102  0.00  0.00    +0.000 C 
ATOM      6  N   UNL     1       5.070   4.383  19.387  0.00  0.00    +0.000 NA
ATOM      7  C   UNL     1       4.957   3.429  18.268  0.00  0.00    +0.000 C 
ATOM      8  C   UNL     1       4.756   4.081  16.893  0.00  0.00    +0.000 C 
ATOM      9  C   UNL     1       5.403   6.058  15.362  0.00  0.00    +0.000 C 
ENDROOT
BRANCH   1  10
ATOM     10  O   UNL     1       5.663   4.001  13.878  0.00  0.00    +0.000 OA
BRANCH  10  11
ATOM     11  C   UNL     1       6.249   3.540  12.663  0.00  0.00    +0.000 C 
BRANCH  11  13
ATOM     12  C   UNL     1       4.225   3.229  11.174  0.00  0.00    +0.000 C 
ATOM     13  C   UNL     1       5.305   2.528  12.001  0.00  0.00    +0.000 C 
ATOM     14  C   UNL     1       6.095   1.553  11.131  0.00  0.00    +0.000 C 
ENDBRANCH  11  13
ENDBRANCH  10  11
ENDBRANCH   1  10
BRANCH   6  15
ATOM     15  C   UNL     1       3.775   5.062  19.619  0.00  0.00    +0.000 C 
BRANCH  15  16
ATOM     16  C   UNL     1       2.632   4.178  20.030  0.00  0.00    +0.000 A 
ATOM     17  N   UNL     1       2.494   3.637  21.230  0.00  0.00    +0.000 NA
ATOM     18  C   UNL     1       1.300   2.970  21.212  0.00  0.00    +0.000 A 
ATOM     19  C   UNL     1       0.698   3.093  19.985  0.00  0.00    +0.000 A 
ATOM     20  N   UNL     1       1.561   3.846  19.234  0.00  0.00    +0.000 N 
ATOM     21  C   UNL     1       1.364   4.209  17.852  0.00  0.00    +0.000 C 
ENDBRANCH  15  16
ENDBRANCH   6  15
TORSDOF 5
ENDMDL
MODEL 2
REMARK VINA RESULT:      -7.3      0.841      1.405
REMARK  Name = 
REMARK  8 active torsions:
REMARK  status: ('A' for Active; 'I' for Inactive)
REMARK    1  A    between atoms: C_1  and  C_2
REMARK    2  A    between atoms: C_2  and  C_3
REMARK    3  A    between atoms: C_2  and  C_4
REMARK    4  A    between atoms: C_4  and  O_5
REMARK    5  A    between atoms: O_5  and  C_6
REMARK    6  A    between atoms: N_11  and  C_12
REMARK    7  A    between atoms: C_12  and  C_13
REMARK    8  A    between atoms: N_17  and  C_18
REMARK                            x       y       z     vdW  Elec       q    Type
REMARK                         _______ _______ _______ _____ _____    ______ ____
ROOT
ATOM      1  C   UNL     1       6.765   4.948  14.295  0.00  0.00    +0.000 C 
ATOM      2  C   UNL     1       7.201   4.964  15.785  0.00  0.00    +0.000 C 
ATOM      3  C   UNL     1       5.708   5.220  16.170  0.00  0.00    +0.000 C 
ATOM      4  C   UNL     1       5.465   6.319  17.209  0.00  0.00    +0.000 C 
ATOM      5  C   UNL     1       5.469   5.743  18.621  0.00  0.00    +0.000 C 
ATOM      6  N   UNL     1       4.483   4.668  18.819  0.00  0.00    +0.000 NA
ATOM      7  C   UNL     1       4.816   3.561  17.903  0.00  0.00    +0.000 C 
ATOM      8  C   UNL     1       4.864   3.955  16.420  0.00  0.00    +0.000 C 
ATOM      9  C   UNL     1       5.540   5.783  14.725  0.00  0.00    +0.000 C 
ENDROOT
BRANCH   1  10
ATOM     10  O   UNL     1       6.503   3.633  13.750  0.00  0.00    +0.000 OA
BRANCH  10  11
ATOM     11  C   UNL     1       6.456   3.528  12.329  0.00  0.00    +0.000 C 
BRANCH  11  13
ATOM     12  C   UNL     1       4.257   3.229  11.111  0.00  0.00    +0.000 C 
ATOM     13  C   UNL     1       5.350   2.542  11.934  0.00  0.00    +0.000 C 
ATOM     14  C   UNL     1       5.938   1.363  11.161  0.00  0.00    +0.000 C 
ENDBRANCH  11  13
ENDBRANCH  10  11
ENDBRANCH   1  10
BRANCH   6  15
ATOM     15  C   UNL     1       3.077   5.092  18.627  0.00  0.00    +0.000 C 
BRANCH  15  16
ATOM     16  C   UNL     1       2.030   4.067  18.959  0.00  0.00    +0.000 A 
ATOM     17  N   UNL     1       1.285   3.437  18.065  0.00  0.00    +0.000 NA
ATOM     18  C   UNL     1       0.517   2.550  18.768  0.00  0.00    +0.000 A 
ATOM     19  C   UNL     1       0.785   2.639  20.111  0.00  0.00    +0.000 A 
ATOM     20  N   UNL     1       1.733   3.619  20.225  0.00  0.00    +0.000 N 
ATOM     21  C   UNL     1       2.301   4.089  21.464  0.00  0.00    +0.000 C 
ENDBRANCH  15  16
ENDBRANCH   6  15
TORSDOF 5
ENDMDL
MODEL 3
REMARK VINA RESULT:      -7.2      1.971      2.234
REMARK  Name = 
REMARK  8 active torsions:
REMARK  status: ('A' for Active; 'I' for Inactive)
REMARK    1  A    between atoms: C_1  and  C_2
REMARK    2  A    between atoms: C_2  and  C_3
REMARK    3  A    between atoms: C_2  and  C_4
REMARK    4  A    between atoms: C_4  and  O_5
REMARK    5  A    between atoms: O_5  and  C_6
REMARK    6  A    between atoms: N_11  and  C_12
REMARK    7  A    between atoms: C_12  and  C_13
REMARK    8  A    between atoms: N_17  and  C_18
REMARK                            x       y       z     vdW  Elec       q    Type
REMARK                         _______ _______ _______ _____ _____    ______ ____
ROOT
ATOM      1  C   UNL     1       6.832   4.764  14.807  0.00  0.00    +0.000 C 
ATOM      2  C   UNL     1       6.988   4.562  16.338  0.00  0.00    +0.000 C 
ATOM      3  C   UNL     1       5.521   5.076  16.508  0.00  0.00    +0.000 C 
ATOM      4  C   UNL     1       5.299   6.105  17.620  0.00  0.00    +0.000 C 
ATOM      5  C   UNL     1       4.943   5.418  18.934  0.00  0.00    +0.000 C 
ATOM      6  N   UNL     1       3.760   4.548  18.840  0.00  0.00    +0.000 NA
ATOM      7  C   UNL     1       4.046   3.482  17.861  0.00  0.00    +0.000 C 
ATOM      8  C   UNL     1       4.431   3.987  16.464  0.00  0.00    +0.000 C 
ATOM      9  C   UNL     1       5.722   5.786  15.134  0.00  0.00    +0.000 C 
ENDROOT
BRANCH   1  10
ATOM     10  O   UNL     1       6.439   3.582  14.072  0.00  0.00    +0.000 OA
BRANCH  10  11
ATOM     11  C   UNL     1       6.385   3.700  12.653  0.00  0.00    +0.000 C 
BRANCH  11  13
ATOM     12  C   UNL     1       4.286   3.255  11.309  0.00  0.00    +0.000 C 
ATOM     13  C   UNL     1       5.441   2.628  12.093  0.00  0.00    +0.000 C 
ATOM     14  C   UNL     1       6.212   1.646  11.213  0.00  0.00    +0.000 C 
ENDBRANCH  11  13
ENDBRANCH  10  11
ENDBRANCH   1  10
BRANCH   6  15
ATOM     15  C   UNL     1       2.512   5.259  18.478  0.00  0.00    +0.000 C 
BRANCH  15  16
ATOM     16  C   UNL     1       2.082   6.352  19.415  0.00  0.00    +0.000 A 
ATOM     17  N   UNL     1       1.683   6.159  20.662  0.00  0.00    +0.000 NA
ATOM     18  C   UNL     1       1.451   7.402  21.183  0.00  0.00    +0.000 A 
ATOM     19  C   UNL     1       1.700   8.373  20.245  0.00  0.00    +0.000 A 
ATOM     20  N   UNL     1       2.081   7.695  19.119  0.00  0.00    +0.000 N 
ATOM     21  C   UNL     1       2.413   8.302  17.854  0.00  0.00    +0.000 C 
ENDBRANCH  15  16
ENDBRANCH   6  15
TORSDOF 5
ENDMDL
MODEL 4
REMARK VINA RESULT:      -6.5      0.636      1.153
REMARK  Name = 
REMARK  8 active torsions:
REMARK  status: ('A' for Active; 'I' for Inactive)
REMARK    1  A    between atoms: C_1  and  C_2
REMARK    2  A    between atoms: C_2  and  C_3
REMARK    3  A    between atoms: C_2  and  C_4
REMARK    4  A    between atoms: C_4  and  O_5
REMARK    5  A    between atoms: O_5  and  C_6
REMARK    6  A    between atoms: N_11  and  C_12
REMARK    7  A    between atoms: C_12  and  C_13
REMARK    8  A    between atoms: N_17  and  C_18
REMARK                            x       y       z     vdW  Elec       q    Type
REMARK                         _______ _______ _______ _____ _____    ______ ____
ROOT
ATOM      1  C   UNL     1       6.155   4.921  14.558  0.00  0.00    +0.000 C 
ATOM      2  C   UNL     1       6.964   4.647  15.854  0.00  0.00    +0.000 C 
ATOM      3  C   UNL     1       5.716   5.110  16.675  0.00  0.00    +0.000 C 
ATOM      4  C   UNL     1       5.996   6.075  17.830  0.00  0.00    +0.000 C 
ATOM      5  C   UNL     1       6.252   5.313  19.126  0.00  0.00    +0.000 C 
ATOM      6  N   UNL     1       5.150   4.415  19.506  0.00  0.00    +0.000 NA
ATOM      7  C   UNL     1       4.985   3.408  18.441  0.00  0.00    +0.000 C 
ATOM      8  C   UNL     1       4.720   3.994  17.047  0.00  0.00    +0.000 C 
ATOM      9  C   UNL     1       5.294   5.893  15.393  0.00  0.00    +0.000 C 
ENDROOT
BRANCH   1  10
ATOM     10  O   UNL     1       5.486   3.766  14.000  0.00  0.00    +0.000 OA
BRANCH  10  11
ATOM     11  C   UNL     1       5.564   3.602  12.587  0.00  0.00    +0.000 C 
BRANCH  11  13
ATOM     12  C   UNL     1       7.272   2.354  11.196  0.00  0.00    +0.000 C 
ATOM     13  C   UNL     1       7.038   3.510  12.171  0.00  0.00    +0.000 C 
ATOM     14  C   UNL     1       7.501   4.829  11.556  0.00  0.00    +0.000 C 
ENDBRANCH  11  13
ENDBRANCH  10  11
ENDBRANCH   1  10
BRANCH   6  15
ATOM     15  C   UNL     1       3.866   5.108  19.765  0.00  0.00    +0.000 C 
BRANCH  15  16
ATOM     16  C   UNL     1       2.703   4.226  20.121  0.00  0.00    +0.000 A 
ATOM     17  N   UNL     1       2.547   3.622  21.288  0.00  0.00    +0.000 NA
ATOM     18  C   UNL     1       1.340   2.982  21.227  0.00  0.00    +0.000 A 
ATOM     19  C   UNL     1       0.747   3.187  20.006  0.00  0.00    +0.000 A 
ATOM     20  N   UNL     1       1.629   3.962  19.303  0.00  0.00    +0.000 N 
ATOM     21  C   UNL     1       1.448   4.406  17.943  0.00  0.00    +0.000 C 
ENDBRANCH  15  16
ENDBRANCH   6  15
TORSDOF 5
ENDMDL
MODEL 5
REMARK VINA RESULT:      -6.4      0.969      1.350
REMARK  Name = 
REMARK  8 active torsions:
REMARK  status: ('A' for Active; 'I' for Inactive)
REMARK    1  A    between atoms: C_1  and  C_2
REMARK    2  A    between atoms: C_2  and  C_3
REMARK    3  A    between atoms: C_2  and  C_4
REMARK    4  A    between atoms: C_4  and  O_5
REMARK    5  A    between atoms: O_5  and  C_6
REMARK    6  A    between atoms: N_11  and  C_12
REMARK    7  A    between atoms: C_12  and  C_13
REMARK    8  A    between atoms: N_17  and  C_18
REMARK                            x       y       z     vdW  Elec       q    Type
REMARK                         _______ _______ _______ _____ _____    ______ ____
ROOT
ATOM      1  C   UNL     1       6.694   4.859  14.287  0.00  0.00    +0.000 C 
ATOM      2  C   UNL     1       7.425   4.794  15.655  0.00  0.00    +0.000 C 
ATOM      3  C   UNL     1       6.075   5.177  16.343  0.00  0.00    +0.000 C 
ATOM      4  C   UNL     1       6.158   6.265  17.417  0.00  0.00    +0.000 C 
ATOM      5  C   UNL     1       6.396   5.653  18.794  0.00  0.00    +0.000 C 
ATOM      6  N   UNL     1       5.373   4.669  19.183  0.00  0.00    +0.000 NA
ATOM      7  C   UNL     1       5.402   3.561  18.209  0.00  0.00    +0.000 C 
ATOM      8  C   UNL     1       5.183   3.989  16.752  0.00  0.00    +0.000 C 
ATOM      9  C   UNL     1       5.669   5.793  14.968  0.00  0.00    +0.000 C 
ENDROOT
BRANCH   1  10
ATOM     10  O   UNL     1       6.200   3.590  13.798  0.00  0.00    +0.000 OA
BRANCH  10  11
ATOM     11  C   UNL     1       4.937   3.608  13.137  0.00  0.00    +0.000 C 
BRANCH  11  13
ATOM     12  C   UNL     1       5.844   1.873  11.532  0.00  0.00    +0.000 C 
ATOM     13  C   UNL     1       5.134   3.222  11.665  0.00  0.00    +0.000 C 
ATOM     14  C   UNL     1       3.791   3.192  10.938  0.00  0.00    +0.000 C 
ENDBRANCH  11  13
ENDBRANCH  10  11
ENDBRANCH   1  10
BRANCH   6  15
ATOM     15  C   UNL     1       4.005   5.226  19.290  0.00  0.00    +0.000 C 
BRANCH  15  16
ATOM     16  C   UNL     1       2.971   4.322  19.899  0.00  0.00    +0.000 A 
ATOM     17  N   UNL     1       3.022   3.000  19.875  0.00  0.00    +0.000 NA
ATOM     18  C   UNL     1       1.940   2.566  20.591  0.00  0.00    +0.000 A 
ATOM     19  C   UNL     1       1.210   3.631  21.055  0.00  0.00    +0.000 A 
ATOM     20  N   UNL     1       1.861   4.742  20.593  0.00  0.00    +0.000 N 
ATOM     21  C   UNL     1       1.437   6.105  20.804  0.00  0.00    +0.000 C 
ENDBRANCH  15  16
ENDBRANCH   6  15
TORSDOF 5
ENDMDL
MODEL 6
REMARK VINA RESULT:      -6.4      2.890      7.082
REMARK  Name = 
REMARK  8 active torsions:
REMARK  status: ('A' for Active; 'I' for Inactive)
REMARK    1  A    between atoms: C_1  and  C_2
REMARK    2  A    between atoms: C_2  and  C_3
REMARK    3  A    between atoms: C_2  and  C_4
REMARK    4  A    between atoms: C_4  and  O_5
REMARK    5  A    between atoms: O_5  and  C_6
REMARK    6  A    between atoms: N_11  and  C_12
REMARK    7  A    between atoms: C_12  and  C_13
REMARK    8  A    between atoms: N_17  and  C_18
REMARK                            x       y       z     vdW  Elec       q    Type
REMARK                         _______ _______ _______ _____ _____    ______ ____
ROOT
ATOM      1  C   UNL     1       3.763   4.738  19.822  0.00  0.00    +0.000 C 
ATOM      2  C   UNL     1       4.384   6.051  19.275  0.00  0.00    +0.000 C 
ATOM      3  C   UNL     1       5.291   5.180  18.345  0.00  0.00    +0.000 C 
ATOM      4  C   UNL     1       6.770   5.572  18.297  0.00  0.00    +0.000 C 
ATOM      5  C   UNL     1       7.029   6.582  17.184  0.00  0.00    +0.000 C 
ATOM      6  N   UNL     1       6.614   6.108  15.853  0.00  0.00    +0.000 NA
ATOM      7  C   UNL     1       5.159   5.865  15.883  0.00  0.00    +0.000 C 
ATOM      8  C   UNL     1       4.702   4.867  16.955  0.00  0.00    +0.000 C 
ATOM      9  C   UNL     1       5.060   4.029  19.373  0.00  0.00    +0.000 C 
ENDROOT
BRANCH   1  10
ATOM     10  O   UNL     1       2.535   4.327  19.176  0.00  0.00    +0.000 OA
BRANCH  10  11
ATOM     11  C   UNL     1       1.327   4.555  19.898  0.00  0.00    +0.000 C 
BRANCH  11  13
ATOM     12  C   UNL     1       0.782   2.214  19.100  0.00  0.00    +0.000 C 
ATOM     13  C   UNL     1       0.698   3.204  20.264  0.00  0.00    +0.000 C 
ATOM     14  C   UNL     1       1.368   2.624  21.507  0.00  0.00    +0.000 C 
ENDBRANCH  11  13
ENDBRANCH  10  11
ENDBRANCH   1  10
BRANCH   6  15
ATOM     15  C   UNL     1       7.330   4.897  15.390  0.00  0.00    +0.000 C 
BRANCH  15  16
ATOM     16  C   UNL     1       7.004   4.431  14.000  0.00  0.00    +0.000 A 
ATOM     17  N   UNL     1       6.103   3.507  13.708  0.00  0.00    +0.000 NA
ATOM     18  C   UNL     1       6.066   3.429  12.344  0.00  0.00    +0.000 A 
ATOM     19  C   UNL     1       6.960   4.308  11.786  0.00  0.00    +0.000 A 
ATOM     20  N   UNL     1       7.566   4.926  12.846  0.00  0.00    +0.000 N 
ATOM     21  C   UNL     1       8.611   5.915  12.748  0.00  0.00    +0.000 C 
ENDBRANCH  15  16
ENDBRANCH   6  15
TORSDOF 5
ENDMDL
MODEL 7
REMARK VINA RESULT:      -6.2      3.638      7.503
REMARK  Name = 
REMARK  8 active torsions:
REMARK  status: ('A' for Active; 'I' for Inactive)
REMARK    1  A    between atoms: C_1  and  C_2
REMARK    2  A    between atoms: C_2  and  C_3
REMARK    3  A    between atoms: C_2  and  C_4
REMARK    4  A    between atoms: C_4  and  O_5
REMARK    5  A    between atoms: O_5  and  C_6
REMARK    6  A    between atoms: N_11  and  C_12
REMARK    7  A    between atoms: C_12  and  C_13
REMARK    8  A    between atoms: N_17  and  C_18
REMARK                            x       y       z     vdW  Elec       q    Type
REMARK                         _______ _______ _______ _____ _____    ______ ____
ROOT
ATOM      1  C   UNL     1       2.274   6.119  19.614  0.00  0.00    +0.000 C 
ATOM      2  C   UNL     1       3.567   5.269  19.728  0.00  0.00    +0.000 C 
ATOM      3  C   UNL     1       3.583   5.169  18.168  0.00  0.00    +0.000 C 
ATOM      4  C   UNL     1       3.846   3.775  17.591  0.00  0.00    +0.000 C 
ATOM      5  C   UNL     1       5.338   3.550  17.370  0.00  0.00    +0.000 C 
ATOM      6  N   UNL     1       5.960   4.558  16.496  0.00  0.00    +0.000 NA
ATOM      7  C   UNL     1       5.814   5.879  17.136  0.00  0.00    +0.000 C 
ATOM      8  C   UNL     1       4.366   6.281  17.443  0.00  0.00    +0.000 C 
ATOM      9  C   UNL     1       2.051   5.455  18.238  0.00  0.00    +0.000 C 
ENDROOT
BRANCH   1  10
ATOM     10  O   UNL     1       2.481   7.551  19.624  0.00  0.00    +0.000 OA
BRANCH  10  11
ATOM     11  C   UNL     1       1.448   8.343  20.205  0.00  0.00    +0.000 C 
BRANCH  11  13
ATOM     12  C   UNL     1       1.472   9.236  17.836  0.00  0.00    +0.000 C 
ATOM     13  C   UNL     1       1.175   9.554  19.303  0.00  0.00    +0.000 C 
ATOM     14  C   UNL     1      -0.269  10.024  19.466  0.00  0.00    +0.000 C 
ENDBRANCH  11  13
ENDBRANCH  10  11
ENDBRANCH   1  10
BRANCH   6  15
ATOM     15  C   UNL     1       5.412   4.588  15.120  0.00  0.00    +0.000 C 
BRANCH  15  16
ATOM     16  C   UNL     1       6.418   4.730  14.013  0.00  0.00    +0.000 A 
ATOM     17  N   UNL     1       7.507   5.478  14.079  0.00  0.00    +0.000 NA
ATOM     18  C   UNL     1       8.178   5.277  12.905  0.00  0.00    +0.000 A 
ATOM     19  C   UNL     1       7.491   4.402  12.101  0.00  0.00    +0.000 A 
ATOM     20  N   UNL     1       6.364   4.076  12.805  0.00  0.00    +0.000 N 
ATOM     21  C   UNL     1       5.315   3.202  12.340  0.00  0.00    +0.000 C 
ENDBRANCH  15  16
ENDBRANCH   6  15
TORSDOF 5
ENDMDL
MODEL 8
REMARK VINA RESULT:      -6.1      1.819      2.273
REMARK  Name = 
REMARK  8 active torsions:
REMARK  status: ('A' for Active; 'I' for Inactive)
REMARK    1  A    between atoms: C_1  and  C_2
REMARK    2  A    between atoms: C_2  and  C_3
REMARK    3  A    between atoms: C_2  and  C_4
REMARK    4  A    between atoms: C_4  and  O_5
REMARK    5  A    between atoms: O_5  and  C_6
REMARK    6  A    between atoms: N_11  and  C_12
REMARK    7  A    between atoms: C_12  and  C_13
REMARK    8  A    between atoms: N_17  and  C_18
REMARK                            x       y       z     vdW  Elec       q    Type
REMARK                         _______ _______ _______ _____ _____    ______ ____
ROOT
ATOM      1  C   UNL     1       7.016   4.783  14.706  0.00  0.00    +0.000 C 
ATOM      2  C   UNL     1       7.133   4.517  16.231  0.00  0.00    +0.000 C 
ATOM      3  C   UNL     1       5.683   5.078  16.393  0.00  0.00    +0.000 C 
ATOM      4  C   UNL     1       5.474   6.072  17.539  0.00  0.00    +0.000 C 
ATOM      5  C   UNL     1       5.068   5.348  18.819  0.00  0.00    +0.000 C 
ATOM      6  N   UNL     1       3.856   4.526  18.669  0.00  0.00    +0.000 NA
ATOM      7  C   UNL     1       4.124   3.489  17.655  0.00  0.00    +0.000 C 
ATOM      8  C   UNL     1       4.555   4.032  16.287  0.00  0.00    +0.000 C 
ATOM      9  C   UNL     1       5.936   5.832  15.051  0.00  0.00    +0.000 C 
ENDROOT
BRANCH   1  10
ATOM     10  O   UNL     1       6.595   3.645  13.918  0.00  0.00    +0.000 OA
BRANCH  10  11
ATOM     11  C   UNL     1       5.548   3.871  12.977  0.00  0.00    +0.000 C 
BRANCH  11  13
ATOM     12  C   UNL     1       4.326   2.846  11.012  0.00  0.00    +0.000 C 
ATOM     13  C   UNL     1       5.424   2.648  12.060  0.00  0.00    +0.000 C 
ATOM     14  C   UNL     1       6.760   2.351  11.383  0.00  0.00    +0.000 C 
ENDBRANCH  11  13
ENDBRANCH  10  11
ENDBRANCH   1  10
BRANCH   6  15
ATOM     15  C   UNL     1       2.643   5.296  18.312  0.00  0.00    +0.000 C 
BRANCH  15  16
ATOM     16  C   UNL     1       2.237   6.372  19.279  0.00  0.00    +0.000 A 
ATOM     17  N   UNL     1       2.223   7.665  19.001  0.00  0.00    +0.000 NA
ATOM     18  C   UNL     1       1.731   8.289  20.115  0.00  0.00    +0.000 A 
ATOM     19  C   UNL     1       1.446   7.370  21.094  0.00  0.00    +0.000 A 
ATOM     20  N   UNL     1       1.789   6.158  20.561  0.00  0.00    +0.000 N 
ATOM     21  C   UNL     1       1.695   4.890  21.244  0.00  0.00    +0.000 C 
ENDBRANCH  15  16
ENDBRANCH   6  15
TORSDOF 5
ENDMDL
MODEL 9
REMARK VINA RESULT:      -6.1      0.661      1.258
REMARK  Name = 
REMARK  8 active torsions:
REMARK  status: ('A' for Active; 'I' for Inactive)
REMARK    1  A    between atoms: C_1  and  C_2
REMARK    2  A    between atoms: C_2  and  C_3
REMARK    3  A    between atoms: C_2  and  C_4
REMARK    4  A    between atoms: C_4  and  O_5
REMARK    5  A    between atoms: O_5  and  C_6
REMARK    6  A    between atoms: N_11  and  C_12
REMARK    7  A    between atoms: C_12  and  C_13
REMARK    8  A    between atoms: N_17  and  C_18
REMARK                            x       y       z     vdW  Elec       q    Type
REMARK                         _______ _______ _______ _____ _____    ______ ____
ROOT
ATOM      1  C   UNL     1       6.181   5.259  14.416  0.00  0.00    +0.000 C 
ATOM      2  C   UNL     1       6.921   4.699  15.661  0.00  0.00    +0.000 C 
ATOM      3  C   UNL     1       5.719   5.182  16.536  0.00  0.00    +0.000 C 
ATOM      4  C   UNL     1       6.085   5.924  17.824  0.00  0.00    +0.000 C 
ATOM      5  C   UNL     1       6.219   4.952  18.992  0.00  0.00    +0.000 C 
ATOM      6  N   UNL     1       5.009   4.148  19.228  0.00  0.00    +0.000 NA
ATOM      7  C   UNL     1       4.750   3.338  18.022  0.00  0.00    +0.000 C 
ATOM      8  C   UNL     1       4.589   4.152  16.731  0.00  0.00    +0.000 C 
ATOM      9  C   UNL     1       5.423   6.193  15.385  0.00  0.00    +0.000 C 
ENDROOT
BRANCH   1  10
ATOM     10  O   UNL     1       5.391   4.290  13.689  0.00  0.00    +0.000 OA
BRANCH  10  11
ATOM     11  C   UNL     1       6.108   3.355  12.885  0.00  0.00    +0.000 C 
BRANCH  11  13
ATOM     12  C   UNL     1       4.143   3.414  11.289  0.00  0.00    +0.000 C 
ATOM     13  C   UNL     1       5.110   2.522  12.071  0.00  0.00    +0.000 C 
ATOM     14  C   UNL     1       5.850   1.579  11.125  0.00  0.00    +0.000 C 
ENDBRANCH  11  13
ENDBRANCH  10  11
ENDBRANCH   1  10
BRANCH   6  15
ATOM     15  C   UNL     1       3.812   4.944  19.581  0.00  0.00    +0.000 C 
BRANCH  15  16
ATOM     16  C   UNL     1       2.566   4.161  19.886  0.00  0.00    +0.000 A 
ATOM     17  N   UNL     1       1.350   4.499  19.490  0.00  0.00    +0.000 NA
ATOM     18  C   UNL     1       0.520   3.497  19.910  0.00  0.00    +0.000 A 
ATOM     19  C   UNL     1       1.230   2.533  20.581  0.00  0.00    +0.000 A 
ATOM     20  N   UNL     1       2.526   2.973  20.577  0.00  0.00    +0.000 N 
ATOM     21  C   UNL     1       3.638   2.297  21.201  0.00  0.00    +0.000 C 
ENDBRANCH  15  16
ENDBRANCH   6  15
TORSDOF 5
ENDMDL
