MODEL 1
REMARK VINA RESULT:      -7.5      0.000      0.000
REMARK  Name = 
REMARK  8 active torsions:
REMARK  status: ('A' for Active; 'I' for Inactive)
REMARK    1  A    between atoms: C_1  and  C_2
REMARK    2  A    between atoms: C_4  and  C_5
REMARK    3  A    between atoms: C_7  and  N_8
REMARK    4  A    between atoms: C_9  and  C_11
REMARK    5  A    between atoms: C_11  and  N_12
REMARK    6  A    between atoms: N_12  and  C_13
REMARK    7  A    between atoms: N_12  and  S_14
REMARK    8  A    between atoms: S_14  and  C_17
REMARK                            x       y       z     vdW  Elec       q    Type
REMARK                         _______ _______ _______ _____ _____    ______ ____
ROOT
ATOM      1  N   UNL     1       2.987   7.864  18.149  0.00  0.00    +0.000 N 
ATOM      2  C   UNL     1       3.057   6.506  17.855  0.00  0.00    +0.000 C 
ATOM      3  O   UNL     1       2.187   5.667  18.075  0.00  0.00    +0.000 OA
ATOM      4  H   UNL     1       3.806   8.416  17.919  0.00  0.00    +0.000 HD
ENDROOT
BRANCH   1  11
ATOM      5  C   UNL     1       0.549   8.996  22.308  0.00  0.00    +0.000 C 
ATOM      6  C   UNL     1       0.695   9.098  20.817  0.00  0.00    +0.000 A 
ATOM      7  C   UNL     1      -0.211   9.863  20.073  0.00  0.00    +0.000 A 
ATOM      8  C   UNL     1      -0.074   9.971  18.688  0.00  0.00    +0.000 A 
ATOM      9  C   UNL     1      -1.032  10.775  17.861  0.00  0.00    +0.000 C 
ATOM     10  C   UNL     1       0.986   9.312  18.049  0.00  0.00    +0.000 A 
ATOM     11  C   UNL     1       1.905   8.542  18.764  0.00  0.00    +0.000 A 
ATOM     12  C   UNL     1       1.747   8.435  20.154  0.00  0.00    +0.000 A 
ENDBRANCH   1  11
BRANCH   2  13
ATOM     13  C   UNL     1       4.356   6.088  17.183  0.00  0.00    +0.000 C 
BRANCH  13  14
ATOM     14  N   UNL     1       5.459   5.851  18.151  0.00  0.00    +0.000 NA
ATOM     15  C   UNL     1       5.144   4.796  19.147  0.00  0.00    +0.000 C 
BRANCH  14  16
ATOM     16  S   UNL     1       6.988   5.658  17.403  0.00  0.00    +0.000 S 
ATOM     17  O   UNL     1       7.517   6.976  17.117  0.00  0.00    +0.000 OA
ATOM     18  O   UNL     1       7.750   4.690  18.164  0.00  0.00    +0.000 OA
BRANCH  16  19
ATOM     19  C   UNL     1       6.827   4.917  15.824  0.00  0.00    +0.000 A 
ATOM     20  C   UNL     1       6.143   3.749  15.544  0.00  0.00    +0.000 A 
ATOM     21  N   UNL     1       6.277   3.565  14.197  0.00  0.00    +0.000 N 
ATOM     22  C   UNL     1       7.019   4.605  13.709  0.00  0.00    +0.000 A 
ATOM     23  N   UNL     1       7.374   5.437  14.660  0.00  0.00    +0.000 NA
ATOM     24  H   UNL     1       5.893   2.803  13.653  0.00  0.00    +0.000 HD
ENDBRANCH  16  19
ENDBRANCH  14  16
ENDBRANCH  13  14
ENDBRANCH   2  13
TORSDOF 5
ENDMDL
MODEL 2
REMARK VINA RESULT:      -7.5      3.553      7.851
REMARK  Name = 
REMARK  8 active torsions:
REMARK  status: ('A' for Active; 'I' for Inactive)
REMARK    1  A    between atoms: C_1  and  C_2
REMARK    2  A    between atoms: C_4  and  C_5
REMARK    3  A    between atoms: C_7  and  N_8
REMARK    4  A    between atoms: C_9  and  C_11
REMARK    5  A    between atoms: C_11  and  N_12
REMARK    6  A    between atoms: N_12  and  C_13
REMARK    7  A    between atoms: N_12  and  S_14
REMARK    8  A    between atoms: S_14  and  C_17
REMARK                            x       y       z     vdW  Elec       q    Type
REMARK                         _______ _______ _______ _____ _____    ______ ____
ROOT
ATOM      1  N   UNL     1       6.271   4.611  16.183  0.00  0.00    +0.000 N 
ATOM      2  C   UNL     1       6.078   5.783  16.905  0.00  0.00    +0.000 C 
ATOM      3  O   UNL     1       6.074   6.926  16.452  0.00  0.00    +0.000 OA
ATOM      4  H   UNL     1       6.265   3.748  16.717  0.00  0.00    +0.000 HD
ENDROOT
BRANCH   1  11
ATOM      5  C   UNL     1       8.773   6.176  12.206  0.00  0.00    +0.000 C 
ATOM      6  C   UNL     1       7.739   5.278  12.822  0.00  0.00    +0.000 A 
ATOM      7  C   UNL     1       7.049   4.353  12.029  0.00  0.00    +0.000 A 
ATOM      8  C   UNL     1       6.094   3.509  12.598  0.00  0.00    +0.000 A 
ATOM      9  C   UNL     1       5.333   2.513  11.775  0.00  0.00    +0.000 C 
ATOM     10  C   UNL     1       5.837   3.590  13.973  0.00  0.00    +0.000 A 
ATOM     11  C   UNL     1       6.508   4.504  14.790  0.00  0.00    +0.000 A 
ATOM     12  C   UNL     1       7.457   5.352  14.201  0.00  0.00    +0.000 A 
ENDBRANCH   1  11
BRANCH   2  13
ATOM     13  C   UNL     1       5.839   5.560  18.390  0.00  0.00    +0.000 C 
BRANCH  13  14
ATOM     14  N   UNL     1       4.419   5.252  18.709  0.00  0.00    +0.000 NA
ATOM     15  C   UNL     1       3.458   5.952  17.820  0.00  0.00    +0.000 C 
BRANCH  14  16
ATOM     16  S   UNL     1       4.110   3.575  18.876  0.00  0.00    +0.000 S 
ATOM     17  O   UNL     1       3.736   3.056  17.576  0.00  0.00    +0.000 OA
ATOM     18  O   UNL     1       5.192   2.986  19.638  0.00  0.00    +0.000 OA
BRANCH  16  19
ATOM     19  C   UNL     1       2.695   3.293  19.868  0.00  0.00    +0.000 A 
ATOM     20  C   UNL     1       1.382   3.470  19.474  0.00  0.00    +0.000 A 
ATOM     21  N   UNL     1       0.629   3.121  20.559  0.00  0.00    +0.000 N 
ATOM     22  C   UNL     1       1.487   2.750  21.557  0.00  0.00    +0.000 A 
ATOM     23  N   UNL     1       2.741   2.845  21.180  0.00  0.00    +0.000 NA
ATOM     24  H   UNL     1      -0.382   3.130  20.618  0.00  0.00    +0.000 HD
ENDBRANCH  16  19
ENDBRANCH  14  16
ENDBRANCH  13  14
ENDBRANCH   2  13
TORSDOF 5
ENDMDL
MODEL 3
REMARK VINA RESULT:      -7.5      0.186      1.845
REMARK  Name = 
REMARK  8 active torsions:
REMARK  status: ('A' for Active; 'I' for Inactive)
REMARK    1  A    between atoms: C_1  and  C_2
REMARK    2  A    between atoms: C_4  and  C_5
REMARK    3  A    between atoms: C_7  and  N_8
REMARK    4  A    between atoms: C_9  and  C_11
REMARK    5  A    between atoms: C_11  and  N_12
REMARK    6  A    between atoms: N_12  and  C_13
REMARK    7  A    between atoms: N_12  and  S_14
REMARK    8  A    between atoms: S_14  and  C_17
REMARK                            x       y       z     vdW  Elec       q    Type
REMARK                         _______ _______ _______ _____ _____    ______ ____
ROOT
ATOM      1  N   UNL     1       2.911   8.062  18.207  0.00  0.00    +0.000 N 
ATOM      2  C   UNL     1       3.059   6.710  17.918  0.00  0.00    +0.000 C 
ATOM      3  O   UNL     1       2.243   5.821  18.153  0.00  0.00    +0.000 OA
ATOM      4  H   UNL     1       3.693   8.661  17.963  0.00  0.00    +0.000 HD
ENDROOT
BRANCH   1  11
ATOM      5  C   UNL     1      -1.226  10.746  17.753  0.00  0.00    +0.000 C 
ATOM      6  C   UNL     1      -0.242  10.008  18.615  0.00  0.00    +0.000 A 
ATOM      7  C   UNL     1      -0.443   9.924  19.997  0.00  0.00    +0.000 A 
ATOM      8  C   UNL     1       0.462   9.231  20.802  0.00  0.00    +0.000 A 
ATOM      9  C   UNL     1       0.280   9.130  22.287  0.00  0.00    +0.000 C 
ATOM     10  C   UNL     1       1.572   8.610  20.211  0.00  0.00    +0.000 A 
ATOM     11  C   UNL     1       1.799   8.677  18.834  0.00  0.00    +0.000 A 
ATOM     12  C   UNL     1       0.886   9.387  18.042  0.00  0.00    +0.000 A 
ENDBRANCH   1  11
BRANCH   2  13
ATOM     13  C   UNL     1       4.371   6.366  17.230  0.00  0.00    +0.000 C 
BRANCH  13  14
ATOM     14  N   UNL     1       5.444   5.984  18.186  0.00  0.00    +0.000 NA
ATOM     15  C   UNL     1       5.053   4.868  19.084  0.00  0.00    +0.000 C 
BRANCH  14  16
ATOM     16  S   UNL     1       6.971   5.766  17.440  0.00  0.00    +0.000 S 
ATOM     17  O   UNL     1       7.498   7.074  17.108  0.00  0.00    +0.000 OA
ATOM     18  O   UNL     1       7.735   4.825  18.232  0.00  0.00    +0.000 OA
BRANCH  16  19
ATOM     19  C   UNL     1       6.805   4.971  15.888  0.00  0.00    +0.000 A 
ATOM     20  C   UNL     1       6.110   3.801  15.647  0.00  0.00    +0.000 A 
ATOM     21  N   UNL     1       6.245   3.570  14.308  0.00  0.00    +0.000 N 
ATOM     22  C   UNL     1       6.998   4.584  13.785  0.00  0.00    +0.000 A 
ATOM     23  N   UNL     1       7.359   5.446  14.707  0.00  0.00    +0.000 NA
ATOM     24  H   UNL     1       5.854   2.793  13.789  0.00  0.00    +0.000 HD
ENDBRANCH  16  19
ENDBRANCH  14  16
ENDBRANCH  13  14
ENDBRANCH   2  13
TORSDOF 5
ENDMDL
MODEL 4
REMARK VINA RESULT:      -7.5      3.601      7.825
REMARK  Name = 
REMARK  8 active torsions:
REMARK  status: ('A' for Active; 'I' for Inactive)
REMARK    1  A    between atoms: C_1  and  C_2
REMARK    2  A    between atoms: C_4  and  C_5
REMARK    3  A    between atoms: C_7  and  N_8
REMARK    4  A    between atoms: C_9  and  C_11
REMARK    5  A    between atoms: C_11  and  N_12
REMARK    6  A    between atoms: N_12  and  C_13
REMARK    7  A    between atoms: N_12  and  S_14
REMARK    8  A    between atoms: S_14  and  C_17
REMARK                            x       y       z     vdW  Elec       q    Type
REMARK                         _______ _______ _______ _____ _____    ______ ____
ROOT
ATOM      1  N   UNL     1       6.280   4.563  16.317  0.00  0.00    +0.000 N 
ATOM      2  C   UNL     1       6.345   5.684  17.137  0.00  0.00    +0.000 C 
ATOM      3  O   UNL     1       6.635   6.827  16.789  0.00  0.00    +0.000 OA
ATOM      4  H   UNL     1       6.044   3.687  16.771  0.00  0.00    +0.000 HD
ENDROOT
BRANCH   1  11
ATOM      5  C   UNL     1       5.193   2.629  11.889  0.00  0.00    +0.000 C 
ATOM      6  C   UNL     1       6.013   3.559  12.737  0.00  0.00    +0.000 A 
ATOM      7  C   UNL     1       6.995   4.363  12.149  0.00  0.00    +0.000 A 
ATOM      8  C   UNL     1       7.754   5.237  12.930  0.00  0.00    +0.000 A 
ATOM      9  C   UNL     1       8.819   6.106  12.331  0.00  0.00    +0.000 C 
ATOM     10  C   UNL     1       7.516   5.307  14.310  0.00  0.00    +0.000 A 
ATOM     11  C   UNL     1       6.544   4.516  14.925  0.00  0.00    +0.000 A 
ATOM     12  C   UNL     1       5.798   3.636  14.128  0.00  0.00    +0.000 A 
ENDBRANCH   1  11
BRANCH   2  13
ATOM     13  C   UNL     1       5.995   5.405  18.591  0.00  0.00    +0.000 C 
BRANCH  13  14
ATOM     14  N   UNL     1       4.543   5.165  18.802  0.00  0.00    +0.000 NA
ATOM     15  C   UNL     1       3.684   5.935  17.868  0.00  0.00    +0.000 C 
BRANCH  14  16
ATOM     16  S   UNL     1       4.138   3.503  18.902  0.00  0.00    +0.000 S 
ATOM     17  O   UNL     1       3.797   3.043  17.571  0.00  0.00    +0.000 OA
ATOM     18  O   UNL     1       5.150   2.834  19.693  0.00  0.00    +0.000 OA
BRANCH  16  19
ATOM     19  C   UNL     1       2.665   3.268  19.820  0.00  0.00    +0.000 A 
ATOM     20  C   UNL     1       1.379   3.463  19.351  0.00  0.00    +0.000 A 
ATOM     21  N   UNL     1       0.561   3.152  20.400  0.00  0.00    +0.000 N 
ATOM     22  C   UNL     1       1.356   2.785  21.451  0.00  0.00    +0.000 A 
ATOM     23  N   UNL     1       2.630   2.847  21.141  0.00  0.00    +0.000 NA
ATOM     24  H   UNL     1      -0.451   3.181  20.404  0.00  0.00    +0.000 HD
ENDBRANCH  16  19
ENDBRANCH  14  16
ENDBRANCH  13  14
ENDBRANCH   2  13
TORSDOF 5
ENDMDL
MODEL 5
REMARK VINA RESULT:      -7.4      2.931      4.419
REMARK  Name = 
REMARK  8 active torsions:
REMARK  status: ('A' for Active; 'I' for Inactive)
REMARK    1  A    between atoms: C_1  and  C_2
REMARK    2  A    between atoms: C_4  and  C_5
REMARK    3  A    between atoms: C_7  and  N_8
REMARK    4  A    between atoms: C_9  and  C_11
REMARK    5  A    between atoms: C_11  and  N_12
REMARK    6  A    between atoms: N_12  and  C_13
REMARK    7  A    between atoms: N_12  and  S_14
REMARK    8  A    between atoms: S_14  and  C_17
REMARK                            x       y       z     vdW  Elec       q    Type
REMARK                         _______ _______ _______ _____ _____    ______ ____
ROOT
ATOM      1  N   UNL     1       2.838   7.282  19.856  0.00  0.00    +0.000 N 
ATOM      2  C   UNL     1       2.886   6.311  18.861  0.00  0.00    +0.000 C 
ATOM      3  O   UNL     1       2.023   6.090  18.016  0.00  0.00    +0.000 OA
ATOM      4  H   UNL     1       3.631   7.317  20.488  0.00  0.00    +0.000 HD
ENDROOT
BRANCH   1  11
ATOM      5  C   UNL     1      -0.243   9.402  23.102  0.00  0.00    +0.000 C 
ATOM      6  C   UNL     1       0.257   9.243  21.694  0.00  0.00    +0.000 A 
ATOM      7  C   UNL     1      -0.305  10.002  20.660  0.00  0.00    +0.000 A 
ATOM      8  C   UNL     1       0.162   9.866  19.351  0.00  0.00    +0.000 A 
ATOM      9  C   UNL     1      -0.423  10.658  18.220  0.00  0.00    +0.000 C 
ATOM     10  C   UNL     1       1.205   8.969  19.083  0.00  0.00    +0.000 A 
ATOM     11  C   UNL     1       1.784   8.198  20.094  0.00  0.00    +0.000 A 
ATOM     12  C   UNL     1       1.296   8.338  21.401  0.00  0.00    +0.000 A 
ENDBRANCH   1  11
BRANCH   2  13
ATOM     13  C   UNL     1       4.166   5.488  18.865  0.00  0.00    +0.000 C 
BRANCH  13  14
ATOM     14  N   UNL     1       4.087   4.290  17.987  0.00  0.00    +0.000 NA
ATOM     15  C   UNL     1       5.131   4.273  16.932  0.00  0.00    +0.000 C 
BRANCH  14  16
ATOM     16  S   UNL     1       3.960   2.820  18.857  0.00  0.00    +0.000 S 
ATOM     17  O   UNL     1       3.681   1.760  17.909  0.00  0.00    +0.000 OA
ATOM     18  O   UNL     1       5.078   2.734  19.774  0.00  0.00    +0.000 OA
BRANCH  16  19
ATOM     19  C   UNL     1       2.557   2.828  19.906  0.00  0.00    +0.000 A 
ATOM     20  C   UNL     1       1.246   2.994  19.502  0.00  0.00    +0.000 A 
ATOM     21  N   UNL     1       0.504   2.920  20.646  0.00  0.00    +0.000 N 
ATOM     22  C   UNL     1       1.366   2.715  21.688  0.00  0.00    +0.000 A 
ATOM     23  N   UNL     1       2.613   2.659  21.282  0.00  0.00    +0.000 NA
ATOM     24  H   UNL     1      -0.504   2.998  20.717  0.00  0.00    +0.000 HD
ENDBRANCH  16  19
ENDBRANCH  14  16
ENDBRANCH  13  14
ENDBRANCH   2  13
TORSDOF 5
ENDMDL
MODEL 6
REMARK VINA RESULT:      -7.4      2.902      4.759
REMARK  Name = 
REMARK  8 active torsions:
REMARK  status: ('A' for Active; 'I' for Inactive)
REMARK    1  A    between atoms: C_1  and  C_2
REMARK    2  A    between atoms: C_4  and  C_5
REMARK    3  A    between atoms: C_7  and  N_8
REMARK    4  A    between atoms: C_9  and  C_11
REMARK    5  A    between atoms: C_11  and  N_12
REMARK    6  A    between atoms: N_12  and  C_13
REMARK    7  A    between atoms: N_12  and  S_14
REMARK    8  A    between atoms: S_14  and  C_17
REMARK                            x       y       z     vdW  Elec       q    Type
REMARK                         _______ _______ _______ _____ _____    ______ ____
ROOT
ATOM      1  N   UNL     1       2.770   7.322  20.049  0.00  0.00    +0.000 N 
ATOM      2  C   UNL     1       2.882   6.482  18.947  0.00  0.00    +0.000 C 
ATOM      3  O   UNL     1       2.090   6.398  18.010  0.00  0.00    +0.000 OA
ATOM      4  H   UNL     1       3.505   7.250  20.745  0.00  0.00    +0.000 HD
ENDROOT
BRANCH   1  11
ATOM      5  C   UNL     1      -0.423  10.681  18.304  0.00  0.00    +0.000 C 
ATOM      6  C   UNL     1       0.146   9.901  19.455  0.00  0.00    +0.000 A 
ATOM      7  C   UNL     1      -0.371  10.074  20.744  0.00  0.00    +0.000 A 
ATOM      8  C   UNL     1       0.147   9.345  21.816  0.00  0.00    +0.000 A 
ATOM      9  C   UNL     1      -0.379   9.513  23.211  0.00  0.00    +0.000 C 
ATOM     10  C   UNL     1       1.185   8.431  21.588  0.00  0.00    +0.000 A 
ATOM     11  C   UNL     1       1.721   8.237  20.313  0.00  0.00    +0.000 A 
ATOM     12  C   UNL     1       1.197   8.986  19.249  0.00  0.00    +0.000 A 
ENDBRANCH   1  11
BRANCH   2  13
ATOM     13  C   UNL     1       4.135   5.620  18.953  0.00  0.00    +0.000 C 
BRANCH  13  14
ATOM     14  N   UNL     1       4.051   4.467  18.018  0.00  0.00    +0.000 NA
ATOM     15  C   UNL     1       5.070   4.514  16.941  0.00  0.00    +0.000 C 
BRANCH  14  16
ATOM     16  S   UNL     1       3.959   2.953  18.817  0.00  0.00    +0.000 S 
ATOM     17  O   UNL     1       3.646   1.942  17.827  0.00  0.00    +0.000 OA
ATOM     18  O   UNL     1       5.112   2.825  19.684  0.00  0.00    +0.000 OA
BRANCH  16  19
ATOM     19  C   UNL     1       2.598   2.903  19.918  0.00  0.00    +0.000 A 
ATOM     20  C   UNL     1       1.271   3.073  19.572  0.00  0.00    +0.000 A 
ATOM     21  N   UNL     1       0.574   2.944  20.740  0.00  0.00    +0.000 N 
ATOM     22  C   UNL     1       1.478   2.704  21.738  0.00  0.00    +0.000 A 
ATOM     23  N   UNL     1       2.709   2.677  21.282  0.00  0.00    +0.000 NA
ATOM     24  H   UNL     1      -0.430   3.009  20.852  0.00  0.00    +0.000 HD
ENDBRANCH  16  19
ENDBRANCH  14  16
ENDBRANCH  13  14
ENDBRANCH   2  13
TORSDOF 5
ENDMDL
MODEL 7
REMARK VINA RESULT:      -7.4      2.818      4.538
REMARK  Name = 
REMARK  8 active torsions:
REMARK  status: ('A' for Active; 'I' for Inactive)
REMARK    1  A    between atoms: C_1  and  C_2
REMARK    2  A    between atoms: C_4  and  C_5
REMARK    3  A    between atoms: C_7  and  N_8
REMARK    4  A    between atoms: C_9  and  C_11
REMARK    5  A    between atoms: C_11  and  N_12
REMARK    6  A    between atoms: N_12  and  C_13
REMARK    7  A    between atoms: N_12  and  S_14
REMARK    8  A    between atoms: S_14  and  C_17
REMARK                            x       y       z     vdW  Elec       q    Type
REMARK                         _______ _______ _______ _____ _____    ______ ____
ROOT
ATOM      1  N   UNL     1       2.468   6.901  19.816  0.00  0.00    +0.000 N 
ATOM      2  C   UNL     1       3.242   6.731  18.673  0.00  0.00    +0.000 C 
ATOM      3  O   UNL     1       3.370   7.535  17.753  0.00  0.00    +0.000 OA
ATOM      4  H   UNL     1       2.457   6.126  20.471  0.00  0.00    +0.000 HD
ENDROOT
BRANCH   1  11
ATOM      5  C   UNL     1       0.030   9.485  23.267  0.00  0.00    +0.000 C 
ATOM      6  C   UNL     1       0.461   9.303  21.839  0.00  0.00    +0.000 A 
ATOM      7  C   UNL     1       0.089  10.242  20.869  0.00  0.00    +0.000 A 
ATOM      8  C   UNL     1       0.495  10.083  19.542  0.00  0.00    +0.000 A 
ATOM      9  C   UNL     1       0.107  11.066  18.478  0.00  0.00    +0.000 C 
ATOM     10  C   UNL     1       1.285   8.980  19.192  0.00  0.00    +0.000 A 
ATOM     11  C   UNL     1       1.670   8.027  20.138  0.00  0.00    +0.000 A 
ATOM     12  C   UNL     1       1.246   8.195  21.464  0.00  0.00    +0.000 A 
ENDBRANCH   1  11
BRANCH   2  13
ATOM     13  C   UNL     1       3.991   5.407  18.628  0.00  0.00    +0.000 C 
BRANCH  13  14
ATOM     14  N   UNL     1       3.615   4.569  17.459  0.00  0.00    +0.000 NA
ATOM     15  C   UNL     1       4.782   3.927  16.803  0.00  0.00    +0.000 C 
BRANCH  14  16
ATOM     16  S   UNL     1       2.326   3.488  17.786  0.00  0.00    +0.000 S 
ATOM     17  O   UNL     1       1.090   4.131  17.391  0.00  0.00    +0.000 OA
ATOM     18  O   UNL     1       2.689   2.180  17.281  0.00  0.00    +0.000 OA
BRANCH  16  19
ATOM     19  C   UNL     1       2.139   3.235  19.509  0.00  0.00    +0.000 A 
ATOM     20  C   UNL     1       1.032   3.578  20.262  0.00  0.00    +0.000 A 
ATOM     21  N   UNL     1       1.328   3.187  21.537  0.00  0.00    +0.000 N 
ATOM     22  C   UNL     1       2.577   2.630  21.522  0.00  0.00    +0.000 A 
ATOM     23  N   UNL     1       3.100   2.645  20.318  0.00  0.00    +0.000 NA
ATOM     24  H   UNL     1       0.732   3.285  22.350  0.00  0.00    +0.000 HD
ENDBRANCH  16  19
ENDBRANCH  14  16
ENDBRANCH  13  14
ENDBRANCH   2  13
TORSDOF 5
ENDMDL
MODEL 8
REMARK VINA RESULT:      -7.3      2.779      4.851
REMARK  Name = 
REMARK  8 active torsions:
REMARK  status: ('A' for Active; 'I' for Inactive)
REMARK    1  A    between atoms: C_1  and  C_2
REMARK    2  A    between atoms: C_4  and  C_5
REMARK    3  A    between atoms: C_7  and  N_8
REMARK    4  A    between atoms: C_9  and  C_11
REMARK    5  A    between atoms: C_11  and  N_12
REMARK    6  A    between atoms: N_12  and  C_13
REMARK    7  A    between atoms: N_12  and  S_14
REMARK    8  A    between atoms: S_14  and  C_17
REMARK                            x       y       z     vdW  Elec       q    Type
REMARK                         _______ _______ _______ _____ _____    ______ ____
ROOT
ATOM      1  N   UNL     1       2.490   7.033  19.951  0.00  0.00    +0.000 N 
ATOM      2  C   UNL     1       3.078   6.823  18.708  0.00  0.00    +0.000 C 
ATOM      3  O   UNL     1       2.947   7.529  17.711  0.00  0.00    +0.000 OA
ATOM      4  H   UNL     1       2.687   6.339  20.664  0.00  0.00    +0.000 HD
ENDROOT
BRANCH   1  11
ATOM      5  C   UNL     1      -0.127  10.990  18.529  0.00  0.00    +0.000 C 
ATOM      6  C   UNL     1       0.331  10.052  19.609  0.00  0.00    +0.000 A 
ATOM      7  C   UNL     1      -0.113  10.227  20.925  0.00  0.00    +0.000 A 
ATOM      8  C   UNL     1       0.302   9.353  21.932  0.00  0.00    +0.000 A 
ATOM      9  C   UNL     1      -0.149   9.517  23.353  0.00  0.00    +0.000 C 
ATOM     10  C   UNL     1       1.161   8.293  21.611  0.00  0.00    +0.000 A 
ATOM     11  C   UNL     1       1.621   8.094  20.307  0.00  0.00    +0.000 A 
ATOM     12  C   UNL     1       1.204   8.987  19.310  0.00  0.00    +0.000 A 
ENDBRANCH   1  11
BRANCH   2  13
ATOM     13  C   UNL     1       3.970   5.592  18.649  0.00  0.00    +0.000 C 
BRANCH  13  14
ATOM     14  N   UNL     1       3.641   4.692  17.512  0.00  0.00    +0.000 NA
ATOM     15  C   UNL     1       4.843   4.103  16.870  0.00  0.00    +0.000 C 
BRANCH  14  16
ATOM     16  S   UNL     1       2.425   3.544  17.885  0.00  0.00    +0.000 S 
ATOM     17  O   UNL     1       1.144   4.111  17.514  0.00  0.00    +0.000 OA
ATOM     18  O   UNL     1       2.849   2.252  17.386  0.00  0.00    +0.000 OA
BRANCH  16  19
ATOM     19  C   UNL     1       2.296   3.304  19.615  0.00  0.00    +0.000 A 
ATOM     20  C   UNL     1       3.119   2.506  20.385  0.00  0.00    +0.000 A 
ATOM     21  N   UNL     1       2.654   2.633  21.663  0.00  0.00    +0.000 N 
ATOM     22  C   UNL     1       1.586   3.487  21.633  0.00  0.00    +0.000 A 
ATOM     23  N   UNL     1       1.337   3.909  20.414  0.00  0.00    +0.000 NA
ATOM     24  H   UNL     1       3.030   2.183  22.488  0.00  0.00    +0.000 HD
ENDBRANCH  16  19
ENDBRANCH  14  16
ENDBRANCH  13  14
ENDBRANCH   2  13
TORSDOF 5
ENDMDL
MODEL 9
REMARK VINA RESULT:      -7.3      2.628      7.784
REMARK  Name = 
REMARK  8 active torsions:
REMARK  status: ('A' for Active; 'I' for Inactive)
REMARK    1  A    between atoms: C_1  and  C_2
REMARK    2  A    between atoms: C_4  and  C_5
REMARK    3  A    between atoms: C_7  and  N_8
REMARK    4  A    between atoms: C_9  and  C_11
REMARK    5  A    between atoms: C_11  and  N_12
REMARK    6  A    between atoms: N_12  and  C_13
REMARK    7  A    between atoms: N_12  and  S_14
REMARK    8  A    between atoms: S_14  and  C_17
REMARK                            x       y       z     vdW  Elec       q    Type
REMARK                         _______ _______ _______ _____ _____    ______ ____
ROOT
ATOM      1  N   UNL     1       5.395   4.299  16.108  0.00  0.00    +0.000 N 
ATOM      2  C   UNL     1       6.107   4.327  17.303  0.00  0.00    +0.000 C 
ATOM      3  O   UNL     1       7.329   4.354  17.423  0.00  0.00    +0.000 OA
ATOM      4  H   UNL     1       4.385   4.258  16.188  0.00  0.00    +0.000 HD
ENDROOT
BRANCH   1  11
ATOM      5  C   UNL     1       5.214   2.515  11.492  0.00  0.00    +0.000 C 
ATOM      6  C   UNL     1       5.855   3.404  12.520  0.00  0.00    +0.000 A 
ATOM      7  C   UNL     1       6.948   4.205  12.171  0.00  0.00    +0.000 A 
ATOM      8  C   UNL     1       7.542   5.041  13.119  0.00  0.00    +0.000 A 
ATOM      9  C   UNL     1       8.719   5.906  12.780  0.00  0.00    +0.000 C 
ATOM     10  C   UNL     1       7.027   5.076  14.422  0.00  0.00    +0.000 A 
ATOM     11  C   UNL     1       5.938   4.287  14.800  0.00  0.00    +0.000 A 
ATOM     12  C   UNL     1       5.360   3.445  13.838  0.00  0.00    +0.000 A 
ENDBRANCH   1  11
BRANCH   2  13
ATOM     13  C   UNL     1       5.227   4.341  18.544  0.00  0.00    +0.000 C 
BRANCH  13  14
ATOM     14  N   UNL     1       4.258   3.214  18.581  0.00  0.00    +0.000 NA
ATOM     15  C   UNL     1       4.485   2.289  19.719  0.00  0.00    +0.000 C 
BRANCH  14  16
ATOM     16  S   UNL     1       2.628   3.714  18.411  0.00  0.00    +0.000 S 
ATOM     17  O   UNL     1       2.340   3.833  16.996  0.00  0.00    +0.000 OA
ATOM     18  O   UNL     1       1.808   2.896  19.280  0.00  0.00    +0.000 OA
BRANCH  16  19
ATOM     19  C   UNL     1       2.402   5.338  19.026  0.00  0.00    +0.000 A 
ATOM     20  C   UNL     1       2.107   5.675  20.333  0.00  0.00    +0.000 A 
ATOM     21  N   UNL     1       2.033   7.039  20.347  0.00  0.00    +0.000 N 
ATOM     22  C   UNL     1       2.282   7.481  19.077  0.00  0.00    +0.000 A 
ATOM     23  N   UNL     1       2.503   6.485  18.251  0.00  0.00    +0.000 NA
ATOM     24  H   UNL     1       1.836   7.623  21.150  0.00  0.00    +0.000 HD
ENDBRANCH  16  19
ENDBRANCH  14  16
ENDBRANCH  13  14
ENDBRANCH   2  13
TORSDOF 5
ENDMDL
