MODEL 1
REMARK VINA RESULT:      -6.7      0.000      0.000
REMARK  Name = 
REMARK  10 active torsions:
REMARK  status: ('A' for Active; 'I' for Inactive)
REMARK    1  A    between atoms: C_1  and  O_2
REMARK    2  A    between atoms: O_2  and  C_3
REMARK    3  A    between atoms: C_5  and  C_6
REMARK    4  A    between atoms: N_8  and  C_9
REMARK    5  A    between atoms: C_18  and  O_19
REMARK    6  A    between atoms: O_19  and  C_20
REMARK    7  A    between atoms: C_22  and  C_23
REMARK    8  A    between atoms: C_23  and  N_24
REMARK    9  A    between atoms: N_24  and  C_25
REMARK   10  A    between atoms: N_24  and  C_26
REMARK                            x       y       z     vdW  Elec       q    Type
REMARK                         _______ _______ _______ _____ _____    ______ ____
ROOT
ATOM      1  C   UNL     1       1.634   9.187  18.779  0.00  0.00    +0.000 A 
ATOM      2  C   UNL     1       2.499   8.268  18.173  0.00  0.00    +0.000 A 
ATOM      3  C   UNL     1       2.814   7.049  18.791  0.00  0.00    +0.000 A 
ATOM      4  C   UNL     1       2.319   6.770  20.075  0.00  0.00    +0.000 A 
ATOM      5  C   UNL     1       1.437   7.679  20.667  0.00  0.00    +0.000 A 
ATOM      6  C   UNL     1       1.034   8.865  20.009  0.00  0.00    +0.000 A 
ENDROOT
BRANCH   3   7
ATOM      7  C   UNL     1       3.582   6.040  18.020  0.00  0.00    +0.000 A 
ATOM      8  C   UNL     1       2.970   4.864  17.765  0.00  0.00    +0.000 A 
ATOM      9  N   UNL     1       3.568   3.847  17.041  0.00  0.00    +0.000 N 
ATOM     10  C   UNL     1       2.858   2.598  16.835  0.00  0.00    +0.000 C 
ATOM     11  C   UNL     1       4.840   3.957  16.487  0.00  0.00    +0.000 A 
ATOM     12  O   UNL     1       5.379   3.081  15.827  0.00  0.00    +0.000 OA
ATOM     13  C   UNL     1       5.561   5.219  16.754  0.00  0.00    +0.000 A 
ATOM     14  C   UNL     1       6.849   5.412  16.273  0.00  0.00    +0.000 A 
ATOM     15  N   UNL     1       7.581   6.525  16.511  0.00  0.00    +0.000 NA
ATOM     16  C   UNL     1       6.991   7.482  17.258  0.00  0.00    +0.000 A 
ATOM     17  C   UNL     1       5.704   7.386  17.765  0.00  0.00    +0.000 A 
ATOM     18  C   UNL     1       4.961   6.226  17.512  0.00  0.00    +0.000 A 
ENDBRANCH   3   7
BRANCH   1  20
ATOM     19  C   UNL     1       1.972  11.467  18.221  0.00  0.00    +0.000 C 
ATOM     20  O   UNL     1       1.291  10.244  17.975  0.00  0.00    +0.000 OA
ENDBRANCH   1  20
BRANCH   4  21
ATOM     21  O   UNL     1       2.705   5.582  20.636  0.00  0.00    +0.000 OA
ATOM     22  C   UNL     1       1.692   4.631  20.941  0.00  0.00    +0.000 C 
ENDBRANCH   4  21
BRANCH   6  23
ATOM     23  C   UNL     1      -0.113   9.642  20.634  0.00  0.00    +0.000 C 
BRANCH  23  24
ATOM     24  N   UNL     1       0.304  10.452  21.786  0.00  0.00    +0.000 NA
ATOM     25  C   UNL     1       0.016  11.873  21.599  0.00  0.00    +0.000 C 
ATOM     26  C   UNL     1      -0.297   9.969  23.023  0.00  0.00    +0.000 C 
ENDBRANCH  23  24
ENDBRANCH   6  23
TORSDOF 5
ENDMDL
MODEL 2
REMARK VINA RESULT:      -6.7      2.490      8.055
REMARK  Name = 
REMARK  10 active torsions:
REMARK  status: ('A' for Active; 'I' for Inactive)
REMARK    1  A    between atoms: C_1  and  O_2
REMARK    2  A    between atoms: O_2  and  C_3
REMARK    3  A    between atoms: C_5  and  C_6
REMARK    4  A    between atoms: N_8  and  C_9
REMARK    5  A    between atoms: C_18  and  O_19
REMARK    6  A    between atoms: O_19  and  C_20
REMARK    7  A    between atoms: C_22  and  C_23
REMARK    8  A    between atoms: C_23  and  N_24
REMARK    9  A    between atoms: N_24  and  C_25
REMARK   10  A    between atoms: N_24  and  C_26
REMARK                            x       y       z     vdW  Elec       q    Type
REMARK                         _______ _______ _______ _____ _____    ______ ____
ROOT
ATOM      1  C   UNL     1       2.163   6.954  19.858  0.00  0.00    +0.000 A 
ATOM      2  C   UNL     1       1.292   8.008  20.158  0.00  0.00    +0.000 A 
ATOM      3  C   UNL     1       1.184   9.124  19.314  0.00  0.00    +0.000 A 
ATOM      4  C   UNL     1       2.016   9.229  18.187  0.00  0.00    +0.000 A 
ATOM      5  C   UNL     1       2.867   8.164  17.879  0.00  0.00    +0.000 A 
ATOM      6  C   UNL     1       2.911   6.991  18.668  0.00  0.00    +0.000 A 
ENDROOT
BRANCH   3   7
ATOM      7  C   UNL     1       0.114  10.116  19.583  0.00  0.00    +0.000 A 
ATOM      8  C   UNL     1       0.212  10.833  20.723  0.00  0.00    +0.000 A 
ATOM      9  N   UNL     1      -0.709  11.802  21.083  0.00  0.00    +0.000 N 
ATOM     10  C   UNL     1      -0.553  12.509  22.341  0.00  0.00    +0.000 C 
ATOM     11  C   UNL     1      -1.799  12.145  20.289  0.00  0.00    +0.000 A 
ATOM     12  O   UNL     1      -2.612  13.010  20.576  0.00  0.00    +0.000 OA
ATOM     13  C   UNL     1      -1.962  11.375  19.037  0.00  0.00    +0.000 A 
ATOM     14  C   UNL     1      -3.038  11.619  18.194  0.00  0.00    +0.000 A 
ATOM     15  N   UNL     1      -3.270  10.928  17.054  0.00  0.00    +0.000 NA
ATOM     16  C   UNL     1      -2.382   9.957  16.750  0.00  0.00    +0.000 A 
ATOM     17  C   UNL     1      -1.269   9.655  17.521  0.00  0.00    +0.000 A 
ATOM     18  C   UNL     1      -1.046  10.378  18.700  0.00  0.00    +0.000 A 
ENDBRANCH   3   7
BRANCH   1  20
ATOM     19  C   UNL     1       1.106   4.868  20.256  0.00  0.00    +0.000 C 
ATOM     20  O   UNL     1       2.025   5.866  20.682  0.00  0.00    +0.000 OA
ENDBRANCH   1  20
BRANCH   4  21
ATOM     21  O   UNL     1       1.889  10.367  17.435  0.00  0.00    +0.000 OA
ATOM     22  C   UNL     1       2.543  11.543  17.895  0.00  0.00    +0.000 C 
ENDBRANCH   4  21
BRANCH   6  23
ATOM     23  C   UNL     1       3.678   5.808  18.100  0.00  0.00    +0.000 C 
BRANCH  23  24
ATOM     24  N   UNL     1       4.824   5.415  18.929  0.00  0.00    +0.000 NA
ATOM     25  C   UNL     1       4.807   3.992  19.262  0.00  0.00    +0.000 C 
ATOM     26  C   UNL     1       6.088   5.776  18.298  0.00  0.00    +0.000 C 
ENDBRANCH  23  24
ENDBRANCH   6  23
TORSDOF 5
ENDMDL
MODEL 3
REMARK VINA RESULT:      -6.6      2.615      7.533
REMARK  Name = 
REMARK  10 active torsions:
REMARK  status: ('A' for Active; 'I' for Inactive)
REMARK    1  A    between atoms: C_1  and  O_2
REMARK    2  A    between atoms: O_2  and  C_3
REMARK    3  A    between atoms: C_5  and  C_6
REMARK    4  A    between atoms: N_8  and  C_9
REMARK    5  A    between atoms: C_18  and  O_19
REMARK    6  A    between atoms: O_19  and  C_20
REMARK    7  A    between atoms: C_22  and  C_23
REMARK    8  A    between atoms: C_23  and  N_24
REMARK    9  A    between atoms: N_24  and  C_25
REMARK   10  A    between atoms: N_24  and  C_26
REMARK                            x       y       z     vdW  Elec       q    Type
REMARK                         _______ _______ _______ _____ _____    ______ ____
ROOT
ATOM      1  C   UNL     1       2.955   7.076  18.067  0.00  0.00    +0.000 A 
ATOM      2  C   UNL     1       2.271   8.290  17.932  0.00  0.00    +0.000 A 
ATOM      3  C   UNL     1       1.530   8.829  18.994  0.00  0.00    +0.000 A 
ATOM      4  C   UNL     1       1.403   8.108  20.193  0.00  0.00    +0.000 A 
ATOM      5  C   UNL     1       2.106   6.908  20.332  0.00  0.00    +0.000 A 
ATOM      6  C   UNL     1       2.935   6.405  19.302  0.00  0.00    +0.000 A 
ENDROOT
BRANCH   3   7
ATOM      7  C   UNL     1       0.986  10.203  18.854  0.00  0.00    +0.000 A 
ATOM      8  C   UNL     1       1.822  11.227  19.129  0.00  0.00    +0.000 A 
ATOM      9  N   UNL     1       1.446  12.555  19.020  0.00  0.00    +0.000 N 
ATOM     10  C   UNL     1       2.391  13.601  19.363  0.00  0.00    +0.000 C 
ATOM     11  C   UNL     1       0.183  12.953  18.589  0.00  0.00    +0.000 A 
ATOM     12  O   UNL     1      -0.164  14.117  18.465  0.00  0.00    +0.000 OA
ATOM     13  C   UNL     1      -0.777  11.868  18.293  0.00  0.00    +0.000 A 
ATOM     14  C   UNL     1      -2.072  12.162  17.889  0.00  0.00    +0.000 A 
ATOM     15  N   UNL     1      -3.013  11.222  17.639  0.00  0.00    +0.000 NA
ATOM     16  C   UNL     1      -2.632   9.937  17.798  0.00  0.00    +0.000 A 
ATOM     17  C   UNL     1      -1.357   9.546  18.179  0.00  0.00    +0.000 A 
ATOM     18  C   UNL     1      -0.397  10.533  18.438  0.00  0.00    +0.000 A 
ENDBRANCH   3   7
BRANCH   1  20
ATOM     19  C   UNL     1       5.153   7.053  17.177  0.00  0.00    +0.000 C 
ATOM     20  O   UNL     1       3.769   6.774  17.006  0.00  0.00    +0.000 OA
ENDBRANCH   1  20
BRANCH   4  21
ATOM     21  O   UNL     1       0.627   8.674  21.169  0.00  0.00    +0.000 OA
ATOM     22  C   UNL     1       1.274   9.131  22.350  0.00  0.00    +0.000 C 
ENDBRANCH   4  21
BRANCH   6  23
ATOM     23  C   UNL     1       3.840   5.237  19.658  0.00  0.00    +0.000 C 
BRANCH  23  24
ATOM     24  N   UNL     1       3.347   3.952  19.146  0.00  0.00    +0.000 NA
ATOM     25  C   UNL     1       4.219   3.393  18.115  0.00  0.00    +0.000 C 
ATOM     26  C   UNL     1       3.147   2.989  20.222  0.00  0.00    +0.000 C 
ENDBRANCH  23  24
ENDBRANCH   6  23
TORSDOF 5
ENDMDL
MODEL 4
REMARK VINA RESULT:      -6.3      0.900      2.776
REMARK  Name = 
REMARK  10 active torsions:
REMARK  status: ('A' for Active; 'I' for Inactive)
REMARK    1  A    between atoms: C_1  and  O_2
REMARK    2  A    between atoms: O_2  and  C_3
REMARK    3  A    between atoms: C_5  and  C_6
REMARK    4  A    between atoms: N_8  and  C_9
REMARK    5  A    between atoms: C_18  and  O_19
REMARK    6  A    between atoms: O_19  and  C_20
REMARK    7  A    between atoms: C_22  and  C_23
REMARK    8  A    between atoms: C_23  and  N_24
REMARK    9  A    between atoms: N_24  and  C_25
REMARK   10  A    between atoms: N_24  and  C_26
REMARK                            x       y       z     vdW  Elec       q    Type
REMARK                         _______ _______ _______ _____ _____    ______ ____
ROOT
ATOM      1  C   UNL     1       1.364   9.282  18.893  0.00  0.00    +0.000 A 
ATOM      2  C   UNL     1       2.237   8.381  18.272  0.00  0.00    +0.000 A 
ATOM      3  C   UNL     1       2.653   7.209  18.921  0.00  0.00    +0.000 A 
ATOM      4  C   UNL     1       2.254   6.964  20.245  0.00  0.00    +0.000 A 
ATOM      5  C   UNL     1       1.364   7.854  20.853  0.00  0.00    +0.000 A 
ATOM      6  C   UNL     1       0.860   8.988  20.172  0.00  0.00    +0.000 A 
ENDROOT
BRANCH   3   7
ATOM      7  C   UNL     1       3.424   6.206  18.146  0.00  0.00    +0.000 A 
ATOM      8  C   UNL     1       4.628   6.588  17.669  0.00  0.00    +0.000 A 
ATOM      9  N   UNL     1       5.455   5.744  16.947  0.00  0.00    +0.000 N 
ATOM     10  C   UNL     1       6.721   6.239  16.440  0.00  0.00    +0.000 C 
ATOM     11  C   UNL     1       5.132   4.417  16.675  0.00  0.00    +0.000 A 
ATOM     12  O   UNL     1       5.854   3.649  16.059  0.00  0.00    +0.000 OA
ATOM     13  C   UNL     1       3.815   3.954  17.160  0.00  0.00    +0.000 A 
ATOM     14  C   UNL     1       3.388   2.657  16.909  0.00  0.00    +0.000 A 
ATOM     15  N   UNL     1       2.180   2.178  17.289  0.00  0.00    +0.000 NA
ATOM     16  C   UNL     1       1.376   3.036  17.951  0.00  0.00    +0.000 A 
ATOM     17  C   UNL     1       1.724   4.342  18.262  0.00  0.00    +0.000 A 
ATOM     18  C   UNL     1       2.976   4.823  17.858  0.00  0.00    +0.000 A 
ENDBRANCH   3   7
BRANCH   1  20
ATOM     19  C   UNL     1       1.454  11.577  18.303  0.00  0.00    +0.000 C 
ATOM     20  O   UNL     1       0.916  10.283  18.069  0.00  0.00    +0.000 OA
ENDBRANCH   1  20
BRANCH   4  21
ATOM     21  O   UNL     1       2.737   5.824  20.830  0.00  0.00    +0.000 OA
ATOM     22  C   UNL     1       1.795   4.845  21.252  0.00  0.00    +0.000 C 
ENDBRANCH   4  21
BRANCH   6  23
ATOM     23  C   UNL     1      -0.286   9.734  20.836  0.00  0.00    +0.000 C 
BRANCH  23  24
ATOM     24  N   UNL     1       0.146  10.548  21.979  0.00  0.00    +0.000 NA
ATOM     25  C   UNL     1       0.005  11.981  21.727  0.00  0.00    +0.000 C 
ATOM     26  C   UNL     1      -0.560  10.173  23.199  0.00  0.00    +0.000 C 
ENDBRANCH  23  24
ENDBRANCH   6  23
TORSDOF 5
ENDMDL
MODEL 5
REMARK VINA RESULT:      -6.0      2.343      4.370
REMARK  Name = 
REMARK  10 active torsions:
REMARK  status: ('A' for Active; 'I' for Inactive)
REMARK    1  A    between atoms: C_1  and  O_2
REMARK    2  A    between atoms: O_2  and  C_3
REMARK    3  A    between atoms: C_5  and  C_6
REMARK    4  A    between atoms: N_8  and  C_9
REMARK    5  A    between atoms: C_18  and  O_19
REMARK    6  A    between atoms: O_19  and  C_20
REMARK    7  A    between atoms: C_22  and  C_23
REMARK    8  A    between atoms: C_23  and  N_24
REMARK    9  A    between atoms: N_24  and  C_25
REMARK   10  A    between atoms: N_24  and  C_26
REMARK                            x       y       z     vdW  Elec       q    Type
REMARK                         _______ _______ _______ _____ _____    ______ ____
ROOT
ATOM      1  C   UNL     1       1.133   9.124  21.375  0.00  0.00    +0.000 A 
ATOM      2  C   UNL     1       1.728   7.872  21.177  0.00  0.00    +0.000 A 
ATOM      3  C   UNL     1       2.073   7.428  19.892  0.00  0.00    +0.000 A 
ATOM      4  C   UNL     1       1.750   8.212  18.772  0.00  0.00    +0.000 A 
ATOM      5  C   UNL     1       1.177   9.471  18.977  0.00  0.00    +0.000 A 
ATOM      6  C   UNL     1       0.916   9.970  20.274  0.00  0.00    +0.000 A 
ENDROOT
BRANCH   3   7
ATOM      7  C   UNL     1       2.867   6.181  19.762  0.00  0.00    +0.000 A 
ATOM      8  C   UNL     1       4.181   6.315  19.481  0.00  0.00    +0.000 A 
ATOM      9  N   UNL     1       5.037   5.235  19.352  0.00  0.00    +0.000 N 
ATOM     10  C   UNL     1       6.431   5.458  19.017  0.00  0.00    +0.000 C 
ATOM     11  C   UNL     1       4.626   3.916  19.530  0.00  0.00    +0.000 A 
ATOM     12  O   UNL     1       5.367   2.949  19.442  0.00  0.00    +0.000 OA
ATOM     13  C   UNL     1       3.191   3.714  19.822  0.00  0.00    +0.000 A 
ATOM     14  C   UNL     1       2.677   2.435  19.982  0.00  0.00    +0.000 A 
ATOM     15  N   UNL     1       1.369   2.174  20.212  0.00  0.00    +0.000 NA
ATOM     16  C   UNL     1       0.549   3.244  20.287  0.00  0.00    +0.000 A 
ATOM     17  C   UNL     1       0.974   4.558  20.158  0.00  0.00    +0.000 A 
ATOM     18  C   UNL     1       2.331   4.809  19.917  0.00  0.00    +0.000 A 
ENDBRANCH   3   7
BRANCH   1  20
ATOM     19  C   UNL     1      -0.303   9.562  23.211  0.00  0.00    +0.000 C 
ATOM     20  O   UNL     1       1.019   9.483  22.694  0.00  0.00    +0.000 OA
ENDBRANCH   1  20
BRANCH   4  21
ATOM     21  O   UNL     1       2.074   7.694  17.546  0.00  0.00    +0.000 OA
ATOM     22  C   UNL     1       3.319   8.076  16.973  0.00  0.00    +0.000 C 
ENDBRANCH   4  21
BRANCH   6  23
ATOM     23  C   UNL     1       0.534  11.437  20.382  0.00  0.00    +0.000 C 
BRANCH  23  24
ATOM     24  N   UNL     1      -0.197  11.927  19.206  0.00  0.00    +0.000 NA
ATOM     25  C   UNL     1      -1.632  12.050  19.454  0.00  0.00    +0.000 C 
ATOM     26  C   UNL     1       0.348  13.192  18.728  0.00  0.00    +0.000 C 
ENDBRANCH  23  24
ENDBRANCH   6  23
TORSDOF 5
ENDMDL
MODEL 6
REMARK VINA RESULT:      -5.9      2.447      8.036
REMARK  Name = 
REMARK  10 active torsions:
REMARK  status: ('A' for Active; 'I' for Inactive)
REMARK    1  A    between atoms: C_1  and  O_2
REMARK    2  A    between atoms: O_2  and  C_3
REMARK    3  A    between atoms: C_5  and  C_6
REMARK    4  A    between atoms: N_8  and  C_9
REMARK    5  A    between atoms: C_18  and  O_19
REMARK    6  A    between atoms: O_19  and  C_20
REMARK    7  A    between atoms: C_22  and  C_23
REMARK    8  A    between atoms: C_23  and  N_24
REMARK    9  A    between atoms: N_24  and  C_25
REMARK   10  A    between atoms: N_24  and  C_26
REMARK                            x       y       z     vdW  Elec       q    Type
REMARK                         _______ _______ _______ _____ _____    ______ ____
ROOT
ATOM      1  C   UNL     1       2.052   7.012  20.236  0.00  0.00    +0.000 A 
ATOM      2  C   UNL     1       1.166   8.083  20.400  0.00  0.00    +0.000 A 
ATOM      3  C   UNL     1       1.110   9.129  19.466  0.00  0.00    +0.000 A 
ATOM      4  C   UNL     1       2.008   9.149  18.386  0.00  0.00    +0.000 A 
ATOM      5  C   UNL     1       2.874   8.066  18.214  0.00  0.00    +0.000 A 
ATOM      6  C   UNL     1       2.870   6.958  19.094  0.00  0.00    +0.000 A 
ENDROOT
BRANCH   3   7
ATOM      7  C   UNL     1       0.027  10.135  19.593  0.00  0.00    +0.000 A 
ATOM      8  C   UNL     1       0.044  10.924  20.688  0.00  0.00    +0.000 A 
ATOM      9  N   UNL     1      -0.896  11.914  20.918  0.00  0.00    +0.000 N 
ATOM     10  C   UNL     1      -0.830  12.700  22.135  0.00  0.00    +0.000 C 
ATOM     11  C   UNL     1      -1.925  12.204  20.026  0.00  0.00    +0.000 A 
ATOM     12  O   UNL     1      -2.753  13.085  20.197  0.00  0.00    +0.000 OA
ATOM     13  C   UNL     1      -1.999  11.355  18.818  0.00  0.00    +0.000 A 
ATOM     14  C   UNL     1      -3.010  11.544  17.884  0.00  0.00    +0.000 A 
ATOM     15  N   UNL     1      -3.161  10.780  16.777  0.00  0.00    +0.000 NA
ATOM     16  C   UNL     1      -2.257   9.793  16.602  0.00  0.00    +0.000 A 
ATOM     17  C   UNL     1      -1.205   9.542  17.469  0.00  0.00    +0.000 A 
ATOM     18  C   UNL     1      -1.065  10.339  18.613  0.00  0.00    +0.000 A 
ENDBRANCH   3   7
BRANCH   1  20
ATOM     19  C   UNL     1       1.218   4.827  20.634  0.00  0.00    +0.000 C 
ATOM     20  O   UNL     1       1.864   5.991  21.133  0.00  0.00    +0.000 OA
ENDBRANCH   1  20
BRANCH   4  21
ATOM     21  O   UNL     1       1.927  10.224  17.541  0.00  0.00    +0.000 OA
ATOM     22  C   UNL     1       2.530  11.442  17.958  0.00  0.00    +0.000 C 
ENDBRANCH   4  21
BRANCH   6  23
ATOM     23  C   UNL     1       3.668   5.737  18.666  0.00  0.00    +0.000 C 
BRANCH  23  24
ATOM     24  N   UNL     1       3.339   5.285  17.309  0.00  0.00    +0.000 NA
ATOM     25  C   UNL     1       4.531   5.046  16.498  0.00  0.00    +0.000 C 
ATOM     26  C   UNL     1       2.493   4.097  17.333  0.00  0.00    +0.000 C 
ENDBRANCH  23  24
ENDBRANCH   6  23
TORSDOF 5
ENDMDL
MODEL 7
REMARK VINA RESULT:      -5.8      2.418      7.365
REMARK  Name = 
REMARK  10 active torsions:
REMARK  status: ('A' for Active; 'I' for Inactive)
REMARK    1  A    between atoms: C_1  and  O_2
REMARK    2  A    between atoms: O_2  and  C_3
REMARK    3  A    between atoms: C_5  and  C_6
REMARK    4  A    between atoms: N_8  and  C_9
REMARK    5  A    between atoms: C_18  and  O_19
REMARK    6  A    between atoms: O_19  and  C_20
REMARK    7  A    between atoms: C_22  and  C_23
REMARK    8  A    between atoms: C_23  and  N_24
REMARK    9  A    between atoms: N_24  and  C_25
REMARK   10  A    between atoms: N_24  and  C_26
REMARK                            x       y       z     vdW  Elec       q    Type
REMARK                         _______ _______ _______ _____ _____    ______ ____
ROOT
ATOM      1  C   UNL     1       6.340   5.942  16.261  0.00  0.00    +0.000 A 
ATOM      2  C   UNL     1       5.411   6.277  17.253  0.00  0.00    +0.000 A 
ATOM      3  C   UNL     1       4.227   5.542  17.416  0.00  0.00    +0.000 A 
ATOM      4  C   UNL     1       3.923   4.500  16.525  0.00  0.00    +0.000 A 
ATOM      5  C   UNL     1       4.865   4.154  15.551  0.00  0.00    +0.000 A 
ATOM      6  C   UNL     1       6.106   4.825  15.441  0.00  0.00    +0.000 A 
ENDROOT
BRANCH   3   7
ATOM      7  C   UNL     1       3.374   5.824  18.598  0.00  0.00    +0.000 A 
ATOM      8  C   UNL     1       2.792   7.040  18.660  0.00  0.00    +0.000 A 
ATOM      9  N   UNL     1       1.960   7.424  19.698  0.00  0.00    +0.000 N 
ATOM     10  C   UNL     1       1.396   8.761  19.712  0.00  0.00    +0.000 C 
ATOM     11  C   UNL     1       1.625   6.579  20.753  0.00  0.00    +0.000 A 
ATOM     12  O   UNL     1       0.876   6.887  21.668  0.00  0.00    +0.000 OA
ATOM     13  C   UNL     1       2.251   5.240  20.741  0.00  0.00    +0.000 A 
ATOM     14  C   UNL     1       2.007   4.338  21.767  0.00  0.00    +0.000 A 
ATOM     15  N   UNL     1       2.577   3.112  21.840  0.00  0.00    +0.000 NA
ATOM     16  C   UNL     1       3.420   2.782  20.839  0.00  0.00    +0.000 A 
ATOM     17  C   UNL     1       3.710   3.610  19.764  0.00  0.00    +0.000 A 
ATOM     18  C   UNL     1       3.115   4.876  19.706  0.00  0.00    +0.000 A 
ENDBRANCH   3   7
BRANCH   1  20
ATOM     19  C   UNL     1       7.640   7.540  17.437  0.00  0.00    +0.000 C 
ATOM     20  O   UNL     1       7.518   6.641  16.343  0.00  0.00    +0.000 OA
ENDBRANCH   1  20
BRANCH   4  21
ATOM     21  O   UNL     1       2.729   3.857  16.716  0.00  0.00    +0.000 OA
ATOM     22  C   UNL     1       2.764   2.465  17.004  0.00  0.00    +0.000 C 
ENDBRANCH   4  21
BRANCH   6  23
ATOM     23  C   UNL     1       7.144   4.203  14.521  0.00  0.00    +0.000 C 
BRANCH  23  24
ATOM     24  N   UNL     1       7.057   4.698  13.141  0.00  0.00    +0.000 NA
ATOM     25  C   UNL     1       8.239   5.465  12.751  0.00  0.00    +0.000 C 
ATOM     26  C   UNL     1       6.820   3.611  12.198  0.00  0.00    +0.000 C 
ENDBRANCH  23  24
ENDBRANCH   6  23
TORSDOF 5
ENDMDL
MODEL 8
REMARK VINA RESULT:      -5.8      7.097      9.265
REMARK  Name = 
REMARK  10 active torsions:
REMARK  status: ('A' for Active; 'I' for Inactive)
REMARK    1  A    between atoms: C_1  and  O_2
REMARK    2  A    between atoms: O_2  and  C_3
REMARK    3  A    between atoms: C_5  and  C_6
REMARK    4  A    between atoms: N_8  and  C_9
REMARK    5  A    between atoms: C_18  and  O_19
REMARK    6  A    between atoms: O_19  and  C_20
REMARK    7  A    between atoms: C_22  and  C_23
REMARK    8  A    between atoms: C_23  and  N_24
REMARK    9  A    between atoms: N_24  and  C_25
REMARK   10  A    between atoms: N_24  and  C_26
REMARK                            x       y       z     vdW  Elec       q    Type
REMARK                         _______ _______ _______ _____ _____    ______ ____
ROOT
ATOM      1  C   UNL     1       4.587  15.335  18.336  0.00  0.00    +0.000 A 
ATOM      2  C   UNL     1       5.922  15.182  17.944  0.00  0.00    +0.000 A 
ATOM      3  C   UNL     1       6.932  14.941  18.887  0.00  0.00    +0.000 A 
ATOM      4  C   UNL     1       6.621  14.928  20.256  0.00  0.00    +0.000 A 
ATOM      5  C   UNL     1       5.283  15.058  20.642  0.00  0.00    +0.000 A 
ATOM      6  C   UNL     1       4.244  15.202  19.693  0.00  0.00    +0.000 A 
ENDROOT
BRANCH   3   7
ATOM      7  C   UNL     1       8.292  14.601  18.398  0.00  0.00    +0.000 A 
ATOM      8  C   UNL     1       8.606  13.291  18.315  0.00  0.00    +0.000 A 
ATOM      9  N   UNL     1       9.832  12.838  17.858  0.00  0.00    +0.000 N 
ATOM     10  C   UNL     1      10.108  11.414  17.827  0.00  0.00    +0.000 C 
ATOM     11  C   UNL     1      10.838  13.693  17.415  0.00  0.00    +0.000 A 
ATOM     12  O   UNL     1      11.919  13.317  16.988  0.00  0.00    +0.000 OA
ATOM     13  C   UNL     1      10.551  15.140  17.503  0.00  0.00    +0.000 A 
ATOM     14  C   UNL     1      11.503  16.074  17.118  0.00  0.00    +0.000 A 
ATOM     15  N   UNL     1      11.323  17.412  17.209  0.00  0.00    +0.000 NA
ATOM     16  C   UNL     1      10.135  17.825  17.701  0.00  0.00    +0.000 A 
ATOM     17  C   UNL     1       9.118  16.967  18.093  0.00  0.00    +0.000 A 
ATOM     18  C   UNL     1       9.323  15.585  17.997  0.00  0.00    +0.000 A 
ENDBRANCH   3   7
BRANCH   1  20
ATOM     19  C   UNL     1       3.140  16.665  17.008  0.00  0.00    +0.000 C 
ATOM     20  O   UNL     1       3.701  15.390  17.290  0.00  0.00    +0.000 OA
ENDBRANCH   1  20
BRANCH   4  21
ATOM     21  O   UNL     1       7.665  14.733  21.121  0.00  0.00    +0.000 OA
ATOM     22  C   UNL     1       7.508  13.754  22.141  0.00  0.00    +0.000 C 
ENDBRANCH   4  21
BRANCH   6  23
ATOM     23  C   UNL     1       2.820  15.080  20.210  0.00  0.00    +0.000 C 
BRANCH  23  24
ATOM     24  N   UNL     1       2.103  13.927  19.650  0.00  0.00    +0.000 NA
ATOM     25  C   UNL     1       1.870  12.881  20.643  0.00  0.00    +0.000 C 
ATOM     26  C   UNL     1       0.847  14.330  19.029  0.00  0.00    +0.000 C 
ENDBRANCH  23  24
ENDBRANCH   6  23
TORSDOF 5
ENDMDL
MODEL 9
REMARK VINA RESULT:      -5.8      5.869      8.971
REMARK  Name = 
REMARK  10 active torsions:
REMARK  status: ('A' for Active; 'I' for Inactive)
REMARK    1  A    between atoms: C_1  and  O_2
REMARK    2  A    between atoms: O_2  and  C_3
REMARK    3  A    between atoms: C_5  and  C_6
REMARK    4  A    between atoms: N_8  and  C_9
REMARK    5  A    between atoms: C_18  and  O_19
REMARK    6  A    between atoms: O_19  and  C_20
REMARK    7  A    between atoms: C_22  and  C_23
REMARK    8  A    between atoms: C_23  and  N_24
REMARK    9  A    between atoms: N_24  and  C_25
REMARK   10  A    between atoms: N_24  and  C_26
REMARK                            x       y       z     vdW  Elec       q    Type
REMARK                         _______ _______ _______ _____ _____    ______ ____
ROOT
ATOM      1  C   UNL     1       1.342  14.520  19.030  0.00  0.00    +0.000 A 
ATOM      2  C   UNL     1       0.101  14.004  18.639  0.00  0.00    +0.000 A 
ATOM      3  C   UNL     1      -0.343  12.755  19.098  0.00  0.00    +0.000 A 
ATOM      4  C   UNL     1       0.498  11.967  19.901  0.00  0.00    +0.000 A 
ATOM      5  C   UNL     1       1.726  12.496  20.308  0.00  0.00    +0.000 A 
ATOM      6  C   UNL     1       2.141  13.796  19.932  0.00  0.00    +0.000 A 
ENDROOT
BRANCH   3   7
ATOM      7  C   UNL     1      -1.739  12.346  18.803  0.00  0.00    +0.000 A 
ATOM      8  C   UNL     1      -1.966  11.742  17.618  0.00  0.00    +0.000 A 
ATOM      9  N   UNL     1      -3.217  11.295  17.228  0.00  0.00    +0.000 N 
ATOM     10  C   UNL     1      -3.388  10.683  15.923  0.00  0.00    +0.000 C 
ATOM     11  C   UNL     1      -4.346  11.402  18.036  0.00  0.00    +0.000 A 
ATOM     12  O   UNL     1      -5.455  10.997  17.723  0.00  0.00    +0.000 OA
ATOM     13  C   UNL     1      -4.154  12.073  19.339  0.00  0.00    +0.000 A 
ATOM     14  C   UNL     1      -5.226  12.259  20.202  0.00  0.00    +0.000 A 
ATOM     15  N   UNL     1      -5.131  12.898  21.391  0.00  0.00    +0.000 NA
ATOM     16  C   UNL     1      -3.909  13.364  21.725  0.00  0.00    +0.000 A 
ATOM     17  C   UNL     1      -2.778  13.210  20.937  0.00  0.00    +0.000 A 
ATOM     18  C   UNL     1      -2.895  12.549  19.707  0.00  0.00    +0.000 A 
ENDBRANCH   3   7
BRANCH   1  20
ATOM     19  C   UNL     1       0.414  16.669  18.650  0.00  0.00    +0.000 C 
ATOM     20  O   UNL     1       1.553  15.818  18.640  0.00  0.00    +0.000 OA
ENDBRANCH   1  20
BRANCH   4  21
ATOM     21  O   UNL     1       0.017  10.740  20.273  0.00  0.00    +0.000 OA
ATOM     22  C   UNL     1       0.646   9.587  19.726  0.00  0.00    +0.000 C 
ENDBRANCH   4  21
BRANCH   6  23
ATOM     23  C   UNL     1       3.366  14.356  20.634  0.00  0.00    +0.000 C 
BRANCH  23  24
ATOM     24  N   UNL     1       3.144  14.604  22.064  0.00  0.00    +0.000 NA
ATOM     25  C   UNL     1       4.395  14.686  22.816  0.00  0.00    +0.000 C 
ATOM     26  C   UNL     1       2.341  15.802  22.280  0.00  0.00    +0.000 C 
ENDBRANCH  23  24
ENDBRANCH   6  23
TORSDOF 5
ENDMDL
