MODEL 1
REMARK VINA RESULT:      -7.1      0.000      0.000
REMARK  Name = 
REMARK  12 active torsions:
REMARK  status: ('A' for Active; 'I' for Inactive)
REMARK    1  A    between atoms: C_2  and  C_3
REMARK    2  A    between atoms: C_2  and  O_13
REMARK    3  A    between atoms: C_3  and  C_4
REMARK    4  A    between atoms: C_4  and  C_5
REMARK    5  A    between atoms: C_8  and  O_9
REMARK    6  A    between atoms: C_10  and  O_11
REMARK    7  A    between atoms: O_13  and  C_14
REMARK    8  A    between atoms: C_16  and  O_17
REMARK    9  A    between atoms: C_16  and  C_18
REMARK   10  A    between atoms: C_18  and  O_20
REMARK   11  A    between atoms: C_22  and  O_23
REMARK   12  A    between atoms: C_24  and  O_25
REMARK                            x       y       z     vdW  Elec       q    Type
REMARK                         _______ _______ _______ _____ _____    ______ ____
ROOT
ATOM      1  C   UNL     1       3.026   4.311  18.351  0.00  0.00    +0.000 C 
ATOM      2  C   UNL     1       1.754   3.473  18.153  0.00  0.00    +0.000 C 
ATOM      3  C   UNL     1       1.528   2.424  19.252  0.00  0.00    +0.000 C 
ATOM      4  C   UNL     1       2.776   1.579  19.524  0.00  0.00    +0.000 C 
ATOM      5  C   UNL     1       4.049   2.418  19.690  0.00  0.00    +0.000 C 
ATOM      6  C   UNL     1       4.256   3.397  18.515  0.00  0.00    +0.000 C 
ENDROOT
BRANCH   3   7
ATOM      7  O   UNL     1       0.449   1.570  18.794  0.00  0.00    +0.000 OA
ATOM      8  H   UNL     1       0.319   0.862  19.452  0.00  0.00    +0.000 HD
ENDBRANCH   3   7
BRANCH   3   9
ATOM      9  C   UNL     1       0.983   3.071  20.547  0.00  0.00    +0.000 C 
ATOM     10  O   UNL     1       1.208   2.689  21.684  0.00  0.00    +0.000 OA
BRANCH   9  11
ATOM     11  O   UNL     1       0.227   4.167  20.291  0.00  0.00    +0.000 OA
ATOM     12  H   UNL     1       0.037   4.610  21.150  0.00  0.00    +0.000 HD
ENDBRANCH   9  11
ENDBRANCH   3   9
BRANCH   5  13
ATOM     13  O   UNL     1       5.162   1.525  19.788  0.00  0.00    +0.000 OA
ATOM     14  H   UNL     1       5.009   0.799  19.154  0.00  0.00    +0.000 HD
ENDBRANCH   5  13
BRANCH   6  15
ATOM     15  O   UNL     1       4.564   2.664  17.320  0.00  0.00    +0.000 OA
ATOM     16  H   UNL     1       5.429   2.233  17.397  0.00  0.00    +0.000 HD
ENDBRANCH   6  15
BRANCH   1  17
ATOM     17  O   UNL     1       2.939   5.100  19.559  0.00  0.00    +0.000 OA
BRANCH  17  19
ATOM     18  O   UNL     1       1.868   6.899  20.453  0.00  0.00    +0.000 OA
ATOM     19  C   UNL     1       2.383   6.330  19.497  0.00  0.00    +0.000 C 
BRANCH  19  20
ATOM     20  C   UNL     1       2.579   6.972  18.139  0.00  0.00    +0.000 C 
BRANCH  20  21
ATOM     21  C   UNL     1       3.925   7.680  17.980  0.00  0.00    +0.000 C 
BRANCH  21  22
ATOM     22  C   UNL     1       4.919   6.844  17.210  0.00  0.00    +0.000 A 
ATOM     23  C   UNL     1       4.736   6.602  15.836  0.00  0.00    +0.000 A 
ATOM     24  C   UNL     1       5.647   5.818  15.118  0.00  0.00    +0.000 A 
ATOM     25  C   UNL     1       6.738   5.272  15.783  0.00  0.00    +0.000 A 
ATOM     26  C   UNL     1       6.925   5.509  17.142  0.00  0.00    +0.000 A 
ATOM     27  C   UNL     1       6.027   6.286  17.861  0.00  0.00    +0.000 A 
BRANCH  25  28
ATOM     28  O   UNL     1       7.658   4.488  15.142  0.00  0.00    +0.000 OA
ATOM     29  H   UNL     1       7.212   4.054  14.394  0.00  0.00    +0.000 HD
ENDBRANCH  25  28
BRANCH  26  30
ATOM     30  O   UNL     1       8.002   4.972  17.786  0.00  0.00    +0.000 OA
ATOM     31  H   UNL     1       7.610   4.382  18.461  0.00  0.00    +0.000 HD
ENDBRANCH  26  30
ENDBRANCH  21  22
ENDBRANCH  20  21
ENDBRANCH  19  20
ENDBRANCH  17  19
ENDBRANCH   1  17
TORSDOF 12
ENDMDL
MODEL 2
REMARK VINA RESULT:      -7.1      0.548      1.302
REMARK  Name = 
REMARK  12 active torsions:
REMARK  status: ('A' for Active; 'I' for Inactive)
REMARK    1  A    between atoms: C_2  and  C_3
REMARK    2  A    between atoms: C_2  and  O_13
REMARK    3  A    between atoms: C_3  and  C_4
REMARK    4  A    between atoms: C_4  and  C_5
REMARK    5  A    between atoms: C_8  and  O_9
REMARK    6  A    between atoms: C_10  and  O_11
REMARK    7  A    between atoms: O_13  and  C_14
REMARK    8  A    between atoms: C_16  and  O_17
REMARK    9  A    between atoms: C_16  and  C_18
REMARK   10  A    between atoms: C_18  and  O_20
REMARK   11  A    between atoms: C_22  and  O_23
REMARK   12  A    between atoms: C_24  and  O_25
REMARK                            x       y       z     vdW  Elec       q    Type
REMARK                         _______ _______ _______ _____ _____    ______ ____
ROOT
ATOM      1  C   UNL     1       3.040   4.400  18.353  0.00  0.00    +0.000 C 
ATOM      2  C   UNL     1       1.832   3.476  18.137  0.00  0.00    +0.000 C 
ATOM      3  C   UNL     1       1.651   2.426  19.243  0.00  0.00    +0.000 C 
ATOM      4  C   UNL     1       2.947   1.669  19.552  0.00  0.00    +0.000 C 
ATOM      5  C   UNL     1       4.156   2.594  19.737  0.00  0.00    +0.000 C 
ATOM      6  C   UNL     1       4.324   3.573  18.555  0.00  0.00    +0.000 C 
ENDROOT
BRANCH   3   7
ATOM      7  O   UNL     1       0.643   1.496  18.771  0.00  0.00    +0.000 OA
ATOM      8  H   UNL     1       1.058   0.618  18.674  0.00  0.00    +0.000 HD
ENDBRANCH   3   7
BRANCH   3   9
ATOM      9  C   UNL     1       1.034   3.048  20.518  0.00  0.00    +0.000 C 
ATOM     10  O   UNL     1       1.252   2.688  21.663  0.00  0.00    +0.000 OA
BRANCH   9  11
ATOM     11  O   UNL     1       0.221   4.094  20.232  0.00  0.00    +0.000 OA
ATOM     12  H   UNL     1       0.777   4.812  19.850  0.00  0.00    +0.000 HD
ENDBRANCH   9  11
ENDBRANCH   3   9
BRANCH   5  13
ATOM     13  O   UNL     1       5.324   1.779  19.871  0.00  0.00    +0.000 OA
ATOM     14  H   UNL     1       5.868   1.917  19.072  0.00  0.00    +0.000 HD
ENDBRANCH   5  13
BRANCH   6  15
ATOM     15  O   UNL     1       4.708   2.850  17.376  0.00  0.00    +0.000 OA
ATOM     16  H   UNL     1       4.350   1.949  17.395  0.00  0.00    +0.000 HD
ENDBRANCH   6  15
BRANCH   1  17
ATOM     17  O   UNL     1       2.872   5.194  19.550  0.00  0.00    +0.000 OA
BRANCH  17  19
ATOM     18  O   UNL     1       2.187   7.199  20.381  0.00  0.00    +0.000 OA
ATOM     19  C   UNL     1       2.461   6.475  19.430  0.00  0.00    +0.000 C 
BRANCH  19  20
ATOM     20  C   UNL     1       2.497   6.950  17.992  0.00  0.00    +0.000 C 
BRANCH  20  21
ATOM     21  C   UNL     1       3.739   7.773  17.645  0.00  0.00    +0.000 C 
BRANCH  21  22
ATOM     22  C   UNL     1       4.857   6.914  17.107  0.00  0.00    +0.000 A 
ATOM     23  C   UNL     1       6.080   6.819  17.797  0.00  0.00    +0.000 A 
ATOM     24  C   UNL     1       7.126   6.034  17.298  0.00  0.00    +0.000 A 
ATOM     25  C   UNL     1       6.946   5.350  16.103  0.00  0.00    +0.000 A 
ATOM     26  C   UNL     1       5.738   5.438  15.417  0.00  0.00    +0.000 A 
ATOM     27  C   UNL     1       4.695   6.214  15.905  0.00  0.00    +0.000 A 
BRANCH  25  28
ATOM     28  O   UNL     1       7.932   4.575  15.556  0.00  0.00    +0.000 OA
ATOM     29  H   UNL     1       8.788   4.924  15.860  0.00  0.00    +0.000 HD
ENDBRANCH  25  28
BRANCH  26  30
ATOM     30  O   UNL     1       5.568   4.759  14.245  0.00  0.00    +0.000 OA
ATOM     31  H   UNL     1       5.644   3.817  14.499  0.00  0.00    +0.000 HD
ENDBRANCH  26  30
ENDBRANCH  21  22
ENDBRANCH  20  21
ENDBRANCH  19  20
ENDBRANCH  17  19
ENDBRANCH   1  17
TORSDOF 12
ENDMDL
MODEL 3
REMARK VINA RESULT:      -7.0      3.238      5.525
REMARK  Name = 
REMARK  12 active torsions:
REMARK  status: ('A' for Active; 'I' for Inactive)
REMARK    1  A    between atoms: C_2  and  C_3
REMARK    2  A    between atoms: C_2  and  O_13
REMARK    3  A    between atoms: C_3  and  C_4
REMARK    4  A    between atoms: C_4  and  C_5
REMARK    5  A    between atoms: C_8  and  O_9
REMARK    6  A    between atoms: C_10  and  O_11
REMARK    7  A    between atoms: O_13  and  C_14
REMARK    8  A    between atoms: C_16  and  O_17
REMARK    9  A    between atoms: C_16  and  C_18
REMARK   10  A    between atoms: C_18  and  O_20
REMARK   11  A    between atoms: C_22  and  O_23
REMARK   12  A    between atoms: C_24  and  O_25
REMARK                            x       y       z     vdW  Elec       q    Type
REMARK                         _______ _______ _______ _____ _____    ______ ____
ROOT
ATOM      1  C   UNL     1       2.568   5.225  18.083  0.00  0.00    +0.000 C 
ATOM      2  C   UNL     1       1.781   3.910  17.986  0.00  0.00    +0.000 C 
ATOM      3  C   UNL     1       2.249   2.834  18.978  0.00  0.00    +0.000 C 
ATOM      4  C   UNL     1       3.769   2.636  18.956  0.00  0.00    +0.000 C 
ATOM      5  C   UNL     1       4.550   3.954  19.022  0.00  0.00    +0.000 C 
ATOM      6  C   UNL     1       4.080   4.961  17.950  0.00  0.00    +0.000 C 
ENDROOT
BRANCH   3   7
ATOM      7  O   UNL     1       1.590   1.601  18.594  0.00  0.00    +0.000 OA
ATOM      8  H   UNL     1       2.174   1.121  17.977  0.00  0.00    +0.000 HD
ENDBRANCH   3   7
BRANCH   3   9
ATOM      9  C   UNL     1       1.731   3.119  20.407  0.00  0.00    +0.000 C 
ATOM     10  O   UNL     1       2.333   2.887  21.442  0.00  0.00    +0.000 OA
BRANCH   9  11
ATOM     11  O   UNL     1       0.509   3.706  20.398  0.00  0.00    +0.000 OA
ATOM     12  H   UNL     1       0.246   3.842  19.458  0.00  0.00    +0.000 HD
ENDBRANCH   9  11
ENDBRANCH   3   9
BRANCH   5  13
ATOM     13  O   UNL     1       5.938   3.658  18.845  0.00  0.00    +0.000 OA
ATOM     14  H   UNL     1       6.270   4.235  18.131  0.00  0.00    +0.000 HD
ENDBRANCH   5  13
BRANCH   6  15
ATOM     15  O   UNL     1       4.448   4.488  16.645  0.00  0.00    +0.000 OA
ATOM     16  H   UNL     1       5.378   4.216  16.629  0.00  0.00    +0.000 HD
ENDBRANCH   6  15
BRANCH   1  17
ATOM     17  O   UNL     1       2.374   5.847  19.373  0.00  0.00    +0.000 OA
BRANCH  17  19
ATOM     18  O   UNL     1       2.102   7.828  20.461  0.00  0.00    +0.000 OA
ATOM     19  C   UNL     1       2.110   7.171  19.426  0.00  0.00    +0.000 C 
BRANCH  19  20
ATOM     20  C   UNL     1       1.949   7.772  18.044  0.00  0.00    +0.000 C 
BRANCH  20  21
ATOM     21  C   UNL     1       2.252   9.269  17.984  0.00  0.00    +0.000 C 
BRANCH  21  22
ATOM     22  C   UNL     1       1.017  10.108  18.205  0.00  0.00    +0.000 A 
ATOM     23  C   UNL     1       1.117  11.387  18.785  0.00  0.00    +0.000 A 
ATOM     24  C   UNL     1      -0.026  12.166  19.004  0.00  0.00    +0.000 A 
ATOM     25  C   UNL     1      -1.268  11.657  18.647  0.00  0.00    +0.000 A 
ATOM     26  C   UNL     1      -1.372  10.394  18.071  0.00  0.00    +0.000 A 
ATOM     27  C   UNL     1      -0.245   9.616  17.850  0.00  0.00    +0.000 A 
BRANCH  25  28
ATOM     28  O   UNL     1      -2.424  12.363  18.845  0.00  0.00    +0.000 OA
ATOM     29  H   UNL     1      -3.169  11.793  18.590  0.00  0.00    +0.000 HD
ENDBRANCH  25  28
BRANCH  26  30
ATOM     30  O   UNL     1      -2.597   9.904  17.719  0.00  0.00    +0.000 OA
ATOM     31  H   UNL     1      -2.552   9.817  16.746  0.00  0.00    +0.000 HD
ENDBRANCH  26  30
ENDBRANCH  21  22
ENDBRANCH  20  21
ENDBRANCH  19  20
ENDBRANCH  17  19
ENDBRANCH   1  17
TORSDOF 12
ENDMDL
MODEL 4
REMARK VINA RESULT:      -6.9      2.180      5.154
REMARK  Name = 
REMARK  12 active torsions:
REMARK  status: ('A' for Active; 'I' for Inactive)
REMARK    1  A    between atoms: C_2  and  C_3
REMARK    2  A    between atoms: C_2  and  O_13
REMARK    3  A    between atoms: C_3  and  C_4
REMARK    4  A    between atoms: C_4  and  C_5
REMARK    5  A    between atoms: C_8  and  O_9
REMARK    6  A    between atoms: C_10  and  O_11
REMARK    7  A    between atoms: O_13  and  C_14
REMARK    8  A    between atoms: C_16  and  O_17
REMARK    9  A    between atoms: C_16  and  C_18
REMARK   10  A    between atoms: C_18  and  O_20
REMARK   11  A    between atoms: C_22  and  O_23
REMARK   12  A    between atoms: C_24  and  O_25
REMARK                            x       y       z     vdW  Elec       q    Type
REMARK                         _______ _______ _______ _____ _____    ______ ____
ROOT
ATOM      1  C   UNL     1       3.984   3.832  20.376  0.00  0.00    +0.000 C 
ATOM      2  C   UNL     1       4.445   2.530  19.706  0.00  0.00    +0.000 C 
ATOM      3  C   UNL     1       3.442   1.970  18.686  0.00  0.00    +0.000 C 
ATOM      4  C   UNL     1       2.017   1.894  19.244  0.00  0.00    +0.000 C 
ATOM      5  C   UNL     1       1.572   3.187  19.939  0.00  0.00    +0.000 C 
ATOM      6  C   UNL     1       2.589   3.652  21.004  0.00  0.00    +0.000 C 
ENDROOT
BRANCH   3   7
ATOM      7  O   UNL     1       3.902   0.639  18.339  0.00  0.00    +0.000 OA
ATOM      8  H   UNL     1       4.484   0.321  19.054  0.00  0.00    +0.000 HD
ENDBRANCH   3   7
BRANCH   3   9
ATOM      9  C   UNL     1       3.493   2.754  17.354  0.00  0.00    +0.000 C 
ATOM     10  O   UNL     1       2.529   3.077  16.680  0.00  0.00    +0.000 OA
BRANCH   9  11
ATOM     11  O   UNL     1       4.760   3.092  17.009  0.00  0.00    +0.000 OA
ATOM     12  H   UNL     1       5.371   2.455  17.447  0.00  0.00    +0.000 HD
ENDBRANCH   9  11
ENDBRANCH   3   9
BRANCH   5  13
ATOM     13  O   UNL     1       0.298   2.951  20.545  0.00  0.00    +0.000 OA
ATOM     14  H   UNL     1      -0.348   2.825  19.824  0.00  0.00    +0.000 HD
ENDBRANCH   5  13
BRANCH   6  15
ATOM     15  O   UNL     1       2.592   2.734  22.107  0.00  0.00    +0.000 OA
ATOM     16  H   UNL     1       3.356   2.893  22.683  0.00  0.00    +0.000 HD
ENDBRANCH   6  15
BRANCH   1  17
ATOM     17  O   UNL     1       3.861   4.895  19.404  0.00  0.00    +0.000 OA
BRANCH  17  19
ATOM     18  O   UNL     1       6.058   5.461  19.597  0.00  0.00    +0.000 OA
ATOM     19  C   UNL     1       4.936   5.672  19.148  0.00  0.00    +0.000 C 
BRANCH  19  20
ATOM     20  C   UNL     1       4.622   6.760  18.142  0.00  0.00    +0.000 C 
BRANCH  20  21
ATOM     21  C   UNL     1       3.153   6.803  17.719  0.00  0.00    +0.000 C 
BRANCH  21  22
ATOM     22  C   UNL     1       2.371   7.843  18.485  0.00  0.00    +0.000 A 
ATOM     23  C   UNL     1       2.007   7.617  19.826  0.00  0.00    +0.000 A 
ATOM     24  C   UNL     1       1.272   8.572  20.539  0.00  0.00    +0.000 A 
ATOM     25  C   UNL     1       0.898   9.749  19.903  0.00  0.00    +0.000 A 
ATOM     26  C   UNL     1       1.257   9.978  18.578  0.00  0.00    +0.000 A 
ATOM     27  C   UNL     1       1.986   9.037  17.864  0.00  0.00    +0.000 A 
BRANCH  25  28
ATOM     28  O   UNL     1       0.169  10.716  20.541  0.00  0.00    +0.000 OA
ATOM     29  H   UNL     1       0.781  11.240  21.085  0.00  0.00    +0.000 HD
ENDBRANCH  25  28
BRANCH  26  30
ATOM     30  O   UNL     1       0.888  11.139  17.962  0.00  0.00    +0.000 OA
ATOM     31  H   UNL     1       0.619  11.727  18.696  0.00  0.00    +0.000 HD
ENDBRANCH  26  30
ENDBRANCH  21  22
ENDBRANCH  20  21
ENDBRANCH  19  20
ENDBRANCH  17  19
ENDBRANCH   1  17
TORSDOF 12
ENDMDL
MODEL 5
REMARK VINA RESULT:      -6.9      1.962      4.997
REMARK  Name = 
REMARK  12 active torsions:
REMARK  status: ('A' for Active; 'I' for Inactive)
REMARK    1  A    between atoms: C_2  and  C_3
REMARK    2  A    between atoms: C_2  and  O_13
REMARK    3  A    between atoms: C_3  and  C_4
REMARK    4  A    between atoms: C_4  and  C_5
REMARK    5  A    between atoms: C_8  and  O_9
REMARK    6  A    between atoms: C_10  and  O_11
REMARK    7  A    between atoms: O_13  and  C_14
REMARK    8  A    between atoms: C_16  and  O_17
REMARK    9  A    between atoms: C_16  and  C_18
REMARK   10  A    between atoms: C_18  and  O_20
REMARK   11  A    between atoms: C_22  and  O_23
REMARK   12  A    between atoms: C_24  and  O_25
REMARK                            x       y       z     vdW  Elec       q    Type
REMARK                         _______ _______ _______ _____ _____    ______ ____
ROOT
ATOM      1  C   UNL     1       3.996   3.789  20.376  0.00  0.00    +0.000 C 
ATOM      2  C   UNL     1       4.450   2.490  19.694  0.00  0.00    +0.000 C 
ATOM      3  C   UNL     1       3.449   1.953  18.659  0.00  0.00    +0.000 C 
ATOM      4  C   UNL     1       2.019   1.886  19.205  0.00  0.00    +0.000 C 
ATOM      5  C   UNL     1       1.581   3.174  19.912  0.00  0.00    +0.000 C 
ATOM      6  C   UNL     1       2.594   3.616  20.991  0.00  0.00    +0.000 C 
ENDROOT
BRANCH   3   7
ATOM      7  O   UNL     1       3.898   0.622  18.300  0.00  0.00    +0.000 OA
ATOM      8  H   UNL     1       4.849   0.552  18.510  0.00  0.00    +0.000 HD
ENDBRANCH   3   7
BRANCH   3   9
ATOM      9  C   UNL     1       3.519   2.753  17.337  0.00  0.00    +0.000 C 
ATOM     10  O   UNL     1       2.564   3.103  16.665  0.00  0.00    +0.000 OA
BRANCH   9  11
ATOM     11  O   UNL     1       4.794   3.068  16.999  0.00  0.00    +0.000 OA
ATOM     12  H   UNL     1       5.355   2.958  17.802  0.00  0.00    +0.000 HD
ENDBRANCH   9  11
ENDBRANCH   3   9
BRANCH   5  13
ATOM     13  O   UNL     1       0.301   2.945  20.504  0.00  0.00    +0.000 OA
ATOM     14  H   UNL     1       0.040   3.766  20.962  0.00  0.00    +0.000 HD
ENDBRANCH   5  13
BRANCH   6  15
ATOM     15  O   UNL     1       2.579   2.685  22.083  0.00  0.00    +0.000 OA
ATOM     16  H   UNL     1       1.678   2.368  22.249  0.00  0.00    +0.000 HD
ENDBRANCH   6  15
BRANCH   1  17
ATOM     17  O   UNL     1       3.893   4.865  19.416  0.00  0.00    +0.000 OA
BRANCH  17  19
ATOM     18  O   UNL     1       6.092   5.407  19.639  0.00  0.00    +0.000 OA
ATOM     19  C   UNL     1       4.981   5.626  19.169  0.00  0.00    +0.000 C 
BRANCH  19  20
ATOM     20  C   UNL     1       4.696   6.707  18.147  0.00  0.00    +0.000 C 
BRANCH  20  21
ATOM     21  C   UNL     1       3.244   6.738  17.670  0.00  0.00    +0.000 C 
BRANCH  21  22
ATOM     22  C   UNL     1       2.434   7.794  18.382  0.00  0.00    +0.000 A 
ATOM     23  C   UNL     1       2.041   8.967  17.709  0.00  0.00    +0.000 A 
ATOM     24  C   UNL     1       1.300   9.956  18.366  0.00  0.00    +0.000 A 
ATOM     25  C   UNL     1       0.959   9.771  19.700  0.00  0.00    +0.000 A 
ATOM     26  C   UNL     1       1.344   8.612  20.369  0.00  0.00    +0.000 A 
ATOM     27  C   UNL     1       2.078   7.626  19.725  0.00  0.00    +0.000 A 
BRANCH  25  28
ATOM     28  O   UNL     1       0.247  10.704  20.402  0.00  0.00    +0.000 OA
ATOM     29  H   UNL     1      -0.217  10.245  21.123  0.00  0.00    +0.000 HD
ENDBRANCH  25  28
BRANCH  26  30
ATOM     30  O   UNL     1       1.001   8.436  21.679  0.00  0.00    +0.000 OA
ATOM     31  H   UNL     1       0.265   9.064  21.823  0.00  0.00    +0.000 HD
ENDBRANCH  26  30
ENDBRANCH  21  22
ENDBRANCH  20  21
ENDBRANCH  19  20
ENDBRANCH  17  19
ENDBRANCH   1  17
TORSDOF 12
ENDMDL
MODEL 6
REMARK VINA RESULT:      -6.9      1.787      2.786
REMARK  Name = 
REMARK  12 active torsions:
REMARK  status: ('A' for Active; 'I' for Inactive)
REMARK    1  A    between atoms: C_2  and  C_3
REMARK    2  A    between atoms: C_2  and  O_13
REMARK    3  A    between atoms: C_3  and  C_4
REMARK    4  A    between atoms: C_4  and  C_5
REMARK    5  A    between atoms: C_8  and  O_9
REMARK    6  A    between atoms: C_10  and  O_11
REMARK    7  A    between atoms: O_13  and  C_14
REMARK    8  A    between atoms: C_16  and  O_17
REMARK    9  A    between atoms: C_16  and  C_18
REMARK   10  A    between atoms: C_18  and  O_20
REMARK   11  A    between atoms: C_22  and  O_23
REMARK   12  A    between atoms: C_24  and  O_25
REMARK                            x       y       z     vdW  Elec       q    Type
REMARK                         _______ _______ _______ _____ _____    ______ ____
ROOT
ATOM      1  C   UNL     1       3.114   4.563  18.299  0.00  0.00    +0.000 C 
ATOM      2  C   UNL     1       1.709   4.474  18.911  0.00  0.00    +0.000 C 
ATOM      3  C   UNL     1       1.567   3.381  19.980  0.00  0.00    +0.000 C 
ATOM      4  C   UNL     1       2.112   2.027  19.512  0.00  0.00    +0.000 C 
ATOM      5  C   UNL     1       3.504   2.125  18.874  0.00  0.00    +0.000 C 
ATOM      6  C   UNL     1       3.556   3.189  17.757  0.00  0.00    +0.000 C 
ENDROOT
BRANCH   3   7
ATOM      7  O   UNL     1       0.151   3.264  20.269  0.00  0.00    +0.000 OA
ATOM      8  H   UNL     1      -0.336   3.840  19.650  0.00  0.00    +0.000 HD
ENDBRANCH   3   7
BRANCH   3   9
ATOM      9  C   UNL     1       2.199   3.818  21.322  0.00  0.00    +0.000 C 
ATOM     10  O   UNL     1       2.558   3.071  22.218  0.00  0.00    +0.000 OA
BRANCH   9  11
ATOM     11  O   UNL     1       2.353   5.163  21.399  0.00  0.00    +0.000 OA
ATOM     12  H   UNL     1       2.862   5.454  20.608  0.00  0.00    +0.000 HD
ENDBRANCH   9  11
ENDBRANCH   3   9
BRANCH   5  13
ATOM     13  O   UNL     1       3.842   0.840  18.346  0.00  0.00    +0.000 OA
ATOM     14  H   UNL     1       3.116   0.230  18.577  0.00  0.00    +0.000 HD
ENDBRANCH   5  13
BRANCH   6  15
ATOM     15  O   UNL     1       2.769   2.757  16.637  0.00  0.00    +0.000 OA
ATOM     16  H   UNL     1       1.995   2.255  16.936  0.00  0.00    +0.000 HD
ENDBRANCH   6  15
BRANCH   1  17
ATOM     17  O   UNL     1       4.088   4.940  19.299  0.00  0.00    +0.000 OA
BRANCH  17  19
ATOM     18  O   UNL     1       6.296   4.398  19.416  0.00  0.00    +0.000 OA
ATOM     19  C   UNL     1       5.383   5.061  18.935  0.00  0.00    +0.000 C 
BRANCH  19  20
ATOM     20  C   UNL     1       5.559   6.022  17.777  0.00  0.00    +0.000 C 
BRANCH  20  21
ATOM     21  C   UNL     1       6.890   5.864  17.040  0.00  0.00    +0.000 C 
BRANCH  21  22
ATOM     22  C   UNL     1       6.718   5.201  15.695  0.00  0.00    +0.000 A 
ATOM     23  C   UNL     1       5.815   4.134  15.534  0.00  0.00    +0.000 A 
ATOM     24  C   UNL     1       5.659   3.507  14.292  0.00  0.00    +0.000 A 
ATOM     25  C   UNL     1       6.416   3.948  13.214  0.00  0.00    +0.000 A 
ATOM     26  C   UNL     1       7.311   5.004  13.367  0.00  0.00    +0.000 A 
ATOM     27  C   UNL     1       7.470   5.632  14.595  0.00  0.00    +0.000 A 
BRANCH  25  28
ATOM     28  O   UNL     1       6.320   3.371  11.977  0.00  0.00    +0.000 OA
ATOM     29  H   UNL     1       6.198   2.414  12.103  0.00  0.00    +0.000 HD
ENDBRANCH  25  28
BRANCH  26  30
ATOM     30  O   UNL     1       8.047   5.433  12.301  0.00  0.00    +0.000 OA
ATOM     31  H   UNL     1       8.396   6.302  12.582  0.00  0.00    +0.000 HD
ENDBRANCH  26  30
ENDBRANCH  21  22
ENDBRANCH  20  21
ENDBRANCH  19  20
ENDBRANCH  17  19
ENDBRANCH   1  17
TORSDOF 12
ENDMDL
MODEL 7
REMARK VINA RESULT:      -6.9      3.392      5.576
REMARK  Name = 
REMARK  12 active torsions:
REMARK  status: ('A' for Active; 'I' for Inactive)
REMARK    1  A    between atoms: C_2  and  C_3
REMARK    2  A    between atoms: C_2  and  O_13
REMARK    3  A    between atoms: C_3  and  C_4
REMARK    4  A    between atoms: C_4  and  C_5
REMARK    5  A    between atoms: C_8  and  O_9
REMARK    6  A    between atoms: C_10  and  O_11
REMARK    7  A    between atoms: O_13  and  C_14
REMARK    8  A    between atoms: C_16  and  O_17
REMARK    9  A    between atoms: C_16  and  C_18
REMARK   10  A    between atoms: C_18  and  O_20
REMARK   11  A    between atoms: C_22  and  O_23
REMARK   12  A    between atoms: C_24  and  O_25
REMARK                            x       y       z     vdW  Elec       q    Type
REMARK                         _______ _______ _______ _____ _____    ______ ____
ROOT
ATOM      1  C   UNL     1       2.705   5.433  18.059  0.00  0.00    +0.000 C 
ATOM      2  C   UNL     1       1.826   4.179  17.949  0.00  0.00    +0.000 C 
ATOM      3  C   UNL     1       2.223   3.058  18.922  0.00  0.00    +0.000 C 
ATOM      4  C   UNL     1       3.724   2.753  18.886  0.00  0.00    +0.000 C 
ATOM      5  C   UNL     1       4.597   4.011  18.966  0.00  0.00    +0.000 C 
ATOM      6  C   UNL     1       4.194   5.065  17.912  0.00  0.00    +0.000 C 
ENDROOT
BRANCH   3   7
ATOM      7  O   UNL     1       1.476   1.881  18.524  0.00  0.00    +0.000 OA
ATOM      8  H   UNL     1       0.907   1.612  19.270  0.00  0.00    +0.000 HD
ENDBRANCH   3   7
BRANCH   3   9
ATOM      9  C   UNL     1       1.734   3.358  20.358  0.00  0.00    +0.000 C 
ATOM     10  O   UNL     1       2.340   3.100  21.385  0.00  0.00    +0.000 OA
BRANCH   9  11
ATOM     11  O   UNL     1       0.534   3.990  20.367  0.00  0.00    +0.000 OA
ATOM     12  H   UNL     1       0.318   4.239  19.439  0.00  0.00    +0.000 HD
ENDBRANCH   9  11
ENDBRANCH   3   9
BRANCH   5  13
ATOM     13  O   UNL     1       5.959   3.621  18.776  0.00  0.00    +0.000 OA
ATOM     14  H   UNL     1       6.317   3.374  19.650  0.00  0.00    +0.000 HD
ENDBRANCH   5  13
BRANCH   6  15
ATOM     15  O   UNL     1       4.519   4.588  16.598  0.00  0.00    +0.000 OA
ATOM     16  H   UNL     1       3.962   3.831  16.362  0.00  0.00    +0.000 HD
ENDBRANCH   6  15
BRANCH   1  17
ATOM     17  O   UNL     1       2.562   6.048  19.360  0.00  0.00    +0.000 OA
BRANCH  17  19
ATOM     18  O   UNL     1       1.898   7.911  20.488  0.00  0.00    +0.000 OA
ATOM     19  C   UNL     1       2.102   7.316  19.435  0.00  0.00    +0.000 C 
BRANCH  19  20
ATOM     20  C   UNL     1       1.987   7.959  18.068  0.00  0.00    +0.000 C 
BRANCH  20  21
ATOM     21  C   UNL     1       2.220   9.471  18.075  0.00  0.00    +0.000 C 
BRANCH  21  22
ATOM     22  C   UNL     1       0.936  10.242  18.259  0.00  0.00    +0.000 A 
ATOM     23  C   UNL     1      -0.294   9.687  17.859  0.00  0.00    +0.000 A 
ATOM     24  C   UNL     1      -1.488  10.402  18.015  0.00  0.00    +0.000 A 
ATOM     25  C   UNL     1      -1.445  11.676  18.567  0.00  0.00    +0.000 A 
ATOM     26  C   UNL     1      -0.231  12.229  18.967  0.00  0.00    +0.000 A 
ATOM     27  C   UNL     1       0.957  11.527  18.816  0.00  0.00    +0.000 A 
BRANCH  25  28
ATOM     28  O   UNL     1      -2.574  12.430  18.737  0.00  0.00    +0.000 OA
ATOM     29  H   UNL     1      -2.324  13.237  19.219  0.00  0.00    +0.000 HD
ENDBRANCH  25  28
BRANCH  26  30
ATOM     30  O   UNL     1      -0.199  13.480  19.512  0.00  0.00    +0.000 OA
ATOM     31  H   UNL     1       0.720  13.783  19.368  0.00  0.00    +0.000 HD
ENDBRANCH  26  30
ENDBRANCH  21  22
ENDBRANCH  20  21
ENDBRANCH  19  20
ENDBRANCH  17  19
ENDBRANCH   1  17
TORSDOF 12
ENDMDL
MODEL 8
REMARK VINA RESULT:      -6.9      3.645      6.287
REMARK  Name = 
REMARK  12 active torsions:
REMARK  status: ('A' for Active; 'I' for Inactive)
REMARK    1  A    between atoms: C_2  and  C_3
REMARK    2  A    between atoms: C_2  and  O_13
REMARK    3  A    between atoms: C_3  and  C_4
REMARK    4  A    between atoms: C_4  and  C_5
REMARK    5  A    between atoms: C_8  and  O_9
REMARK    6  A    between atoms: C_10  and  O_11
REMARK    7  A    between atoms: O_13  and  C_14
REMARK    8  A    between atoms: C_16  and  O_17
REMARK    9  A    between atoms: C_16  and  C_18
REMARK   10  A    between atoms: C_18  and  O_20
REMARK   11  A    between atoms: C_22  and  O_23
REMARK   12  A    between atoms: C_24  and  O_25
REMARK                            x       y       z     vdW  Elec       q    Type
REMARK                         _______ _______ _______ _____ _____    ______ ____
ROOT
ATOM      1  C   UNL     1       2.485   5.093  18.372  0.00  0.00    +0.000 C 
ATOM      2  C   UNL     1       1.733   3.755  18.312  0.00  0.00    +0.000 C 
ATOM      3  C   UNL     1       2.283   2.692  19.274  0.00  0.00    +0.000 C 
ATOM      4  C   UNL     1       3.804   2.539  19.174  0.00  0.00    +0.000 C 
ATOM      5  C   UNL     1       4.549   3.879  19.204  0.00  0.00    +0.000 C 
ATOM      6  C   UNL     1       3.995   4.874  18.161  0.00  0.00    +0.000 C 
ENDROOT
BRANCH   3   7
ATOM      7  O   UNL     1       1.641   1.441  18.920  0.00  0.00    +0.000 OA
ATOM      8  H   UNL     1       1.911   0.764  19.569  0.00  0.00    +0.000 HD
ENDBRANCH   3   7
BRANCH   3   9
ATOM      9  C   UNL     1       1.830   2.959  20.729  0.00  0.00    +0.000 C 
ATOM     10  O   UNL     1       2.474   2.704  21.733  0.00  0.00    +0.000 OA
BRANCH   9  11
ATOM     11  O   UNL     1       0.615   3.557  20.783  0.00  0.00    +0.000 OA
ATOM     12  H   UNL     1      -0.003   2.943  21.245  0.00  0.00    +0.000 HD
ENDBRANCH   9  11
ENDBRANCH   3   9
BRANCH   5  13
ATOM     13  O   UNL     1       5.934   3.624  18.956  0.00  0.00    +0.000 OA
ATOM     14  H   UNL     1       6.239   2.988  19.631  0.00  0.00    +0.000 HD
ENDBRANCH   5  13
BRANCH   6  15
ATOM     15  O   UNL     1       4.309   4.415  16.838  0.00  0.00    +0.000 OA
ATOM     16  H   UNL     1       3.889   4.981  16.172  0.00  0.00    +0.000 HD
ENDBRANCH   6  15
BRANCH   1  17
ATOM     17  O   UNL     1       2.339   5.706  19.673  0.00  0.00    +0.000 OA
BRANCH  17  19
ATOM     18  O   UNL     1       2.458   7.851  18.921  0.00  0.00    +0.000 OA
ATOM     19  C   UNL     1       2.072   7.029  19.744  0.00  0.00    +0.000 C 
BRANCH  19  20
ATOM     20  C   UNL     1       1.138   7.357  20.891  0.00  0.00    +0.000 C 
BRANCH  20  21
ATOM     21  C   UNL     1       1.602   8.537  21.746  0.00  0.00    +0.000 C 
BRANCH  21  22
ATOM     22  C   UNL     1       0.551   9.616  21.845  0.00  0.00    +0.000 A 
ATOM     23  C   UNL     1      -0.187   9.788  23.030  0.00  0.00    +0.000 A 
ATOM     24  C   UNL     1      -1.172  10.779  23.124  0.00  0.00    +0.000 A 
ATOM     25  C   UNL     1      -1.418  11.592  22.025  0.00  0.00    +0.000 A 
ATOM     26  C   UNL     1      -0.689  11.428  20.851  0.00  0.00    +0.000 A 
ATOM     27  C   UNL     1       0.289  10.448  20.749  0.00  0.00    +0.000 A 
BRANCH  25  28
ATOM     28  O   UNL     1      -2.374  12.571  22.049  0.00  0.00    +0.000 OA
ATOM     29  H   UNL     1      -2.259  13.119  21.254  0.00  0.00    +0.000 HD
ENDBRANCH  25  28
BRANCH  26  30
ATOM     30  O   UNL     1      -0.935  12.235  19.777  0.00  0.00    +0.000 OA
ATOM     31  H   UNL     1      -0.210  12.891  19.797  0.00  0.00    +0.000 HD
ENDBRANCH  26  30
ENDBRANCH  21  22
ENDBRANCH  20  21
ENDBRANCH  19  20
ENDBRANCH  17  19
ENDBRANCH   1  17
TORSDOF 12
ENDMDL
MODEL 9
REMARK VINA RESULT:      -6.8      0.964      3.087
REMARK  Name = 
REMARK  12 active torsions:
REMARK  status: ('A' for Active; 'I' for Inactive)
REMARK    1  A    between atoms: C_2  and  C_3
REMARK    2  A    between atoms: C_2  and  O_13
REMARK    3  A    between atoms: C_3  and  C_4
REMARK    4  A    between atoms: C_4  and  C_5
REMARK    5  A    between atoms: C_8  and  O_9
REMARK    6  A    between atoms: C_10  and  O_11
REMARK    7  A    between atoms: O_13  and  C_14
REMARK    8  A    between atoms: C_16  and  O_17
REMARK    9  A    between atoms: C_16  and  C_18
REMARK   10  A    between atoms: C_18  and  O_20
REMARK   11  A    between atoms: C_22  and  O_23
REMARK   12  A    between atoms: C_24  and  O_25
REMARK                            x       y       z     vdW  Elec       q    Type
REMARK                         _______ _______ _______ _____ _____    ______ ____
ROOT
ATOM      1  C   UNL     1       2.685   4.294  20.508  0.00  0.00    +0.000 C 
ATOM      2  C   UNL     1       3.725   3.172  20.640  0.00  0.00    +0.000 C 
ATOM      3  C   UNL     1       3.847   2.290  19.388  0.00  0.00    +0.000 C 
ATOM      4  C   UNL     1       2.487   1.801  18.879  0.00  0.00    +0.000 C 
ATOM      5  C   UNL     1       1.442   2.920  18.778  0.00  0.00    +0.000 C 
ATOM      6  C   UNL     1       1.317   3.717  20.094  0.00  0.00    +0.000 C 
ENDROOT
BRANCH   3   7
ATOM      7  O   UNL     1       4.667   1.154  19.759  0.00  0.00    +0.000 OA
ATOM      8  H   UNL     1       5.437   1.124  19.161  0.00  0.00    +0.000 HD
ENDBRANCH   3   7
BRANCH   3   9
ATOM      9  C   UNL     1       4.652   3.000  18.274  0.00  0.00    +0.000 C 
ATOM     10  O   UNL     1       4.390   2.981  17.083  0.00  0.00    +0.000 OA
BRANCH   9  11
ATOM     11  O   UNL     1       5.701   3.700  18.771  0.00  0.00    +0.000 OA
ATOM     12  H   UNL     1       6.470   3.087  18.835  0.00  0.00    +0.000 HD
ENDBRANCH   9  11
ENDBRANCH   3   9
BRANCH   5  13
ATOM     13  O   UNL     1       0.186   2.326  18.440  0.00  0.00    +0.000 OA
ATOM     14  H   UNL     1       0.300   1.358  18.484  0.00  0.00    +0.000 HD
ENDBRANCH   5  13
BRANCH   6  15
ATOM     15  O   UNL     1       0.735   2.888  21.111  0.00  0.00    +0.000 OA
ATOM     16  H   UNL     1       1.423   2.404  21.593  0.00  0.00    +0.000 HD
ENDBRANCH   6  15
BRANCH   1  17
ATOM     17  O   UNL     1       3.065   5.228  19.472  0.00  0.00    +0.000 OA
BRANCH  17  19
ATOM     18  O   UNL     1       1.992   7.019  20.380  0.00  0.00    +0.000 OA
ATOM     19  C   UNL     1       2.432   6.420  19.405  0.00  0.00    +0.000 C 
BRANCH  19  20
ATOM     20  C   UNL     1       2.440   6.987  18.000  0.00  0.00    +0.000 C 
BRANCH  20  21
ATOM     21  C   UNL     1       3.677   7.828  17.681  0.00  0.00    +0.000 C 
BRANCH  21  22
ATOM     22  C   UNL     1       4.798   6.995  17.108  0.00  0.00    +0.000 A 
ATOM     23  C   UNL     1       6.102   7.097  17.628  0.00  0.00    +0.000 A 
ATOM     24  C   UNL     1       7.149   6.336  17.094  0.00  0.00    +0.000 A 
ATOM     25  C   UNL     1       6.886   5.479  16.033  0.00  0.00    +0.000 A 
ATOM     26  C   UNL     1       5.598   5.373  15.516  0.00  0.00    +0.000 A 
ATOM     27  C   UNL     1       4.555   6.122  16.040  0.00  0.00    +0.000 A 
BRANCH  25  28
ATOM     28  O   UNL     1       7.867   4.717  15.458  0.00  0.00    +0.000 OA
ATOM     29  H   UNL     1       8.690   5.235  15.465  0.00  0.00    +0.000 HD
ENDBRANCH  25  28
BRANCH  26  30
ATOM     30  O   UNL     1       5.349   4.524  14.476  0.00  0.00    +0.000 OA
ATOM     31  H   UNL     1       5.064   5.111  13.748  0.00  0.00    +0.000 HD
ENDBRANCH  26  30
ENDBRANCH  21  22
ENDBRANCH  20  21
ENDBRANCH  19  20
ENDBRANCH  17  19
ENDBRANCH   1  17
TORSDOF 12
ENDMDL
