MODEL 1
REMARK VINA RESULT:      -8.4      0.000      0.000
REMARK  Name = 
REMARK  4 active torsions:
REMARK  status: ('A' for Active; 'I' for Inactive)
REMARK    1  A    between atoms: C_1  and  C_2
REMARK    2  A    between atoms: C_5  and  C_6
REMARK    3  A    between atoms: C_14  and  C_15
REMARK    4  A    between atoms: N_17  and  O_18
REMARK                            x       y       z     vdW  Elec       q    Type
REMARK                         _______ _______ _______ _____ _____    ______ ____
ROOT
ATOM      1  C   UNL     1       5.729   5.104  19.122  0.00  0.00    +0.000 A 
ATOM      2  N   UNL     1       6.802   5.649  19.659  0.00  0.00    +0.000 NA
ATOM      3  N   UNL     1       7.610   6.039  18.606  0.00  0.00    +0.000 NA
ATOM      4  C   UNL     1       6.990   5.681  17.501  0.00  0.00    +0.000 A 
ATOM      5  N   UNL     1       7.383   5.841  16.232  0.00  0.00    +0.000 N 
ATOM      6  C   UNL     1       6.969   5.079  15.150  0.00  0.00    +0.000 A 
ATOM      7  N   UNL     1       6.017   4.141  15.288  0.00  0.00    +0.000 NA
ATOM      8  C   UNL     1       5.691   3.401  14.211  0.00  0.00    +0.000 A 
ATOM      9  C   UNL     1       6.286   3.552  12.985  0.00  0.00    +0.000 A 
ATOM     10  C   UNL     1       7.233   4.547  12.920  0.00  0.00    +0.000 A 
ATOM     11  N   UNL     1       7.599   5.304  13.984  0.00  0.00    +0.000 NA
ATOM     12  O   UNL     1       5.773   5.107  17.758  0.00  0.00    +0.000 OA
ATOM     13  H   UNL     1       8.249   6.317  16.035  0.00  0.00    +0.000 HD
ENDROOT
BRANCH   1  18
ATOM     14  C   UNL     1       1.098   2.690  21.610  0.00  0.00    +0.000 C 
ATOM     15  C   UNL     1       2.297   3.320  20.966  0.00  0.00    +0.000 A 
ATOM     16  C   UNL     1       3.402   2.546  20.599  0.00  0.00    +0.000 A 
ATOM     17  C   UNL     1       4.515   3.141  19.999  0.00  0.00    +0.000 A 
ATOM     18  C   UNL     1       4.552   4.519  19.753  0.00  0.00    +0.000 A 
ATOM     19  C   UNL     1       3.440   5.292  20.122  0.00  0.00    +0.000 A 
ATOM     20  C   UNL     1       2.324   4.699  20.722  0.00  0.00    +0.000 A 
ENDBRANCH   1  18
BRANCH   9  21
ATOM     21  C   UNL     1       5.933   2.754  11.807  0.00  0.00    +0.000 C 
ATOM     22  O   UNL     1       4.943   3.033  11.137  0.00  0.00    +0.000 OA
ATOM     23  N   UNL     1       6.770   1.711  11.481  0.00  0.00    +0.000 N 
ATOM     24  H   UNL     1       7.714   1.583  11.829  0.00  0.00    +0.000 HD
BRANCH  23  25
ATOM     25  O   UNL     1       6.454   1.023  10.288  0.00  0.00    +0.000 OA
ATOM     26  H   UNL     1       7.246   0.459  10.150  0.00  0.00    +0.000 HD
ENDBRANCH  23  25
ENDBRANCH   9  21
TORSDOF 3
ENDMDL
MODEL 2
REMARK VINA RESULT:      -8.4      0.047      1.006
REMARK  Name = 
REMARK  4 active torsions:
REMARK  status: ('A' for Active; 'I' for Inactive)
REMARK    1  A    between atoms: C_1  and  C_2
REMARK    2  A    between atoms: C_5  and  C_6
REMARK    3  A    between atoms: C_14  and  C_15
REMARK    4  A    between atoms: N_17  and  O_18
REMARK                            x       y       z     vdW  Elec       q    Type
REMARK                         _______ _______ _______ _____ _____    ______ ____
ROOT
ATOM      1  C   UNL     1       5.747   5.058  19.126  0.00  0.00    +0.000 A 
ATOM      2  N   UNL     1       6.812   5.619  19.663  0.00  0.00    +0.000 NA
ATOM      3  N   UNL     1       7.608   6.031  18.610  0.00  0.00    +0.000 NA
ATOM      4  C   UNL     1       6.991   5.668  17.505  0.00  0.00    +0.000 A 
ATOM      5  N   UNL     1       7.376   5.844  16.235  0.00  0.00    +0.000 N 
ATOM      6  C   UNL     1       6.972   5.081  15.150  0.00  0.00    +0.000 A 
ATOM      7  N   UNL     1       6.038   4.124  15.285  0.00  0.00    +0.000 NA
ATOM      8  C   UNL     1       5.722   3.385  14.205  0.00  0.00    +0.000 A 
ATOM      9  C   UNL     1       6.310   3.555  12.978  0.00  0.00    +0.000 A 
ATOM     10  C   UNL     1       7.238   4.569  12.916  0.00  0.00    +0.000 A 
ATOM     11  N   UNL     1       7.593   5.325  13.983  0.00  0.00    +0.000 NA
ATOM     12  O   UNL     1       5.787   5.070  17.762  0.00  0.00    +0.000 OA
ATOM     13  H   UNL     1       8.232   6.338  16.038  0.00  0.00    +0.000 HD
ENDROOT
BRANCH   1  18
ATOM     14  C   UNL     1       1.095   2.723  21.649  0.00  0.00    +0.000 C 
ATOM     15  C   UNL     1       2.302   3.324  20.994  0.00  0.00    +0.000 A 
ATOM     16  C   UNL     1       2.354   4.692  20.707  0.00  0.00    +0.000 A 
ATOM     17  C   UNL     1       3.484   5.244  20.097  0.00  0.00    +0.000 A 
ATOM     18  C   UNL     1       4.584   4.446  19.758  0.00  0.00    +0.000 A 
ATOM     19  C   UNL     1       4.528   3.074  20.048  0.00  0.00    +0.000 A 
ATOM     20  C   UNL     1       3.398   2.519  20.660  0.00  0.00    +0.000 A 
ENDBRANCH   1  18
BRANCH   9  21
ATOM     21  C   UNL     1       5.968   2.758  11.796  0.00  0.00    +0.000 C 
ATOM     22  O   UNL     1       4.963   3.014  11.139  0.00  0.00    +0.000 OA
ATOM     23  N   UNL     1       6.831   1.742  11.451  0.00  0.00    +0.000 N 
ATOM     24  H   UNL     1       7.782   1.639  11.789  0.00  0.00    +0.000 HD
BRANCH  23  25
ATOM     25  O   UNL     1       6.522   1.056  10.255  0.00  0.00    +0.000 OA
ATOM     26  H   UNL     1       7.410   0.806   9.917  0.00  0.00    +0.000 HD
ENDBRANCH  23  25
ENDBRANCH   9  21
TORSDOF 3
ENDMDL
MODEL 3
REMARK VINA RESULT:      -8.1      4.286      8.114
REMARK  Name = 
REMARK  4 active torsions:
REMARK  status: ('A' for Active; 'I' for Inactive)
REMARK    1  A    between atoms: C_1  and  C_2
REMARK    2  A    between atoms: C_5  and  C_6
REMARK    3  A    between atoms: C_14  and  C_15
REMARK    4  A    between atoms: N_17  and  O_18
REMARK                            x       y       z     vdW  Elec       q    Type
REMARK                         _______ _______ _______ _____ _____    ______ ____
ROOT
ATOM      1  C   UNL     1       5.507   4.696  17.712  0.00  0.00    +0.000 A 
ATOM      2  N   UNL     1       6.066   4.189  18.793  0.00  0.00    +0.000 NA
ATOM      3  N   UNL     1       5.286   4.592  19.862  0.00  0.00    +0.000 NA
ATOM      4  C   UNL     1       4.323   5.340  19.365  0.00  0.00    +0.000 A 
ATOM      5  N   UNL     1       3.328   5.960  20.011  0.00  0.00    +0.000 N 
ATOM      6  C   UNL     1       2.633   7.072  19.559  0.00  0.00    +0.000 A 
ATOM      7  N   UNL     1       2.851   7.573  18.331  0.00  0.00    +0.000 NA
ATOM      8  C   UNL     1       2.180   8.682  17.967  0.00  0.00    +0.000 A 
ATOM      9  C   UNL     1       1.293   9.329  18.788  0.00  0.00    +0.000 A 
ATOM     10  C   UNL     1       1.108   8.741  20.018  0.00  0.00    +0.000 A 
ATOM     11  N   UNL     1       1.774   7.633  20.427  0.00  0.00    +0.000 NA
ATOM     12  O   UNL     1       4.389   5.423  18.000  0.00  0.00    +0.000 OA
ATOM     13  H   UNL     1       3.239   5.853  21.009  0.00  0.00    +0.000 HD
ENDROOT
BRANCH   1  18
ATOM     14  C   UNL     1       6.998   4.250  12.141  0.00  0.00    +0.000 C 
ATOM     15  C   UNL     1       6.615   4.369  13.586  0.00  0.00    +0.000 A 
ATOM     16  C   UNL     1       5.414   3.826  14.055  0.00  0.00    +0.000 A 
ATOM     17  C   UNL     1       5.065   3.941  15.404  0.00  0.00    +0.000 A 
ATOM     18  C   UNL     1       5.903   4.599  16.312  0.00  0.00    +0.000 A 
ATOM     19  C   UNL     1       7.107   5.141  15.838  0.00  0.00    +0.000 A 
ATOM     20  C   UNL     1       7.459   5.027  14.488  0.00  0.00    +0.000 A 
ENDBRANCH   1  18
BRANCH   9  21
ATOM     21  C   UNL     1       0.555  10.533  18.397  0.00  0.00    +0.000 C 
ATOM     22  O   UNL     1       1.024  11.649  18.604  0.00  0.00    +0.000 OA
ATOM     23  N   UNL     1      -0.658  10.352  17.771  0.00  0.00    +0.000 N 
ATOM     24  H   UNL     1      -0.980   9.485  17.353  0.00  0.00    +0.000 HD
BRANCH  23  25
ATOM     25  O   UNL     1      -1.298  11.529  17.323  0.00  0.00    +0.000 OA
ATOM     26  H   UNL     1      -0.553  12.044  16.941  0.00  0.00    +0.000 HD
ENDBRANCH  23  25
ENDBRANCH   9  21
TORSDOF 3
ENDMDL
MODEL 4
REMARK VINA RESULT:      -8.1      4.303      8.115
REMARK  Name = 
REMARK  4 active torsions:
REMARK  status: ('A' for Active; 'I' for Inactive)
REMARK    1  A    between atoms: C_1  and  C_2
REMARK    2  A    between atoms: C_5  and  C_6
REMARK    3  A    between atoms: C_14  and  C_15
REMARK    4  A    between atoms: N_17  and  O_18
REMARK                            x       y       z     vdW  Elec       q    Type
REMARK                         _______ _______ _______ _____ _____    ______ ____
ROOT
ATOM      1  C   UNL     1       5.447   4.664  17.707  0.00  0.00    +0.000 A 
ATOM      2  N   UNL     1       6.014   4.168  18.789  0.00  0.00    +0.000 NA
ATOM      3  N   UNL     1       5.248   4.590  19.860  0.00  0.00    +0.000 NA
ATOM      4  C   UNL     1       4.285   5.338  19.363  0.00  0.00    +0.000 A 
ATOM      5  N   UNL     1       3.301   5.973  20.011  0.00  0.00    +0.000 N 
ATOM      6  C   UNL     1       2.609   7.084  19.552  0.00  0.00    +0.000 A 
ATOM      7  N   UNL     1       2.817   7.566  18.316  0.00  0.00    +0.000 NA
ATOM      8  C   UNL     1       2.150   8.676  17.944  0.00  0.00    +0.000 A 
ATOM      9  C   UNL     1       1.276   9.339  18.765  0.00  0.00    +0.000 A 
ATOM     10  C   UNL     1       1.100   8.769  20.005  0.00  0.00    +0.000 A 
ATOM     11  N   UNL     1       1.763   7.662  20.421  0.00  0.00    +0.000 NA
ATOM     12  O   UNL     1       4.337   5.402  17.997  0.00  0.00    +0.000 OA
ATOM     13  H   UNL     1       3.222   5.880  21.012  0.00  0.00    +0.000 HD
ENDROOT
BRANCH   1  18
ATOM     14  C   UNL     1       7.037   4.249  12.161  0.00  0.00    +0.000 C 
ATOM     15  C   UNL     1       6.621   4.354  13.598  0.00  0.00    +0.000 A 
ATOM     16  C   UNL     1       7.479   4.910  14.552  0.00  0.00    +0.000 A 
ATOM     17  C   UNL     1       7.084   5.004  15.889  0.00  0.00    +0.000 A 
ATOM     18  C   UNL     1       5.827   4.546  16.304  0.00  0.00    +0.000 A 
ATOM     19  C   UNL     1       4.969   3.989  15.344  0.00  0.00    +0.000 A 
ATOM     20  C   UNL     1       5.363   3.894  14.003  0.00  0.00    +0.000 A 
ENDBRANCH   1  18
BRANCH   9  21
ATOM     21  C   UNL     1       0.542  10.543  18.366  0.00  0.00    +0.000 C 
ATOM     22  O   UNL     1       1.012  11.659  18.571  0.00  0.00    +0.000 OA
ATOM     23  N   UNL     1      -0.668  10.361  17.735  0.00  0.00    +0.000 N 
ATOM     24  H   UNL     1      -0.989   9.494  17.318  0.00  0.00    +0.000 HD
BRANCH  23  25
ATOM     25  O   UNL     1      -1.304  11.538  17.279  0.00  0.00    +0.000 OA
ATOM     26  H   UNL     1      -0.548  12.151  17.145  0.00  0.00    +0.000 HD
ENDBRANCH  23  25
ENDBRANCH   9  21
TORSDOF 3
ENDMDL
MODEL 5
REMARK VINA RESULT:      -7.6      0.916      1.091
REMARK  Name = 
REMARK  4 active torsions:
REMARK  status: ('A' for Active; 'I' for Inactive)
REMARK    1  A    between atoms: C_1  and  C_2
REMARK    2  A    between atoms: C_5  and  C_6
REMARK    3  A    between atoms: C_14  and  C_15
REMARK    4  A    between atoms: N_17  and  O_18
REMARK                            x       y       z     vdW  Elec       q    Type
REMARK                         _______ _______ _______ _____ _____    ______ ____
ROOT
ATOM      1  C   UNL     1       5.816   4.849  18.976  0.00  0.00    +0.000 A 
ATOM      2  N   UNL     1       6.985   5.228  19.454  0.00  0.00    +0.000 NA
ATOM      3  N   UNL     1       7.757   5.582  18.362  0.00  0.00    +0.000 NA
ATOM      4  C   UNL     1       7.019   5.368  17.293  0.00  0.00    +0.000 A 
ATOM      5  N   UNL     1       7.335   5.558  16.007  0.00  0.00    +0.000 N 
ATOM      6  C   UNL     1       6.753   4.918  14.923  0.00  0.00    +0.000 A 
ATOM      7  N   UNL     1       5.704   4.094  15.087  0.00  0.00    +0.000 NA
ATOM      8  C   UNL     1       5.211   3.465  14.002  0.00  0.00    +0.000 A 
ATOM      9  C   UNL     1       5.731   3.618  12.743  0.00  0.00    +0.000 A 
ATOM     10  C   UNL     1       6.787   4.496  12.655  0.00  0.00    +0.000 A 
ATOM     11  N   UNL     1       7.320   5.137  13.724  0.00  0.00    +0.000 NA
ATOM     12  O   UNL     1       5.762   4.930  17.615  0.00  0.00    +0.000 OA
ATOM     13  H   UNL     1       8.238   5.938  15.766  0.00  0.00    +0.000 HD
ENDROOT
BRANCH   1  18
ATOM     14  C   UNL     1       1.124   2.860  21.711  0.00  0.00    +0.000 C 
ATOM     15  C   UNL     1       2.339   3.380  21.003  0.00  0.00    +0.000 A 
ATOM     16  C   UNL     1       3.400   2.527  20.683  0.00  0.00    +0.000 A 
ATOM     17  C   UNL     1       4.529   3.020  20.023  0.00  0.00    +0.000 A 
ATOM     18  C   UNL     1       4.625   4.372  19.668  0.00  0.00    +0.000 A 
ATOM     19  C   UNL     1       3.557   5.223  19.990  0.00  0.00    +0.000 A 
ATOM     20  C   UNL     1       2.425   4.732  20.651  0.00  0.00    +0.000 A 
ENDBRANCH   1  18
BRANCH   9  21
ATOM     21  C   UNL     1       5.197   2.942  11.557  0.00  0.00    +0.000 C 
ATOM     22  O   UNL     1       5.748   1.942  11.106  0.00  0.00    +0.000 OA
ATOM     23  N   UNL     1       4.049   3.461  11.001  0.00  0.00    +0.000 N 
ATOM     24  H   UNL     1       3.417   4.111  11.456  0.00  0.00    +0.000 HD
BRANCH  23  25
ATOM     25  O   UNL     1       3.509   2.730   9.919  0.00  0.00    +0.000 OA
ATOM     26  H   UNL     1       3.461   1.818  10.280  0.00  0.00    +0.000 HD
ENDBRANCH  23  25
ENDBRANCH   9  21
TORSDOF 3
ENDMDL
MODEL 6
REMARK VINA RESULT:      -7.6      3.852      5.115
REMARK  Name = 
REMARK  4 active torsions:
REMARK  status: ('A' for Active; 'I' for Inactive)
REMARK    1  A    between atoms: C_1  and  C_2
REMARK    2  A    between atoms: C_5  and  C_6
REMARK    3  A    between atoms: C_14  and  C_15
REMARK    4  A    between atoms: N_17  and  O_18
REMARK                            x       y       z     vdW  Elec       q    Type
REMARK                         _______ _______ _______ _____ _____    ______ ____
ROOT
ATOM      1  C   UNL     1       2.177   6.987  19.828  0.00  0.00    +0.000 A 
ATOM      2  N   UNL     1       1.750   6.081  20.685  0.00  0.00    +0.000 NA
ATOM      3  N   UNL     1       2.613   5.005  20.577  0.00  0.00    +0.000 NA
ATOM      4  C   UNL     1       3.487   5.314  19.642  0.00  0.00    +0.000 A 
ATOM      5  N   UNL     1       4.512   4.587  19.182  0.00  0.00    +0.000 N 
ATOM      6  C   UNL     1       5.107   4.718  17.936  0.00  0.00    +0.000 A 
ATOM      7  N   UNL     1       4.747   5.704  17.097  0.00  0.00    +0.000 NA
ATOM      8  C   UNL     1       5.328   5.752  15.883  0.00  0.00    +0.000 A 
ATOM      9  C   UNL     1       6.261   4.841  15.458  0.00  0.00    +0.000 A 
ATOM     10  C   UNL     1       6.592   3.878  16.383  0.00  0.00    +0.000 A 
ATOM     11  N   UNL     1       6.021   3.789  17.609  0.00  0.00    +0.000 NA
ATOM     12  O   UNL     1       3.284   6.574  19.146  0.00  0.00    +0.000 OA
ATOM     13  H   UNL     1       4.703   3.684  19.586  0.00  0.00    +0.000 HD
ENDROOT
BRANCH   1  18
ATOM     14  C   UNL     1       0.039  12.237  18.676  0.00  0.00    +0.000 C 
ATOM     15  C   UNL     1       0.596  10.876  18.971  0.00  0.00    +0.000 A 
ATOM     16  C   UNL     1       0.417  10.286  20.226  0.00  0.00    +0.000 A 
ATOM     17  C   UNL     1       0.939   9.017  20.493  0.00  0.00    +0.000 A 
ATOM     18  C   UNL     1       1.650   8.310  19.515  0.00  0.00    +0.000 A 
ATOM     19  C   UNL     1       1.827   8.905  18.257  0.00  0.00    +0.000 A 
ATOM     20  C   UNL     1       1.305  10.176  17.987  0.00  0.00    +0.000 A 
ENDBRANCH   1  18
BRANCH   9  21
ATOM     21  C   UNL     1       6.901   4.890  14.141  0.00  0.00    +0.000 C 
ATOM     22  O   UNL     1       7.867   5.622  13.941  0.00  0.00    +0.000 OA
ATOM     23  N   UNL     1       6.390   4.066  13.163  0.00  0.00    +0.000 N 
ATOM     24  H   UNL     1       5.776   3.274  13.323  0.00  0.00    +0.000 HD
BRANCH  23  25
ATOM     25  O   UNL     1       7.089   4.067  11.935  0.00  0.00    +0.000 OA
ATOM     26  H   UNL     1       7.596   3.227  11.977  0.00  0.00    +0.000 HD
ENDBRANCH  23  25
ENDBRANCH   9  21
TORSDOF 3
ENDMDL
MODEL 7
REMARK VINA RESULT:      -7.6      4.066      5.429
REMARK  Name = 
REMARK  4 active torsions:
REMARK  status: ('A' for Active; 'I' for Inactive)
REMARK    1  A    between atoms: C_1  and  C_2
REMARK    2  A    between atoms: C_5  and  C_6
REMARK    3  A    between atoms: C_14  and  C_15
REMARK    4  A    between atoms: N_17  and  O_18
REMARK                            x       y       z     vdW  Elec       q    Type
REMARK                         _______ _______ _______ _____ _____    ______ ____
ROOT
ATOM      1  C   UNL     1       1.924   7.209  20.038  0.00  0.00    +0.000 A 
ATOM      2  N   UNL     1       1.403   6.336  20.877  0.00  0.00    +0.000 NA
ATOM      3  N   UNL     1       2.166   5.187  20.769  0.00  0.00    +0.000 NA
ATOM      4  C   UNL     1       3.081   5.427  19.852  0.00  0.00    +0.000 A 
ATOM      5  N   UNL     1       4.043   4.615  19.399  0.00  0.00    +0.000 N 
ATOM      6  C   UNL     1       4.669   4.705  18.165  0.00  0.00    +0.000 A 
ATOM      7  N   UNL     1       4.414   5.728  17.333  0.00  0.00    +0.000 NA
ATOM      8  C   UNL     1       5.018   5.736  16.128  0.00  0.00    +0.000 A 
ATOM      9  C   UNL     1       5.872   4.750  15.708  0.00  0.00    +0.000 A 
ATOM     10  C   UNL     1       6.099   3.751  16.626  0.00  0.00    +0.000 A 
ATOM     11  N   UNL     1       5.501   3.700  17.841  0.00  0.00    +0.000 NA
ATOM     12  O   UNL     1       3.001   6.705  19.368  0.00  0.00    +0.000 OA
ATOM     13  H   UNL     1       4.146   3.693  19.795  0.00  0.00    +0.000 HD
ENDROOT
BRANCH   1  18
ATOM     14  C   UNL     1       0.389  12.632  18.740  0.00  0.00    +0.000 C 
ATOM     15  C   UNL     1       0.784  11.227  19.080  0.00  0.00    +0.000 A 
ATOM     16  C   UNL     1       1.407  10.409  18.132  0.00  0.00    +0.000 A 
ATOM     17  C   UNL     1       1.773   9.100  18.457  0.00  0.00    +0.000 A 
ATOM     18  C   UNL     1       1.525   8.578  19.733  0.00  0.00    +0.000 A 
ATOM     19  C   UNL     1       0.901   9.401  20.682  0.00  0.00    +0.000 A 
ATOM     20  C   UNL     1       0.534  10.713  20.358  0.00  0.00    +0.000 A 
ENDBRANCH   1  18
BRANCH   9  21
ATOM     21  C   UNL     1       6.536   4.754  14.401  0.00  0.00    +0.000 C 
ATOM     22  O   UNL     1       6.101   4.075  13.476  0.00  0.00    +0.000 OA
ATOM     23  N   UNL     1       7.639   5.567  14.260  0.00  0.00    +0.000 N 
ATOM     24  H   UNL     1       7.895   6.324  14.885  0.00  0.00    +0.000 HD
BRANCH  23  25
ATOM     25  O   UNL     1       8.197   5.620  12.963  0.00  0.00    +0.000 OA
ATOM     26  H   UNL     1       8.984   5.037  13.046  0.00  0.00    +0.000 HD
ENDBRANCH  23  25
ENDBRANCH   9  21
TORSDOF 3
ENDMDL
MODEL 8
REMARK VINA RESULT:      -7.6      0.856      1.438
REMARK  Name = 
REMARK  4 active torsions:
REMARK  status: ('A' for Active; 'I' for Inactive)
REMARK    1  A    between atoms: C_1  and  C_2
REMARK    2  A    between atoms: C_5  and  C_6
REMARK    3  A    between atoms: C_14  and  C_15
REMARK    4  A    between atoms: N_17  and  O_18
REMARK                            x       y       z     vdW  Elec       q    Type
REMARK                         _______ _______ _______ _____ _____    ______ ____
ROOT
ATOM      1  C   UNL     1       5.792   4.847  19.107  0.00  0.00    +0.000 A 
ATOM      2  N   UNL     1       6.938   5.271  19.602  0.00  0.00    +0.000 NA
ATOM      3  N   UNL     1       7.706   5.666  18.523  0.00  0.00    +0.000 NA
ATOM      4  C   UNL     1       6.991   5.430  17.443  0.00  0.00    +0.000 A 
ATOM      5  N   UNL     1       7.315   5.644  16.162  0.00  0.00    +0.000 N 
ATOM      6  C   UNL     1       6.774   4.988  15.066  0.00  0.00    +0.000 A 
ATOM      7  N   UNL     1       5.759   4.119  15.211  0.00  0.00    +0.000 NA
ATOM      8  C   UNL     1       5.307   3.479  14.116  0.00  0.00    +0.000 A 
ATOM      9  C   UNL     1       5.835   3.664  12.864  0.00  0.00    +0.000 A 
ATOM     10  C   UNL     1       6.853   4.586  12.796  0.00  0.00    +0.000 A 
ATOM     11  N   UNL     1       7.345   5.241  13.876  0.00  0.00    +0.000 NA
ATOM     12  O   UNL     1       5.751   4.936  17.746  0.00  0.00    +0.000 OA
ATOM     13  H   UNL     1       8.203   6.064  15.935  0.00  0.00    +0.000 HD
ENDROOT
BRANCH   1  18
ATOM     14  C   UNL     1       1.082   2.823  21.787  0.00  0.00    +0.000 C 
ATOM     15  C   UNL     1       2.304   3.343  21.091  0.00  0.00    +0.000 A 
ATOM     16  C   UNL     1       2.396   4.687  20.716  0.00  0.00    +0.000 A 
ATOM     17  C   UNL     1       3.539   5.164  20.068  0.00  0.00    +0.000 A 
ATOM     18  C   UNL     1       4.613   4.313  19.780  0.00  0.00    +0.000 A 
ATOM     19  C   UNL     1       4.518   2.965  20.160  0.00  0.00    +0.000 A 
ATOM     20  C   UNL     1       3.374   2.485  20.809  0.00  0.00    +0.000 A 
ENDBRANCH   1  18
BRANCH   9  21
ATOM     21  C   UNL     1       5.345   2.975  11.667  0.00  0.00    +0.000 C 
ATOM     22  O   UNL     1       5.968   2.031  11.189  0.00  0.00    +0.000 OA
ATOM     23  N   UNL     1       4.155   3.415  11.131  0.00  0.00    +0.000 N 
ATOM     24  H   UNL     1       3.479   4.004  11.605  0.00  0.00    +0.000 HD
BRANCH  23  25
ATOM     25  O   UNL     1       3.664   2.669  10.036  0.00  0.00    +0.000 OA
ATOM     26  H   UNL     1       2.700   2.632  10.218  0.00  0.00    +0.000 HD
ENDBRANCH  23  25
ENDBRANCH   9  21
TORSDOF 3
ENDMDL
MODEL 9
REMARK VINA RESULT:      -7.5      5.573      7.702
REMARK  Name = 
REMARK  4 active torsions:
REMARK  status: ('A' for Active; 'I' for Inactive)
REMARK    1  A    between atoms: C_1  and  C_2
REMARK    2  A    between atoms: C_5  and  C_6
REMARK    3  A    between atoms: C_14  and  C_15
REMARK    4  A    between atoms: N_17  and  O_18
REMARK                            x       y       z     vdW  Elec       q    Type
REMARK                         _______ _______ _______ _____ _____    ______ ____
ROOT
ATOM      1  C   UNL     1       1.083  10.445  19.258  0.00  0.00    +0.000 A 
ATOM      2  N   UNL     1       1.663  11.265  18.404  0.00  0.00    +0.000 NA
ATOM      3  N   UNL     1       2.402  10.473  17.544  0.00  0.00    +0.000 NA
ATOM      4  C   UNL     1       2.247   9.229  17.948  0.00  0.00    +0.000 A 
ATOM      5  N   UNL     1       2.772   8.112  17.433  0.00  0.00    +0.000 N 
ATOM      6  C   UNL     1       2.974   6.920  18.113  0.00  0.00    +0.000 A 
ATOM      7  N   UNL     1       2.541   6.761  19.375  0.00  0.00    +0.000 NA
ATOM      8  C   UNL     1       2.808   5.597  19.999  0.00  0.00    +0.000 A 
ATOM      9  C   UNL     1       3.506   4.572  19.414  0.00  0.00    +0.000 A 
ATOM     10  C   UNL     1       3.894   4.804  18.114  0.00  0.00    +0.000 A 
ATOM     11  N   UNL     1       3.656   5.965  17.457  0.00  0.00    +0.000 NA
ATOM     12  O   UNL     1       1.396   9.139  19.016  0.00  0.00    +0.000 OA
ATOM     13  H   UNL     1       3.351   8.166  16.609  0.00  0.00    +0.000 HD
ENDROOT
BRANCH   1  18
ATOM     14  C   UNL     1      -2.466  11.642  23.665  0.00  0.00    +0.000 C 
ATOM     15  C   UNL     1      -1.545  11.328  22.525  0.00  0.00    +0.000 A 
ATOM     16  C   UNL     1      -1.572  12.090  21.353  0.00  0.00    +0.000 A 
ATOM     17  C   UNL     1      -0.709  11.790  20.294  0.00  0.00    +0.000 A 
ATOM     18  C   UNL     1       0.196  10.725  20.381  0.00  0.00    +0.000 A 
ATOM     19  C   UNL     1       0.220   9.964  21.559  0.00  0.00    +0.000 A 
ATOM     20  C   UNL     1      -0.642  10.262  22.621  0.00  0.00    +0.000 A 
ENDBRANCH   1  18
BRANCH   9  21
ATOM     21  C   UNL     1       3.796   3.302  20.084  0.00  0.00    +0.000 C 
ATOM     22  O   UNL     1       3.006   2.829  20.896  0.00  0.00    +0.000 OA
ATOM     23  N   UNL     1       4.966   2.663  19.741  0.00  0.00    +0.000 N 
ATOM     24  H   UNL     1       5.525   2.861  18.918  0.00  0.00    +0.000 HD
BRANCH  23  25
ATOM     25  O   UNL     1       5.168   1.396  20.334  0.00  0.00    +0.000 OA
ATOM     26  H   UNL     1       5.477   1.630  21.237  0.00  0.00    +0.000 HD
ENDBRANCH  23  25
ENDBRANCH   9  21
TORSDOF 3
ENDMDL
