MODEL 1
REMARK VINA RESULT:      -7.8      0.000      0.000
REMARK  Name = 
REMARK  2 active torsions:
REMARK  status: ('A' for Active; 'I' for Inactive)
REMARK    1  A    between atoms: N_3  and  C_4
REMARK    2  A    between atoms: N_10  and  C_11
REMARK                            x       y       z     vdW  Elec       q    Type
REMARK                         _______ _______ _______ _____ _____    ______ ____
ROOT
ATOM      1  C   UNL     1       0.363  10.411  19.198  0.00  0.00    +0.000 C 
ATOM      2  C   UNL     1       1.176  11.679  19.566  0.00  0.00    +0.000 C 
ATOM      3  C   UNL     1       0.530  13.009  19.185  0.00  0.00    +0.000 C 
ATOM      4  C   UNL     1      -0.676  13.322  20.074  0.00  0.00    +0.000 C 
ATOM      5  O   UNL     1      -1.519  12.201  20.369  0.00  0.00    +0.000 OA
ATOM      6  C   UNL     1      -1.925  11.544  19.231  0.00  0.00    +0.000 A 
ATOM      7  C   UNL     1      -1.018  10.672  18.593  0.00  0.00    +0.000 A 
ATOM      8  C   UNL     1      -1.456  10.014  17.438  0.00  0.00    +0.000 A 
ATOM      9  C   UNL     1      -2.747  10.196  16.947  0.00  0.00    +0.000 A 
ATOM     10  C   UNL     1      -3.664  11.013  17.614  0.00  0.00    +0.000 A 
ATOM     11  C   UNL     1      -4.979  11.135  17.135  0.00  0.00    +0.000 A 
ATOM     12  C   UNL     1      -5.911  11.919  17.807  0.00  0.00    +0.000 A 
ATOM     13  C   UNL     1      -5.539  12.599  18.963  0.00  0.00    +0.000 A 
ATOM     14  C   UNL     1      -4.229  12.495  19.442  0.00  0.00    +0.000 A 
ATOM     15  C   UNL     1      -3.263  11.702  18.781  0.00  0.00    +0.000 A 
ENDROOT
BRANCH   1  19
ATOM     16  O   UNL     1       1.897   8.081  19.924  0.00  0.00    +0.000 OA
ATOM     17  C   UNL     1       1.898   8.486  18.772  0.00  0.00    +0.000 C 
ATOM     18  N   UNL     1       2.637   7.915  17.766  0.00  0.00    +0.000 N 
ATOM     19  N   UNL     1       1.201   9.578  18.326  0.00  0.00    +0.000 N 
ATOM     20  H   UNL     1       2.572   8.301  16.839  0.00  0.00    +0.000 HD
ATOM     21  H   UNL     1       1.100   9.711  17.336  0.00  0.00    +0.000 HD
BRANCH  18  22
ATOM     22  C   UNL     1       3.463   6.728  17.976  0.00  0.00    +0.000 C 
ATOM     23  C   UNL     1       4.602   6.689  16.950  0.00  0.00    +0.000 C 
ATOM     24  C   UNL     1       5.388   5.385  17.046  0.00  0.00    +0.000 C 
ATOM     25  C   UNL     1       4.450   4.187  16.987  0.00  0.00    +0.000 C 
ATOM     26  O   UNL     1       3.472   4.266  18.020  0.00  0.00    +0.000 OA
ATOM     27  C   UNL     1       2.642   5.428  17.904  0.00  0.00    +0.000 C 
ENDBRANCH  18  22
ENDBRANCH   1  19
TORSDOF 2
ENDMDL
MODEL 2
REMARK VINA RESULT:      -7.8      3.583      8.985
REMARK  Name = 
REMARK  2 active torsions:
REMARK  status: ('A' for Active; 'I' for Inactive)
REMARK    1  A    between atoms: N_3  and  C_4
REMARK    2  A    between atoms: N_10  and  C_11
REMARK                            x       y       z     vdW  Elec       q    Type
REMARK                         _______ _______ _______ _____ _____    ______ ____
ROOT
ATOM      1  C   UNL     1       1.862   6.015  20.542  0.00  0.00    +0.000 C 
ATOM      2  C   UNL     1       1.072   4.691  20.718  0.00  0.00    +0.000 C 
ATOM      3  C   UNL     1       1.162   3.712  19.550  0.00  0.00    +0.000 C 
ATOM      4  C   UNL     1       2.547   3.068  19.462  0.00  0.00    +0.000 C 
ATOM      5  O   UNL     1       3.646   3.957  19.707  0.00  0.00    +0.000 OA
ATOM      6  C   UNL     1       3.592   5.079  18.914  0.00  0.00    +0.000 A 
ATOM      7  C   UNL     1       2.699   6.113  19.266  0.00  0.00    +0.000 A 
ATOM      8  C   UNL     1       2.664   7.245  18.444  0.00  0.00    +0.000 A 
ATOM      9  C   UNL     1       3.496   7.358  17.332  0.00  0.00    +0.000 A 
ATOM     10  C   UNL     1       4.423   6.359  17.020  0.00  0.00    +0.000 A 
ATOM     11  C   UNL     1       5.293   6.520  15.929  0.00  0.00    +0.000 A 
ATOM     12  C   UNL     1       6.241   5.550  15.626  0.00  0.00    +0.000 A 
ATOM     13  C   UNL     1       6.328   4.399  16.405  0.00  0.00    +0.000 A 
ATOM     14  C   UNL     1       5.458   4.222  17.486  0.00  0.00    +0.000 A 
ATOM     15  C   UNL     1       4.487   5.195  17.819  0.00  0.00    +0.000 A 
ENDROOT
BRANCH   1  19
ATOM     16  O   UNL     1       2.244   8.526  21.906  0.00  0.00    +0.000 OA
ATOM     17  C   UNL     1       1.187   8.284  21.344  0.00  0.00    +0.000 C 
ATOM     18  N   UNL     1       0.110   9.135  21.349  0.00  0.00    +0.000 N 
ATOM     19  N   UNL     1       0.909   7.125  20.667  0.00  0.00    +0.000 N 
ATOM     20  H   UNL     1      -0.721   8.866  20.849  0.00  0.00    +0.000 HD
ATOM     21  H   UNL     1       0.101   7.100  20.071  0.00  0.00    +0.000 HD
BRANCH  18  22
ATOM     22  C   UNL     1       0.149  10.445  21.994  0.00  0.00    +0.000 C 
ATOM     23  C   UNL     1      -1.244  10.820  22.512  0.00  0.00    +0.000 C 
ATOM     24  C   UNL     1      -1.268  12.247  23.054  0.00  0.00    +0.000 C 
ATOM     25  C   UNL     1      -0.697  13.219  22.031  0.00  0.00    +0.000 C 
ATOM     26  O   UNL     1       0.626  12.838  21.663  0.00  0.00    +0.000 OA
ATOM     27  C   UNL     1       0.676  11.543  21.053  0.00  0.00    +0.000 C 
ENDBRANCH  18  22
ENDBRANCH   1  19
TORSDOF 2
ENDMDL
MODEL 3
REMARK VINA RESULT:      -7.6      8.137      9.720
REMARK  Name = 
REMARK  2 active torsions:
REMARK  status: ('A' for Active; 'I' for Inactive)
REMARK    1  A    between atoms: N_3  and  C_4
REMARK    2  A    between atoms: N_10  and  C_11
REMARK                            x       y       z     vdW  Elec       q    Type
REMARK                         _______ _______ _______ _____ _____    ______ ____
ROOT
ATOM      1  C   UNL     1       6.600   6.511  17.003  0.00  0.00    +0.000 C 
ATOM      2  C   UNL     1       7.354   5.916  15.786  0.00  0.00    +0.000 C 
ATOM      3  C   UNL     1       7.220   4.406  15.602  0.00  0.00    +0.000 C 
ATOM      4  C   UNL     1       5.816   4.020  15.132  0.00  0.00    +0.000 C 
ATOM      5  O   UNL     1       4.747   4.740  15.760  0.00  0.00    +0.000 OA
ATOM      6  C   UNL     1       4.820   4.684  17.132  0.00  0.00    +0.000 A 
ATOM      7  C   UNL     1       5.746   5.517  17.794  0.00  0.00    +0.000 A 
ATOM      8  C   UNL     1       5.801   5.443  19.190  0.00  0.00    +0.000 A 
ATOM      9  C   UNL     1       4.956   4.595  19.904  0.00  0.00    +0.000 A 
ATOM     10  C   UNL     1       3.997   3.815  19.250  0.00  0.00    +0.000 A 
ATOM     11  C   UNL     1       3.116   3.013  19.993  0.00  0.00    +0.000 A 
ATOM     12  C   UNL     1       2.136   2.257  19.358  0.00  0.00    +0.000 A 
ATOM     13  C   UNL     1       2.029   2.286  17.971  0.00  0.00    +0.000 A 
ATOM     14  C   UNL     1       2.910   3.072  17.220  0.00  0.00    +0.000 A 
ATOM     15  C   UNL     1       3.912   3.853  17.840  0.00  0.00    +0.000 A 
ENDROOT
BRANCH   1  19
ATOM     16  O   UNL     1       7.079   9.345  17.224  0.00  0.00    +0.000 OA
ATOM     17  C   UNL     1       7.739   8.554  17.883  0.00  0.00    +0.000 C 
ATOM     18  N   UNL     1       8.758   8.928  18.722  0.00  0.00    +0.000 N 
ATOM     19  N   UNL     1       7.585   7.193  17.852  0.00  0.00    +0.000 N 
ATOM     20  H   UNL     1       9.244   8.214  19.239  0.00  0.00    +0.000 HD
ATOM     21  H   UNL     1       8.024   6.644  18.569  0.00  0.00    +0.000 HD
BRANCH  18  22
ATOM     22  C   UNL     1       9.120  10.326  18.942  0.00  0.00    +0.000 C 
ATOM     23  C   UNL     1      10.254  10.734  17.994  0.00  0.00    +0.000 C 
ATOM     24  C   UNL     1      10.757  12.141  18.305  0.00  0.00    +0.000 C 
ATOM     25  C   UNL     1      11.099  12.273  19.783  0.00  0.00    +0.000 C 
ATOM     26  O   UNL     1       9.969  11.948  20.589  0.00  0.00    +0.000 OA
ATOM     27  C   UNL     1       9.529  10.598  20.401  0.00  0.00    +0.000 C 
ENDBRANCH  18  22
ENDBRANCH   1  19
TORSDOF 2
ENDMDL
MODEL 4
REMARK VINA RESULT:      -7.4      2.084      3.400
REMARK  Name = 
REMARK  2 active torsions:
REMARK  status: ('A' for Active; 'I' for Inactive)
REMARK    1  A    between atoms: N_3  and  C_4
REMARK    2  A    between atoms: N_10  and  C_11
REMARK                            x       y       z     vdW  Elec       q    Type
REMARK                         _______ _______ _______ _____ _____    ______ ____
ROOT
ATOM      1  C   UNL     1       0.600  10.165  19.113  0.00  0.00    +0.000 C 
ATOM      2  C   UNL     1      -0.179   9.941  17.790  0.00  0.00    +0.000 C 
ATOM      3  C   UNL     1      -1.674  10.243  17.848  0.00  0.00    +0.000 C 
ATOM      4  C   UNL     1      -1.940  11.748  17.944  0.00  0.00    +0.000 C 
ATOM      5  O   UNL     1      -1.054  12.466  18.813  0.00  0.00    +0.000 OA
ATOM      6  C   UNL     1      -0.998  11.912  20.070  0.00  0.00    +0.000 A 
ATOM      7  C   UNL     1      -0.220  10.751  20.264  0.00  0.00    +0.000 A 
ATOM      8  C   UNL     1      -0.178  10.207  21.553  0.00  0.00    +0.000 A 
ATOM      9  C   UNL     1      -0.861  10.803  22.612  0.00  0.00    +0.000 A 
ATOM     10  C   UNL     1      -1.583  11.986  22.431  0.00  0.00    +0.000 A 
ATOM     11  C   UNL     1      -2.214  12.601  23.524  0.00  0.00    +0.000 A 
ATOM     12  C   UNL     1      -2.908  13.796  23.365  0.00  0.00    +0.000 A 
ATOM     13  C   UNL     1      -2.987  14.389  22.108  0.00  0.00    +0.000 A 
ATOM     14  C   UNL     1      -2.372  13.778  21.009  0.00  0.00    +0.000 A 
ATOM     15  C   UNL     1      -1.657  12.566  21.143  0.00  0.00    +0.000 A 
ENDROOT
BRANCH   1  19
ATOM     16  O   UNL     1       2.360   8.546  17.503  0.00  0.00    +0.000 OA
ATOM     17  C   UNL     1       2.061   8.195  18.635  0.00  0.00    +0.000 C 
ATOM     18  N   UNL     1       2.486   7.020  19.203  0.00  0.00    +0.000 N 
ATOM     19  N   UNL     1       1.239   8.894  19.478  0.00  0.00    +0.000 N 
ATOM     20  H   UNL     1       2.205   6.811  20.147  0.00  0.00    +0.000 HD
ATOM     21  H   UNL     1       1.215   8.636  20.448  0.00  0.00    +0.000 HD
BRANCH  18  22
ATOM     22  C   UNL     1       3.383   6.095  18.516  0.00  0.00    +0.000 C 
ATOM     23  C   UNL     1       2.574   4.991  17.824  0.00  0.00    +0.000 C 
ATOM     24  C   UNL     1       3.489   3.925  17.227  0.00  0.00    +0.000 C 
ATOM     25  C   UNL     1       4.475   3.419  18.272  0.00  0.00    +0.000 C 
ATOM     26  O   UNL     1       5.236   4.499  18.807  0.00  0.00    +0.000 OA
ATOM     27  C   UNL     1       4.419   5.472  19.469  0.00  0.00    +0.000 C 
ENDBRANCH  18  22
ENDBRANCH   1  19
TORSDOF 2
ENDMDL
MODEL 5
REMARK VINA RESULT:      -7.2      2.797      8.413
REMARK  Name = 
REMARK  2 active torsions:
REMARK  status: ('A' for Active; 'I' for Inactive)
REMARK    1  A    between atoms: N_3  and  C_4
REMARK    2  A    between atoms: N_10  and  C_11
REMARK                            x       y       z     vdW  Elec       q    Type
REMARK                         _______ _______ _______ _____ _____    ______ ____
ROOT
ATOM      1  C   UNL     1       2.804   7.724  17.622  0.00  0.00    +0.000 C 
ATOM      2  C   UNL     1       4.184   7.661  16.917  0.00  0.00    +0.000 C 
ATOM      3  C   UNL     1       5.141   6.592  17.437  0.00  0.00    +0.000 C 
ATOM      4  C   UNL     1       4.686   5.187  17.035  0.00  0.00    +0.000 C 
ATOM      5  O   UNL     1       3.274   4.958  17.128  0.00  0.00    +0.000 OA
ATOM      6  C   UNL     1       2.776   5.282  18.368  0.00  0.00    +0.000 A 
ATOM      7  C   UNL     1       2.558   6.641  18.675  0.00  0.00    +0.000 A 
ATOM      8  C   UNL     1       2.050   6.946  19.943  0.00  0.00    +0.000 A 
ATOM      9  C   UNL     1       1.748   5.942  20.862  0.00  0.00    +0.000 A 
ATOM     10  C   UNL     1       1.908   4.593  20.534  0.00  0.00    +0.000 A 
ATOM     11  C   UNL     1       1.542   3.596  21.453  0.00  0.00    +0.000 A 
ATOM     12  C   UNL     1       1.665   2.249  21.129  0.00  0.00    +0.000 A 
ATOM     13  C   UNL     1       2.164   1.880  19.883  0.00  0.00    +0.000 A 
ATOM     14  C   UNL     1       2.544   2.864  18.965  0.00  0.00    +0.000 A 
ATOM     15  C   UNL     1       2.425   4.240  19.267  0.00  0.00    +0.000 A 
ENDROOT
BRANCH   1  19
ATOM     16  O   UNL     1       0.425   9.352  17.628  0.00  0.00    +0.000 OA
ATOM     17  C   UNL     1       1.462   9.773  18.119  0.00  0.00    +0.000 C 
ATOM     18  N   UNL     1       1.594  11.028  18.657  0.00  0.00    +0.000 N 
ATOM     19  N   UNL     1       2.641   9.077  18.169  0.00  0.00    +0.000 N 
ATOM     20  H   UNL     1       2.481  11.293  19.054  0.00  0.00    +0.000 HD
ATOM     21  H   UNL     1       3.374   9.417  18.766  0.00  0.00    +0.000 HD
BRANCH  18  22
ATOM     22  C   UNL     1       0.479  11.969  18.736  0.00  0.00    +0.000 C 
ATOM     23  C   UNL     1       0.988  13.405  18.562  0.00  0.00    +0.000 C 
ATOM     24  C   UNL     1      -0.129  14.420  18.792  0.00  0.00    +0.000 C 
ATOM     25  C   UNL     1      -0.826  14.158  20.120  0.00  0.00    +0.000 C 
ATOM     26  O   UNL     1      -1.332  12.827  20.166  0.00  0.00    +0.000 OA
ATOM     27  C   UNL     1      -0.298  11.841  20.058  0.00  0.00    +0.000 C 
ENDBRANCH  18  22
ENDBRANCH   1  19
TORSDOF 2
ENDMDL
MODEL 6
REMARK VINA RESULT:      -7.2      3.475      9.197
REMARK  Name = 
REMARK  2 active torsions:
REMARK  status: ('A' for Active; 'I' for Inactive)
REMARK    1  A    between atoms: N_3  and  C_4
REMARK    2  A    between atoms: N_10  and  C_11
REMARK                            x       y       z     vdW  Elec       q    Type
REMARK                         _______ _______ _______ _____ _____    ______ ____
ROOT
ATOM      1  C   UNL     1       2.579   6.479  19.665  0.00  0.00    +0.000 C 
ATOM      2  C   UNL     1       1.561   5.352  19.980  0.00  0.00    +0.000 C 
ATOM      3  C   UNL     1       1.433   4.264  18.917  0.00  0.00    +0.000 C 
ATOM      4  C   UNL     1       2.671   3.365  18.883  0.00  0.00    +0.000 C 
ATOM      5  O   UNL     1       3.923   4.049  19.028  0.00  0.00    +0.000 OA
ATOM      6  C   UNL     1       4.059   5.078  18.127  0.00  0.00    +0.000 A 
ATOM      7  C   UNL     1       3.385   6.292  18.378  0.00  0.00    +0.000 A 
ATOM      8  C   UNL     1       3.541   7.324  17.447  0.00  0.00    +0.000 A 
ATOM      9  C   UNL     1       4.349   7.168  16.322  0.00  0.00    +0.000 A 
ATOM     10  C   UNL     1       5.063   5.987  16.105  0.00  0.00    +0.000 A 
ATOM     11  C   UNL     1       5.918   5.873  14.997  0.00  0.00    +0.000 A 
ATOM     12  C   UNL     1       6.660   4.716  14.787  0.00  0.00    +0.000 A 
ATOM     13  C   UNL     1       6.551   3.651  15.677  0.00  0.00    +0.000 A 
ATOM     14  C   UNL     1       5.692   3.749  16.778  0.00  0.00    +0.000 A 
ATOM     15  C   UNL     1       4.930   4.915  17.018  0.00  0.00    +0.000 A 
ENDROOT
BRANCH   1  19
ATOM     16  O   UNL     1       1.961   8.126  21.950  0.00  0.00    +0.000 OA
ATOM     17  C   UNL     1       1.607   8.465  20.831  0.00  0.00    +0.000 C 
ATOM     18  N   UNL     1       0.872   9.596  20.576  0.00  0.00    +0.000 N 
ATOM     19  N   UNL     1       1.855   7.756  19.684  0.00  0.00    +0.000 N 
ATOM     20  H   UNL     1       0.632   9.811  19.622  0.00  0.00    +0.000 HD
ATOM     21  H   UNL     1       1.707   8.208  18.800  0.00  0.00    +0.000 HD
BRANCH  18  22
ATOM     22  C   UNL     1       0.483  10.532  21.627  0.00  0.00    +0.000 C 
ATOM     23  C   UNL     1      -0.852  10.105  22.248  0.00  0.00    +0.000 C 
ATOM     24  C   UNL     1      -1.359  11.146  23.242  0.00  0.00    +0.000 C 
ATOM     25  C   UNL     1      -1.378  12.529  22.606  0.00  0.00    +0.000 C 
ATOM     26  O   UNL     1      -0.083  12.877  22.125  0.00  0.00    +0.000 OA
ATOM     27  C   UNL     1       0.386  11.979  21.111  0.00  0.00    +0.000 C 
ENDBRANCH  18  22
ENDBRANCH   1  19
TORSDOF 2
ENDMDL
MODEL 7
REMARK VINA RESULT:      -7.1      3.163      4.062
REMARK  Name = 
REMARK  2 active torsions:
REMARK  status: ('A' for Active; 'I' for Inactive)
REMARK    1  A    between atoms: N_3  and  C_4
REMARK    2  A    between atoms: N_10  and  C_11
REMARK                            x       y       z     vdW  Elec       q    Type
REMARK                         _______ _______ _______ _____ _____    ______ ____
ROOT
ATOM      1  C   UNL     1       1.817   8.904  19.891  0.00  0.00    +0.000 C 
ATOM      2  C   UNL     1       1.589   9.082  18.368  0.00  0.00    +0.000 C 
ATOM      3  C   UNL     1       0.324   9.842  17.976  0.00  0.00    +0.000 C 
ATOM      4  C   UNL     1       0.441  11.333  18.301  0.00  0.00    +0.000 C 
ATOM      5  O   UNL     1       1.070  11.633  19.554  0.00  0.00    +0.000 OA
ATOM      6  C   UNL     1       0.484  10.963  20.602  0.00  0.00    +0.000 A 
ATOM      7  C   UNL     1       0.795   9.600  20.792  0.00  0.00    +0.000 A 
ATOM      8  C   UNL     1       0.187   8.940  21.866  0.00  0.00    +0.000 A 
ATOM      9  C   UNL     1      -0.677   9.610  22.731  0.00  0.00    +0.000 A 
ATOM     10  C   UNL     1      -0.937  10.975  22.578  0.00  0.00    +0.000 A 
ATOM     11  C   UNL     1      -1.762  11.643  23.496  0.00  0.00    +0.000 A 
ATOM     12  C   UNL     1      -2.004  13.007  23.374  0.00  0.00    +0.000 A 
ATOM     13  C   UNL     1      -1.428  13.722  22.327  0.00  0.00    +0.000 A 
ATOM     14  C   UNL     1      -0.613  13.064  21.399  0.00  0.00    +0.000 A 
ATOM     15  C   UNL     1      -0.349  11.679  21.502  0.00  0.00    +0.000 A 
ENDROOT
BRANCH   1  19
ATOM     16  O   UNL     1       3.370   6.931  18.474  0.00  0.00    +0.000 OA
ATOM     17  C   UNL     1       2.678   6.604  19.427  0.00  0.00    +0.000 C 
ATOM     18  N   UNL     1       2.548   5.310  19.863  0.00  0.00    +0.000 N 
ATOM     19  N   UNL     1       1.909   7.465  20.166  0.00  0.00    +0.000 N 
ATOM     20  H   UNL     1       1.967   5.126  20.665  0.00  0.00    +0.000 HD
ATOM     21  H   UNL     1       1.541   7.145  21.044  0.00  0.00    +0.000 HD
BRANCH  18  22
ATOM     22  C   UNL     1       3.272   4.198  19.251  0.00  0.00    +0.000 C 
ATOM     23  C   UNL     1       2.463   3.621  18.083  0.00  0.00    +0.000 C 
ATOM     24  C   UNL     1       3.121   2.364  17.522  0.00  0.00    +0.000 C 
ATOM     25  C   UNL     1       3.412   1.368  18.636  0.00  0.00    +0.000 C 
ATOM     26  O   UNL     1       4.230   1.964  19.639  0.00  0.00    +0.000 OA
ATOM     27  C   UNL     1       3.601   3.089  20.265  0.00  0.00    +0.000 C 
ENDBRANCH  18  22
ENDBRANCH   1  19
TORSDOF 2
ENDMDL
MODEL 8
REMARK VINA RESULT:      -7.0      3.315      9.306
REMARK  Name = 
REMARK  2 active torsions:
REMARK  status: ('A' for Active; 'I' for Inactive)
REMARK    1  A    between atoms: N_3  and  C_4
REMARK    2  A    between atoms: N_10  and  C_11
REMARK                            x       y       z     vdW  Elec       q    Type
REMARK                         _______ _______ _______ _____ _____    ______ ____
ROOT
ATOM      1  C   UNL     1       3.224   4.434  19.921  0.00  0.00    +0.000 C 
ATOM      2  C   UNL     1       1.976   3.530  19.750  0.00  0.00    +0.000 C 
ATOM      3  C   UNL     1       1.542   3.270  18.309  0.00  0.00    +0.000 C 
ATOM      4  C   UNL     1       2.520   2.341  17.587  0.00  0.00    +0.000 C 
ATOM      5  O   UNL     1       3.906   2.588  17.861  0.00  0.00    +0.000 OA
ATOM      6  C   UNL     1       4.251   3.902  17.644  0.00  0.00    +0.000 A 
ATOM      7  C   UNL     1       3.905   4.861  18.619  0.00  0.00    +0.000 A 
ATOM      8  C   UNL     1       4.268   6.191  18.377  0.00  0.00    +0.000 A 
ATOM      9  C   UNL     1       4.966   6.552  17.225  0.00  0.00    +0.000 A 
ATOM     10  C   UNL     1       5.361   5.591  16.290  0.00  0.00    +0.000 A 
ATOM     11  C   UNL     1       6.115   5.968  15.167  0.00  0.00    +0.000 A 
ATOM     12  C   UNL     1       6.542   5.019  14.245  0.00  0.00    +0.000 A 
ATOM     13  C   UNL     1       6.214   3.678  14.429  0.00  0.00    +0.000 A 
ATOM     14  C   UNL     1       5.452   3.293  15.537  0.00  0.00    +0.000 A 
ATOM     15  C   UNL     1       5.009   4.237  16.492  0.00  0.00    +0.000 A 
ENDROOT
BRANCH   1  19
ATOM     16  O   UNL     1       1.102   6.323  19.429  0.00  0.00    +0.000 OA
ATOM     17  C   UNL     1       1.807   6.431  20.421  0.00  0.00    +0.000 C 
ATOM     18  N   UNL     1       1.684   7.449  21.334  0.00  0.00    +0.000 N 
ATOM     19  N   UNL     1       2.834   5.585  20.745  0.00  0.00    +0.000 N 
ATOM     20  H   UNL     1       2.296   7.458  22.133  0.00  0.00    +0.000 HD
ATOM     21  H   UNL     1       3.219   5.631  21.672  0.00  0.00    +0.000 HD
BRANCH  18  22
ATOM     22  C   UNL     1       0.656   8.481  21.224  0.00  0.00    +0.000 C 
ATOM     23  C   UNL     1       1.033   9.488  20.131  0.00  0.00    +0.000 C 
ATOM     24  C   UNL     1       0.057  10.661  20.098  0.00  0.00    +0.000 C 
ATOM     25  C   UNL     1      -0.096  11.270  21.485  0.00  0.00    +0.000 C 
ATOM     26  O   UNL     1      -0.521  10.283  22.421  0.00  0.00    +0.000 OA
ATOM     27  C   UNL     1       0.422   9.213  22.558  0.00  0.00    +0.000 C 
ENDBRANCH  18  22
ENDBRANCH   1  19
TORSDOF 2
ENDMDL
MODEL 9
REMARK VINA RESULT:      -7.0      0.996      1.323
REMARK  Name = 
REMARK  2 active torsions:
REMARK  status: ('A' for Active; 'I' for Inactive)
REMARK    1  A    between atoms: N_3  and  C_4
REMARK    2  A    between atoms: N_10  and  C_11
REMARK                            x       y       z     vdW  Elec       q    Type
REMARK                         _______ _______ _______ _____ _____    ______ ____
ROOT
ATOM      1  C   UNL     1       0.994  10.389  19.028  0.00  0.00    +0.000 C 
ATOM      2  C   UNL     1       1.824  11.697  19.099  0.00  0.00    +0.000 C 
ATOM      3  C   UNL     1       1.107  12.959  18.624  0.00  0.00    +0.000 C 
ATOM      4  C   UNL     1       0.024  13.395  19.613  0.00  0.00    +0.000 C 
ATOM      5  O   UNL     1      -0.750  12.327  20.175  0.00  0.00    +0.000 OA
ATOM      6  C   UNL     1      -1.291  11.514  19.207  0.00  0.00    +0.000 A 
ATOM      7  C   UNL     1      -0.460  10.560  18.584  0.00  0.00    +0.000 A 
ATOM      8  C   UNL     1      -1.033   9.743  17.603  0.00  0.00    +0.000 A 
ATOM      9  C   UNL     1      -2.382   9.851  17.269  0.00  0.00    +0.000 A 
ATOM     10  C   UNL     1      -3.218  10.756  17.930  0.00  0.00    +0.000 A 
ATOM     11  C   UNL     1      -4.587  10.806  17.620  0.00  0.00    +0.000 A 
ATOM     12  C   UNL     1      -5.437  11.678  18.292  0.00  0.00    +0.000 A 
ATOM     13  C   UNL     1      -4.929  12.518  19.280  0.00  0.00    +0.000 A 
ATOM     14  C   UNL     1      -3.564  12.484  19.588  0.00  0.00    +0.000 A 
ATOM     15  C   UNL     1      -2.679  11.605  18.923  0.00  0.00    +0.000 A 
ENDROOT
BRANCH   1  19
ATOM     16  O   UNL     1       1.920   7.748  19.722  0.00  0.00    +0.000 OA
ATOM     17  C   UNL     1       2.127   8.201  18.607  0.00  0.00    +0.000 C 
ATOM     18  N   UNL     1       2.831   7.536  17.634  0.00  0.00    +0.000 N 
ATOM     19  N   UNL     1       1.725   9.440  18.179  0.00  0.00    +0.000 N 
ATOM     20  H   UNL     1       2.946   7.975  16.735  0.00  0.00    +0.000 HD
ATOM     21  H   UNL     1       1.760   9.642  17.196  0.00  0.00    +0.000 HD
BRANCH  18  22
ATOM     22  C   UNL     1       3.362   6.189  17.833  0.00  0.00    +0.000 C 
ATOM     23  C   UNL     1       2.213   5.184  17.972  0.00  0.00    +0.000 C 
ATOM     24  C   UNL     1       2.733   3.795  18.332  0.00  0.00    +0.000 C 
ATOM     25  C   UNL     1       3.654   3.865  19.542  0.00  0.00    +0.000 C 
ATOM     26  O   UNL     1       4.734   4.763  19.298  0.00  0.00    +0.000 OA
ATOM     27  C   UNL     1       4.290   6.104  19.057  0.00  0.00    +0.000 C 
ENDBRANCH  18  22
ENDBRANCH   1  19
TORSDOF 2
ENDMDL
