MODEL 1
REMARK VINA RESULT:      -7.3      0.000      0.000
REMARK  Name = 
REMARK  4 active torsions:
REMARK  status: ('A' for Active; 'I' for Inactive)
REMARK    1  A    between atoms: C_2  and  C_3
REMARK    2  A    between atoms: N_12  and  C_13
REMARK    3  A    between atoms: C_13  and  N_15
REMARK    4  A    between atoms: N_15  and  C_16
REMARK                            x       y       z     vdW  Elec       q    Type
REMARK                         _______ _______ _______ _____ _____    ______ ____
ROOT
ATOM      1  O   UNL     1       7.693   4.598  16.882  0.00  0.00    +0.000 OA
ATOM      2  C   UNL     1       6.750   4.983  16.193  0.00  0.00    +0.000 C 
ATOM      3  N   UNL     1       5.635   5.664  16.719  0.00  0.00    +0.000 N 
ATOM      4  C   UNL     1       4.662   6.387  15.935  0.00  0.00    +0.000 C 
ATOM      5  C   UNL     1       3.867   7.200  16.912  0.00  0.00    +0.000 C 
ATOM      6  N   UNL     1       3.967   6.471  18.159  0.00  0.00    +0.000 N 
ATOM      7  C   UNL     1       5.165   5.626  18.081  0.00  0.00    +0.000 C 
ATOM      8  S   UNL     1       5.807   4.703  19.316  0.00  0.00    +0.000 S 
ENDROOT
BRANCH   2   9
ATOM      9  C   UNL     1       6.914   4.797  14.712  0.00  0.00    +0.000 A 
ATOM     10  C   UNL     1       7.760   5.571  13.912  0.00  0.00    +0.000 A 
ATOM     11  C   UNL     1       7.929   5.281  12.558  0.00  0.00    +0.000 A 
ATOM     12  C   UNL     1       7.172   4.280  11.961  0.00  0.00    +0.000 A 
ATOM     13  C   UNL     1       6.243   3.570  12.718  0.00  0.00    +0.000 A 
ATOM     14  C   UNL     1       6.122   3.820  14.088  0.00  0.00    +0.000 A 
ENDBRANCH   2   9
BRANCH   6  15
ATOM     15  C   UNL     1       3.022   6.690  19.202  0.00  0.00    +0.000 C 
ATOM     16  S   UNL     1       2.094   8.082  19.347  0.00  0.00    +0.000 S 
BRANCH  15  17
ATOM     17  N   UNL     1       2.944   5.634  20.072  0.00  0.00    +0.000 N 
ATOM     18  H   UNL     1       3.852   5.259  20.320  0.00  0.00    +0.000 HD
BRANCH  17  19
ATOM     19  C   UNL     1       1.818   4.747  20.392  0.00  0.00    +0.000 C 
ATOM     20  C   UNL     1       1.297   4.143  19.076  0.00  0.00    +0.000 C 
ATOM     21  C   UNL     1       2.317   3.183  18.455  0.00  0.00    +0.000 C 
ATOM     22  C   UNL     1       2.679   2.065  19.425  0.00  0.00    +0.000 C 
ATOM     23  C   UNL     1       3.145   2.604  20.776  0.00  0.00    +0.000 C 
ATOM     24  C   UNL     1       2.163   3.614  21.367  0.00  0.00    +0.000 C 
ENDBRANCH  17  19
ENDBRANCH  15  17
ENDBRANCH   6  15
TORSDOF 4
ENDMDL
MODEL 2
REMARK VINA RESULT:      -7.2      5.007      7.079
REMARK  Name = 
REMARK  4 active torsions:
REMARK  status: ('A' for Active; 'I' for Inactive)
REMARK    1  A    between atoms: C_2  and  C_3
REMARK    2  A    between atoms: N_12  and  C_13
REMARK    3  A    between atoms: C_13  and  N_15
REMARK    4  A    between atoms: N_15  and  C_16
REMARK                            x       y       z     vdW  Elec       q    Type
REMARK                         _______ _______ _______ _____ _____    ______ ____
ROOT
ATOM      1  O   UNL     1       2.114   6.443  20.979  0.00  0.00    +0.000 OA
ATOM      2  C   UNL     1       2.210   6.691  19.779  0.00  0.00    +0.000 C 
ATOM      3  N   UNL     1       1.878   7.940  19.218  0.00  0.00    +0.000 N 
ATOM      4  C   UNL     1       2.246   8.375  17.892  0.00  0.00    +0.000 C 
ATOM      5  C   UNL     1       1.973   9.848  17.850  0.00  0.00    +0.000 C 
ATOM      6  N   UNL     1       0.933  10.054  18.837  0.00  0.00    +0.000 N 
ATOM      7  C   UNL     1       0.987   8.926  19.775  0.00  0.00    +0.000 C 
ATOM      8  S   UNL     1       0.097   8.764  21.179  0.00  0.00    +0.000 S 
ENDROOT
BRANCH   2   9
ATOM      9  C   UNL     1       2.834   5.611  18.944  0.00  0.00    +0.000 A 
ATOM     10  C   UNL     1       4.213   5.412  18.818  0.00  0.00    +0.000 A 
ATOM     11  C   UNL     1       4.718   4.330  18.096  0.00  0.00    +0.000 A 
ATOM     12  C   UNL     1       3.854   3.493  17.400  0.00  0.00    +0.000 A 
ATOM     13  C   UNL     1       2.483   3.740  17.423  0.00  0.00    +0.000 A 
ATOM     14  C   UNL     1       1.975   4.787  18.199  0.00  0.00    +0.000 A 
ENDBRANCH   2   9
BRANCH   6  15
ATOM     15  C   UNL     1       0.123  11.225  18.800  0.00  0.00    +0.000 C 
ATOM     16  S   UNL     1       0.395  12.581  19.752  0.00  0.00    +0.000 S 
BRANCH  15  17
ATOM     17  N   UNL     1      -0.900  11.128  17.893  0.00  0.00    +0.000 N 
ATOM     18  H   UNL     1      -1.195  12.029  17.533  0.00  0.00    +0.000 HD
BRANCH  17  19
ATOM     19  C   UNL     1      -1.853  10.039  17.648  0.00  0.00    +0.000 C 
ATOM     20  C   UNL     1      -3.138  10.343  18.440  0.00  0.00    +0.000 C 
ATOM     21  C   UNL     1      -3.869  11.566  17.876  0.00  0.00    +0.000 C 
ATOM     22  C   UNL     1      -4.208  11.372  16.403  0.00  0.00    +0.000 C 
ATOM     23  C   UNL     1      -2.979  11.004  15.574  0.00  0.00    +0.000 C 
ATOM     24  C   UNL     1      -2.208   9.829  16.171  0.00  0.00    +0.000 C 
ENDBRANCH  17  19
ENDBRANCH  15  17
ENDBRANCH   6  15
TORSDOF 4
ENDMDL
MODEL 3
REMARK VINA RESULT:      -7.2      0.125      1.009
REMARK  Name = 
REMARK  4 active torsions:
REMARK  status: ('A' for Active; 'I' for Inactive)
REMARK    1  A    between atoms: C_2  and  C_3
REMARK    2  A    between atoms: N_12  and  C_13
REMARK    3  A    between atoms: C_13  and  N_15
REMARK    4  A    between atoms: N_15  and  C_16
REMARK                            x       y       z     vdW  Elec       q    Type
REMARK                         _______ _______ _______ _____ _____    ______ ____
ROOT
ATOM      1  O   UNL     1       7.679   4.474  16.851  0.00  0.00    +0.000 OA
ATOM      2  C   UNL     1       6.735   4.867  16.169  0.00  0.00    +0.000 C 
ATOM      3  N   UNL     1       5.632   5.565  16.701  0.00  0.00    +0.000 N 
ATOM      4  C   UNL     1       4.663   6.297  15.923  0.00  0.00    +0.000 C 
ATOM      5  C   UNL     1       3.886   7.124  16.903  0.00  0.00    +0.000 C 
ATOM      6  N   UNL     1       3.988   6.399  18.153  0.00  0.00    +0.000 N 
ATOM      7  C   UNL     1       5.174   5.539  18.068  0.00  0.00    +0.000 C 
ATOM      8  S   UNL     1       5.816   4.614  19.301  0.00  0.00    +0.000 S 
ENDROOT
BRANCH   2   9
ATOM      9  C   UNL     1       6.883   4.674  14.687  0.00  0.00    +0.000 A 
ATOM     10  C   UNL     1       6.201   3.701  13.950  0.00  0.00    +0.000 A 
ATOM     11  C   UNL     1       6.321   3.640  12.561  0.00  0.00    +0.000 A 
ATOM     12  C   UNL     1       7.208   4.482  11.901  0.00  0.00    +0.000 A 
ATOM     13  C   UNL     1       7.979   5.384  12.631  0.00  0.00    +0.000 A 
ATOM     14  C   UNL     1       7.809   5.487  14.015  0.00  0.00    +0.000 A 
ENDBRANCH   2   9
BRANCH   6  15
ATOM     15  C   UNL     1       3.055   6.636  19.203  0.00  0.00    +0.000 C 
ATOM     16  S   UNL     1       2.123   8.026  19.332  0.00  0.00    +0.000 S 
BRANCH  15  17
ATOM     17  N   UNL     1       2.993   5.597  20.095  0.00  0.00    +0.000 N 
ATOM     18  H   UNL     1       3.904   5.205  20.308  0.00  0.00    +0.000 HD
BRANCH  17  19
ATOM     19  C   UNL     1       1.864   4.743  20.483  0.00  0.00    +0.000 C 
ATOM     20  C   UNL     1       1.222   4.187  19.198  0.00  0.00    +0.000 C 
ATOM     21  C   UNL     1       2.157   3.207  18.482  0.00  0.00    +0.000 C 
ATOM     22  C   UNL     1       2.550   2.055  19.398  0.00  0.00    +0.000 C 
ATOM     23  C   UNL     1       3.137   2.546  20.720  0.00  0.00    +0.000 C 
ATOM     24  C   UNL     1       2.240   3.576  21.405  0.00  0.00    +0.000 C 
ENDBRANCH  17  19
ENDBRANCH  15  17
ENDBRANCH   6  15
TORSDOF 4
ENDMDL
MODEL 4
REMARK VINA RESULT:      -7.2      5.025      7.116
REMARK  Name = 
REMARK  4 active torsions:
REMARK  status: ('A' for Active; 'I' for Inactive)
REMARK    1  A    between atoms: C_2  and  C_3
REMARK    2  A    between atoms: N_12  and  C_13
REMARK    3  A    between atoms: C_13  and  N_15
REMARK    4  A    between atoms: N_15  and  C_16
REMARK                            x       y       z     vdW  Elec       q    Type
REMARK                         _______ _______ _______ _____ _____    ______ ____
ROOT
ATOM      1  O   UNL     1       2.190   6.448  20.986  0.00  0.00    +0.000 OA
ATOM      2  C   UNL     1       2.252   6.686  19.782  0.00  0.00    +0.000 C 
ATOM      3  N   UNL     1       1.868   7.919  19.216  0.00  0.00    +0.000 N 
ATOM      4  C   UNL     1       2.193   8.352  17.878  0.00  0.00    +0.000 C 
ATOM      5  C   UNL     1       1.872   9.815  17.829  0.00  0.00    +0.000 C 
ATOM      6  N   UNL     1       0.849   9.998  18.837  0.00  0.00    +0.000 N 
ATOM      7  C   UNL     1       0.959   8.882  19.784  0.00  0.00    +0.000 C 
ATOM      8  S   UNL     1       0.106   8.706  21.209  0.00  0.00    +0.000 S 
ENDROOT
BRANCH   2   9
ATOM      9  C   UNL     1       2.891   5.618  18.943  0.00  0.00    +0.000 A 
ATOM     10  C   UNL     1       2.181   4.704  18.159  0.00  0.00    +0.000 A 
ATOM     11  C   UNL     1       2.847   3.797  17.334  0.00  0.00    +0.000 A 
ATOM     12  C   UNL     1       4.235   3.719  17.364  0.00  0.00    +0.000 A 
ATOM     13  C   UNL     1       4.957   4.546  18.221  0.00  0.00    +0.000 A 
ATOM     14  C   UNL     1       4.289   5.497  18.999  0.00  0.00    +0.000 A 
ENDBRANCH   2   9
BRANCH   6  15
ATOM     15  C   UNL     1       0.002  11.143  18.807  0.00  0.00    +0.000 C 
ATOM     16  S   UNL     1       0.169  12.458  19.836  0.00  0.00    +0.000 S 
BRANCH  15  17
ATOM     17  N   UNL     1      -0.962  11.058  17.836  0.00  0.00    +0.000 N 
ATOM     18  H   UNL     1      -1.239  11.964  17.474  0.00  0.00    +0.000 HD
BRANCH  17  19
ATOM     19  C   UNL     1      -1.893   9.969  17.513  0.00  0.00    +0.000 C 
ATOM     20  C   UNL     1      -3.179  10.182  18.333  0.00  0.00    +0.000 C 
ATOM     21  C   UNL     1      -3.941  11.428  17.871  0.00  0.00    +0.000 C 
ATOM     22  C   UNL     1      -4.287  11.341  16.389  0.00  0.00    +0.000 C 
ATOM     23  C   UNL     1      -3.056  11.067  15.527  0.00  0.00    +0.000 C 
ATOM     24  C   UNL     1      -2.255   9.866  16.026  0.00  0.00    +0.000 C 
ENDBRANCH  17  19
ENDBRANCH  15  17
ENDBRANCH   6  15
TORSDOF 4
ENDMDL
MODEL 5
REMARK VINA RESULT:      -6.5      4.247      7.189
REMARK  Name = 
REMARK  4 active torsions:
REMARK  status: ('A' for Active; 'I' for Inactive)
REMARK    1  A    between atoms: C_2  and  C_3
REMARK    2  A    between atoms: N_12  and  C_13
REMARK    3  A    between atoms: C_13  and  N_15
REMARK    4  A    between atoms: N_15  and  C_16
REMARK                            x       y       z     vdW  Elec       q    Type
REMARK                         _______ _______ _______ _____ _____    ______ ____
ROOT
ATOM      1  O   UNL     1      -0.159   9.231  20.690  0.00  0.00    +0.000 OA
ATOM      2  C   UNL     1       0.593   9.652  19.814  0.00  0.00    +0.000 C 
ATOM      3  N   UNL     1       1.507   8.834  19.120  0.00  0.00    +0.000 N 
ATOM      4  C   UNL     1       2.188   9.203  17.902  0.00  0.00    +0.000 C 
ATOM      5  C   UNL     1       2.788   7.938  17.365  0.00  0.00    +0.000 C 
ATOM      6  N   UNL     1       2.974   7.100  18.531  0.00  0.00    +0.000 N 
ATOM      7  C   UNL     1       2.056   7.580  19.571  0.00  0.00    +0.000 C 
ATOM      8  S   UNL     1       1.776   6.861  21.052  0.00  0.00    +0.000 S 
ENDROOT
BRANCH   2   9
ATOM      9  C   UNL     1       0.393  11.088  19.424  0.00  0.00    +0.000 A 
ATOM     10  C   UNL     1       1.227  12.135  19.826  0.00  0.00    +0.000 A 
ATOM     11  C   UNL     1       1.030  13.432  19.349  0.00  0.00    +0.000 A 
ATOM     12  C   UNL     1      -0.070  13.720  18.550  0.00  0.00    +0.000 A 
ATOM     13  C   UNL     1      -0.976  12.711  18.229  0.00  0.00    +0.000 A 
ATOM     14  C   UNL     1      -0.740  11.401  18.655  0.00  0.00    +0.000 A 
ENDBRANCH   2   9
BRANCH   6  15
ATOM     15  C   UNL     1       3.887   6.007  18.496  0.00  0.00    +0.000 C 
ATOM     16  S   UNL     1       5.310   6.003  17.605  0.00  0.00    +0.000 S 
BRANCH  15  17
ATOM     17  N   UNL     1       3.480   4.958  19.279  0.00  0.00    +0.000 N 
ATOM     18  H   UNL     1       3.734   5.070  20.253  0.00  0.00    +0.000 HD
BRANCH  17  19
ATOM     19  C   UNL     1       3.097   3.589  18.910  0.00  0.00    +0.000 C 
ATOM     20  C   UNL     1       3.556   2.645  20.036  0.00  0.00    +0.000 C 
ATOM     21  C   UNL     1       2.764   2.882  21.326  0.00  0.00    +0.000 C 
ATOM     22  C   UNL     1       1.268   2.710  21.090  0.00  0.00    +0.000 C 
ATOM     23  C   UNL     1       0.764   3.577  19.938  0.00  0.00    +0.000 C 
ATOM     24  C   UNL     1       1.594   3.395  18.669  0.00  0.00    +0.000 C 
ENDBRANCH  17  19
ENDBRANCH  15  17
ENDBRANCH   6  15
TORSDOF 4
ENDMDL
MODEL 6
REMARK VINA RESULT:      -6.5      5.748      8.198
REMARK  Name = 
REMARK  4 active torsions:
REMARK  status: ('A' for Active; 'I' for Inactive)
REMARK    1  A    between atoms: C_2  and  C_3
REMARK    2  A    between atoms: N_12  and  C_13
REMARK    3  A    between atoms: C_13  and  N_15
REMARK    4  A    between atoms: N_15  and  C_16
REMARK                            x       y       z     vdW  Elec       q    Type
REMARK                         _______ _______ _______ _____ _____    ______ ____
ROOT
ATOM      1  O   UNL     1       1.442   8.427  21.969  0.00  0.00    +0.000 OA
ATOM      2  C   UNL     1       1.446   8.310  20.745  0.00  0.00    +0.000 C 
ATOM      3  N   UNL     1       1.097   9.355  19.866  0.00  0.00    +0.000 N 
ATOM      4  C   UNL     1       1.365   9.368  18.449  0.00  0.00    +0.000 C 
ATOM      5  C   UNL     1       1.121  10.776  17.995  0.00  0.00    +0.000 C 
ATOM      6  N   UNL     1       0.170  11.307  18.950  0.00  0.00    +0.000 N 
ATOM      7  C   UNL     1       0.276  10.500  20.172  0.00  0.00    +0.000 C 
ATOM      8  S   UNL     1      -0.500  10.794  21.621  0.00  0.00    +0.000 S 
ENDROOT
BRANCH   2   9
ATOM      9  C   UNL     1       1.976   7.007  20.221  0.00  0.00    +0.000 A 
ATOM     10  C   UNL     1       2.911   6.897  19.188  0.00  0.00    +0.000 A 
ATOM     11  C   UNL     1       3.426   5.654  18.817  0.00  0.00    +0.000 A 
ATOM     12  C   UNL     1       2.932   4.493  19.400  0.00  0.00    +0.000 A 
ATOM     13  C   UNL     1       1.920   4.574  20.354  0.00  0.00    +0.000 A 
ATOM     14  C   UNL     1       1.452   5.825  20.770  0.00  0.00    +0.000 A 
ENDBRANCH   2   9
BRANCH   6  15
ATOM     15  C   UNL     1      -0.614  12.452  18.629  0.00  0.00    +0.000 C 
ATOM     16  S   UNL     1      -0.102  14.033  18.864  0.00  0.00    +0.000 S 
BRANCH  15  17
ATOM     17  N   UNL     1      -1.832  12.121  18.095  0.00  0.00    +0.000 N 
ATOM     18  H   UNL     1      -2.368  12.931  17.803  0.00  0.00    +0.000 HD
BRANCH  17  19
ATOM     19  C   UNL     1      -2.619  10.888  18.215  0.00  0.00    +0.000 C 
ATOM     20  C   UNL     1      -4.108  11.257  18.083  0.00  0.00    +0.000 C 
ATOM     21  C   UNL     1      -4.445  11.736  16.667  0.00  0.00    +0.000 C 
ATOM     22  C   UNL     1      -4.084  10.679  15.630  0.00  0.00    +0.000 C 
ATOM     23  C   UNL     1      -2.631  10.225  15.753  0.00  0.00    +0.000 C 
ATOM     24  C   UNL     1      -2.272   9.812  17.178  0.00  0.00    +0.000 C 
ENDBRANCH  17  19
ENDBRANCH  15  17
ENDBRANCH   6  15
TORSDOF 4
ENDMDL
MODEL 7
REMARK VINA RESULT:      -6.4      4.982      6.975
REMARK  Name = 
REMARK  4 active torsions:
REMARK  status: ('A' for Active; 'I' for Inactive)
REMARK    1  A    between atoms: C_2  and  C_3
REMARK    2  A    between atoms: N_12  and  C_13
REMARK    3  A    between atoms: C_13  and  N_15
REMARK    4  A    between atoms: N_15  and  C_16
REMARK                            x       y       z     vdW  Elec       q    Type
REMARK                         _______ _______ _______ _____ _____    ______ ____
ROOT
ATOM      1  O   UNL     1       2.279   6.401  20.946  0.00  0.00    +0.000 OA
ATOM      2  C   UNL     1       2.230   6.706  19.756  0.00  0.00    +0.000 C 
ATOM      3  N   UNL     1       1.865   7.989  19.300  0.00  0.00    +0.000 N 
ATOM      4  C   UNL     1       2.074   8.481  17.960  0.00  0.00    +0.000 C 
ATOM      5  C   UNL     1       1.838   9.960  18.021  0.00  0.00    +0.000 C 
ATOM      6  N   UNL     1       0.939  10.139  19.142  0.00  0.00    +0.000 N 
ATOM      7  C   UNL     1       1.079   8.965  20.012  0.00  0.00    +0.000 C 
ATOM      8  S   UNL     1       0.370   8.753  21.509  0.00  0.00    +0.000 S 
ENDROOT
BRANCH   2   9
ATOM      9  C   UNL     1       2.712   5.655  18.798  0.00  0.00    +0.000 A 
ATOM     10  C   UNL     1       1.886   4.702  18.195  0.00  0.00    +0.000 A 
ATOM     11  C   UNL     1       2.392   3.814  17.245  0.00  0.00    +0.000 A 
ATOM     12  C   UNL     1       3.753   3.795  16.965  0.00  0.00    +0.000 A 
ATOM     13  C   UNL     1       4.611   4.663  17.637  0.00  0.00    +0.000 A 
ATOM     14  C   UNL     1       4.091   5.595  18.541  0.00  0.00    +0.000 A 
ENDBRANCH   2   9
BRANCH   6  15
ATOM     15  C   UNL     1       0.164  11.328  19.263  0.00  0.00    +0.000 C 
ATOM     16  S   UNL     1       0.809  12.832  19.635  0.00  0.00    +0.000 S 
BRANCH  15  17
ATOM     17  N   UNL     1      -1.170  11.112  19.032  0.00  0.00    +0.000 N 
ATOM     18  H   UNL     1      -1.464  10.170  19.266  0.00  0.00    +0.000 HD
BRANCH  17  19
ATOM     19  C   UNL     1      -2.120  11.847  18.187  0.00  0.00    +0.000 C 
ATOM     20  C   UNL     1      -1.836  11.481  16.719  0.00  0.00    +0.000 C 
ATOM     21  C   UNL     1      -2.185  10.018  16.427  0.00  0.00    +0.000 C 
ATOM     22  C   UNL     1      -3.645   9.727  16.755  0.00  0.00    +0.000 C 
ATOM     23  C   UNL     1      -4.005  10.129  18.184  0.00  0.00    +0.000 C 
ATOM     24  C   UNL     1      -3.595  11.566  18.501  0.00  0.00    +0.000 C 
ENDBRANCH  17  19
ENDBRANCH  15  17
ENDBRANCH   6  15
TORSDOF 4
ENDMDL
MODEL 8
REMARK VINA RESULT:      -6.4      5.014      6.973
REMARK  Name = 
REMARK  4 active torsions:
REMARK  status: ('A' for Active; 'I' for Inactive)
REMARK    1  A    between atoms: C_2  and  C_3
REMARK    2  A    between atoms: N_12  and  C_13
REMARK    3  A    between atoms: C_13  and  N_15
REMARK    4  A    between atoms: N_15  and  C_16
REMARK                            x       y       z     vdW  Elec       q    Type
REMARK                         _______ _______ _______ _____ _____    ______ ____
ROOT
ATOM      1  O   UNL     1       2.181   6.356  20.974  0.00  0.00    +0.000 OA
ATOM      2  C   UNL     1       2.213   6.681  19.789  0.00  0.00    +0.000 C 
ATOM      3  N   UNL     1       1.879   7.971  19.330  0.00  0.00    +0.000 N 
ATOM      4  C   UNL     1       2.179   8.485  18.016  0.00  0.00    +0.000 C 
ATOM      5  C   UNL     1       1.937   9.963  18.086  0.00  0.00    +0.000 C 
ATOM      6  N   UNL     1       0.962  10.123  19.144  0.00  0.00    +0.000 N 
ATOM      7  C   UNL     1       1.044   8.935  20.002  0.00  0.00    +0.000 C 
ATOM      8  S   UNL     1       0.234   8.697  21.443  0.00  0.00    +0.000 S 
ENDROOT
BRANCH   2   9
ATOM      9  C   UNL     1       2.763   5.647  18.850  0.00  0.00    +0.000 A 
ATOM     10  C   UNL     1       4.119   5.506  18.542  0.00  0.00    +0.000 A 
ATOM     11  C   UNL     1       4.566   4.462  17.730  0.00  0.00    +0.000 A 
ATOM     12  C   UNL     1       3.649   3.608  17.128  0.00  0.00    +0.000 A 
ATOM     13  C   UNL     1       2.285   3.799  17.334  0.00  0.00    +0.000 A 
ATOM     14  C   UNL     1       1.845   4.807  18.199  0.00  0.00    +0.000 A 
ENDBRANCH   2   9
BRANCH   6  15
ATOM     15  C   UNL     1       0.179  11.309  19.231  0.00  0.00    +0.000 C 
ATOM     16  S   UNL     1       0.810  12.824  19.584  0.00  0.00    +0.000 S 
BRANCH  15  17
ATOM     17  N   UNL     1      -1.150  11.081  18.984  0.00  0.00    +0.000 N 
ATOM     18  H   UNL     1      -1.409  10.106  19.088  0.00  0.00    +0.000 HD
BRANCH  17  19
ATOM     19  C   UNL     1      -2.136  11.893  18.260  0.00  0.00    +0.000 C 
ATOM     20  C   UNL     1      -1.907  11.688  16.751  0.00  0.00    +0.000 C 
ATOM     21  C   UNL     1      -2.259  10.262  16.318  0.00  0.00    +0.000 C 
ATOM     22  C   UNL     1      -3.703   9.924  16.668  0.00  0.00    +0.000 C 
ATOM     23  C   UNL     1      -4.010  10.168  18.144  0.00  0.00    +0.000 C 
ATOM     24  C   UNL     1      -3.596  11.566  18.598  0.00  0.00    +0.000 C 
ENDBRANCH  17  19
ENDBRANCH  15  17
ENDBRANCH   6  15
TORSDOF 4
ENDMDL
MODEL 9
REMARK VINA RESULT:      -6.4      4.587      7.982
REMARK  Name = 
REMARK  4 active torsions:
REMARK  status: ('A' for Active; 'I' for Inactive)
REMARK    1  A    between atoms: C_2  and  C_3
REMARK    2  A    between atoms: N_12  and  C_13
REMARK    3  A    between atoms: C_13  and  N_15
REMARK    4  A    between atoms: N_15  and  C_16
REMARK                            x       y       z     vdW  Elec       q    Type
REMARK                         _______ _______ _______ _____ _____    ______ ____
ROOT
ATOM      1  O   UNL     1      -0.114   9.904  20.914  0.00  0.00    +0.000 OA
ATOM      2  C   UNL     1       0.613  10.242  19.982  0.00  0.00    +0.000 C 
ATOM      3  N   UNL     1       1.347   9.327  19.201  0.00  0.00    +0.000 N 
ATOM      4  C   UNL     1       1.967   9.631  17.935  0.00  0.00    +0.000 C 
ATOM      5  C   UNL     1       2.343   8.311  17.332  0.00  0.00    +0.000 C 
ATOM      6  N   UNL     1       2.511   7.427  18.466  0.00  0.00    +0.000 N 
ATOM      7  C   UNL     1       1.756   7.999  19.587  0.00  0.00    +0.000 C 
ATOM      8  S   UNL     1       1.507   7.289  21.078  0.00  0.00    +0.000 S 
ENDROOT
BRANCH   2   9
ATOM      9  C   UNL     1       0.576  11.701  19.630  0.00  0.00    +0.000 A 
ATOM     10  C   UNL     1      -0.337  12.272  18.737  0.00  0.00    +0.000 A 
ATOM     11  C   UNL     1      -0.369  13.651  18.529  0.00  0.00    +0.000 A 
ATOM     12  C   UNL     1       0.583  14.468  19.128  0.00  0.00    +0.000 A 
ATOM     13  C   UNL     1       1.570  13.905  19.934  0.00  0.00    +0.000 A 
ATOM     14  C   UNL     1       1.560  12.530  20.192  0.00  0.00    +0.000 A 
ENDBRANCH   2   9
BRANCH   6  15
ATOM     15  C   UNL     1       3.261   6.223  18.338  0.00  0.00    +0.000 C 
ATOM     16  S   UNL     1       2.574   4.692  18.305  0.00  0.00    +0.000 S 
BRANCH  15  17
ATOM     17  N   UNL     1       4.609   6.451  18.235  0.00  0.00    +0.000 N 
ATOM     18  H   UNL     1       5.043   6.664  19.125  0.00  0.00    +0.000 HD
BRANCH  17  19
ATOM     19  C   UNL     1       5.426   6.801  17.066  0.00  0.00    +0.000 C 
ATOM     20  C   UNL     1       6.899   6.847  17.511  0.00  0.00    +0.000 C 
ATOM     21  C   UNL     1       7.418   5.454  17.882  0.00  0.00    +0.000 C 
ATOM     22  C   UNL     1       7.264   4.483  16.718  0.00  0.00    +0.000 C 
ATOM     23  C   UNL     1       5.832   4.441  16.190  0.00  0.00    +0.000 C 
ATOM     24  C   UNL     1       5.286   5.834  15.883  0.00  0.00    +0.000 C 
ENDBRANCH  17  19
ENDBRANCH  15  17
ENDBRANCH   6  15
TORSDOF 4
ENDMDL
