MODEL 1
REMARK VINA RESULT:      -7.1      0.000      0.000
REMARK  Name = 
REMARK  6 active torsions:
REMARK  status: ('A' for Active; 'I' for Inactive)
REMARK    1  A    between atoms: C_2  and  C_3
REMARK    2  A    between atoms: C_4  and  N_5
REMARK    3  A    between atoms: C_6  and  C_8
REMARK    4  A    between atoms: C_8  and  C_9
REMARK    5  A    between atoms: C_9  and  C_10
REMARK    6  A    between atoms: C_10  and  O_12
REMARK                            x       y       z     vdW  Elec       q    Type
REMARK                         _______ _______ _______ _____ _____    ______ ____
ROOT
ATOM      1  C   UNL     1       3.701   4.707  18.016  0.00  0.00    +0.000 A 
ATOM      2  C   UNL     1       4.186   3.781  17.068  0.00  0.00    +0.000 A 
ATOM      3  C   UNL     1       3.840   2.431  17.220  0.00  0.00    +0.000 A 
ATOM      4  C   UNL     1       3.071   1.997  18.304  0.00  0.00    +0.000 A 
ATOM      5  C   UNL     1       2.634   2.898  19.282  0.00  0.00    +0.000 A 
ATOM      6  C   UNL     1       1.862   2.452  20.371  0.00  0.00    +0.000 A 
ATOM      7  C   UNL     1       1.424   3.339  21.354  0.00  0.00    +0.000 A 
ATOM      8  C   UNL     1       1.758   4.683  21.267  0.00  0.00    +0.000 A 
ATOM      9  C   UNL     1       2.512   5.138  20.186  0.00  0.00    +0.000 A 
ATOM     10  C   UNL     1       2.960   4.268  19.159  0.00  0.00    +0.000 A 
ENDROOT
BRANCH   2  11
ATOM     11  N   UNL     1       4.997   4.067  15.934  0.00  0.00    +0.000 N 
ATOM     12  C   UNL     1       6.343   4.382  15.939  0.00  0.00    +0.000 C 
ATOM     13  O   UNL     1       7.081   4.384  16.918  0.00  0.00    +0.000 OA
ATOM     14  H   UNL     1       4.652   3.703  15.045  0.00  0.00    +0.000 HD
BRANCH  12  15
ATOM     15  C   UNL     1       6.942   4.546  14.556  0.00  0.00    +0.000 C 
BRANCH  15  16
ATOM     16  C   UNL     1       5.951   3.972  13.550  0.00  0.00    +0.000 C 
BRANCH  16  17
ATOM     17  C   UNL     1       6.667   3.590  12.277  0.00  0.00    +0.000 C 
ATOM     18  O   UNL     1       7.375   4.359  11.639  0.00  0.00    +0.000 OA
BRANCH  17  19
ATOM     19  O   UNL     1       6.449   2.318  11.894  0.00  0.00    +0.000 OA
ATOM     20  H   UNL     1       6.953   1.650  12.401  0.00  0.00    +0.000 HD
ENDBRANCH  17  19
ENDBRANCH  16  17
ENDBRANCH  15  16
ENDBRANCH  12  15
ENDBRANCH   2  11
BRANCH   1  22
ATOM     21  N   UNL     1       3.846   7.255  17.523  0.00  0.00    +0.000 NA
ATOM     22  C   UNL     1       3.784   6.127  17.810  0.00  0.00    +0.000 C 
ENDBRANCH   1  22
TORSDOF 6
ENDMDL
MODEL 2
REMARK VINA RESULT:      -6.9      1.590      1.728
REMARK  Name = 
REMARK  6 active torsions:
REMARK  status: ('A' for Active; 'I' for Inactive)
REMARK    1  A    between atoms: C_2  and  C_3
REMARK    2  A    between atoms: C_4  and  N_5
REMARK    3  A    between atoms: C_6  and  C_8
REMARK    4  A    between atoms: C_8  and  C_9
REMARK    5  A    between atoms: C_9  and  C_10
REMARK    6  A    between atoms: C_10  and  O_12
REMARK                            x       y       z     vdW  Elec       q    Type
REMARK                         _______ _______ _______ _____ _____    ______ ____
ROOT
ATOM      1  C   UNL     1       4.181   3.846  18.561  0.00  0.00    +0.000 A 
ATOM      2  C   UNL     1       3.905   3.857  17.177  0.00  0.00    +0.000 A 
ATOM      3  C   UNL     1       2.584   3.639  16.761  0.00  0.00    +0.000 A 
ATOM      4  C   UNL     1       1.567   3.373  17.683  0.00  0.00    +0.000 A 
ATOM      5  C   UNL     1       1.841   3.301  19.054  0.00  0.00    +0.000 A 
ATOM      6  C   UNL     1       0.812   3.030  19.975  0.00  0.00    +0.000 A 
ATOM      7  C   UNL     1       1.073   2.953  21.344  0.00  0.00    +0.000 A 
ATOM      8  C   UNL     1       2.367   3.136  21.809  0.00  0.00    +0.000 A 
ATOM      9  C   UNL     1       3.391   3.416  20.907  0.00  0.00    +0.000 A 
ATOM     10  C   UNL     1       3.161   3.521  19.511  0.00  0.00    +0.000 A 
ENDROOT
BRANCH   2  11
ATOM     11  N   UNL     1       4.835   4.085  16.124  0.00  0.00    +0.000 N 
ATOM     12  C   UNL     1       5.293   5.309  15.677  0.00  0.00    +0.000 C 
ATOM     13  O   UNL     1       5.038   6.401  16.173  0.00  0.00    +0.000 OA
ATOM     14  H   UNL     1       5.446   3.298  15.900  0.00  0.00    +0.000 HD
BRANCH  12  15
ATOM     15  C   UNL     1       6.350   5.214  14.595  0.00  0.00    +0.000 C 
BRANCH  15  16
ATOM     16  C   UNL     1       6.357   3.778  14.079  0.00  0.00    +0.000 C 
BRANCH  16  17
ATOM     17  C   UNL     1       6.340   3.770  12.570  0.00  0.00    +0.000 C 
ATOM     18  O   UNL     1       7.260   4.186  11.877  0.00  0.00    +0.000 OA
BRANCH  17  19
ATOM     19  O   UNL     1       5.205   3.268  12.045  0.00  0.00    +0.000 OA
ATOM     20  H   UNL     1       5.237   2.309  11.856  0.00  0.00    +0.000 HD
ENDBRANCH  17  19
ENDBRANCH  16  17
ENDBRANCH  15  16
ENDBRANCH  12  15
ENDBRANCH   2  11
BRANCH   1  22
ATOM     21  N   UNL     1       6.490   4.680  19.412  0.00  0.00    +0.000 NA
ATOM     22  C   UNL     1       5.434   4.306  19.094  0.00  0.00    +0.000 C 
ENDBRANCH   1  22
TORSDOF 6
ENDMDL
MODEL 3
REMARK VINA RESULT:      -6.8      1.229      2.624
REMARK  Name = 
REMARK  6 active torsions:
REMARK  status: ('A' for Active; 'I' for Inactive)
REMARK    1  A    between atoms: C_2  and  C_3
REMARK    2  A    between atoms: C_4  and  N_5
REMARK    3  A    between atoms: C_6  and  C_8
REMARK    4  A    between atoms: C_8  and  C_9
REMARK    5  A    between atoms: C_9  and  C_10
REMARK    6  A    between atoms: C_10  and  O_12
REMARK                            x       y       z     vdW  Elec       q    Type
REMARK                         _______ _______ _______ _____ _____    ______ ____
ROOT
ATOM      1  C   UNL     1       3.706   4.675  17.696  0.00  0.00    +0.000 A 
ATOM      2  C   UNL     1       4.407   5.565  16.855  0.00  0.00    +0.000 A 
ATOM      3  C   UNL     1       4.340   6.937  17.138  0.00  0.00    +0.000 A 
ATOM      4  C   UNL     1       3.566   7.423  18.195  0.00  0.00    +0.000 A 
ATOM      5  C   UNL     1       2.819   6.554  18.999  0.00  0.00    +0.000 A 
ATOM      6  C   UNL     1       2.041   7.052  20.060  0.00  0.00    +0.000 A 
ATOM      7  C   UNL     1       1.289   6.196  20.865  0.00  0.00    +0.000 A 
ATOM      8  C   UNL     1       1.298   4.831  20.616  0.00  0.00    +0.000 A 
ATOM      9  C   UNL     1       2.075   4.326  19.575  0.00  0.00    +0.000 A 
ATOM     10  C   UNL     1       2.866   5.163  18.747  0.00  0.00    +0.000 A 
ENDROOT
BRANCH   2  11
ATOM     11  N   UNL     1       5.209   5.224  15.731  0.00  0.00    +0.000 N 
ATOM     12  C   UNL     1       6.580   5.047  15.717  0.00  0.00    +0.000 C 
ATOM     13  O   UNL     1       7.322   5.074  16.693  0.00  0.00    +0.000 OA
ATOM     14  H   UNL     1       4.717   4.764  14.964  0.00  0.00    +0.000 HD
BRANCH  12  15
ATOM     15  C   UNL     1       7.130   4.599  14.378  0.00  0.00    +0.000 C 
BRANCH  15  16
ATOM     16  C   UNL     1       6.022   3.844  13.650  0.00  0.00    +0.000 C 
BRANCH  16  17
ATOM     17  C   UNL     1       6.495   3.423  12.281  0.00  0.00    +0.000 C 
ATOM     18  O   UNL     1       7.228   4.104  11.575  0.00  0.00    +0.000 OA
BRANCH  17  19
ATOM     19  O   UNL     1       6.026   2.222  11.891  0.00  0.00    +0.000 OA
ATOM     20  H   UNL     1       6.244   1.486  12.498  0.00  0.00    +0.000 HD
ENDBRANCH  17  19
ENDBRANCH  16  17
ENDBRANCH  15  16
ENDBRANCH  12  15
ENDBRANCH   2  11
BRANCH   1  22
ATOM     21  N   UNL     1       4.002   2.093  17.699  0.00  0.00    +0.000 NA
ATOM     22  C   UNL     1       3.913   3.253  17.647  0.00  0.00    +0.000 C 
ENDBRANCH   1  22
TORSDOF 6
ENDMDL
MODEL 4
REMARK VINA RESULT:      -6.8      3.520      6.731
REMARK  Name = 
REMARK  6 active torsions:
REMARK  status: ('A' for Active; 'I' for Inactive)
REMARK    1  A    between atoms: C_2  and  C_3
REMARK    2  A    between atoms: C_4  and  N_5
REMARK    3  A    between atoms: C_6  and  C_8
REMARK    4  A    between atoms: C_8  and  C_9
REMARK    5  A    between atoms: C_9  and  C_10
REMARK    6  A    between atoms: C_10  and  O_12
REMARK                            x       y       z     vdW  Elec       q    Type
REMARK                         _______ _______ _______ _____ _____    ______ ____
ROOT
ATOM      1  C   UNL     1       4.417   4.027  17.437  0.00  0.00    +0.000 A 
ATOM      2  C   UNL     1       4.740   4.342  18.774  0.00  0.00    +0.000 A 
ATOM      3  C   UNL     1       5.961   4.981  19.030  0.00  0.00    +0.000 A 
ATOM      4  C   UNL     1       6.863   5.264  17.999  0.00  0.00    +0.000 A 
ATOM      5  C   UNL     1       6.579   4.902  16.677  0.00  0.00    +0.000 A 
ATOM      6  C   UNL     1       7.493   5.187  15.646  0.00  0.00    +0.000 A 
ATOM      7  C   UNL     1       7.224   4.829  14.325  0.00  0.00    +0.000 A 
ATOM      8  C   UNL     1       6.042   4.172  14.017  0.00  0.00    +0.000 A 
ATOM      9  C   UNL     1       5.124   3.895  15.029  0.00  0.00    +0.000 A 
ATOM     10  C   UNL     1       5.355   4.260  16.380  0.00  0.00    +0.000 A 
ENDROOT
BRANCH   2  11
ATOM     11  N   UNL     1       3.941   4.094  19.925  0.00  0.00    +0.000 N 
ATOM     12  C   UNL     1       3.547   2.860  20.407  0.00  0.00    +0.000 C 
ATOM     13  O   UNL     1       3.893   1.768  19.968  0.00  0.00    +0.000 OA
ATOM     14  H   UNL     1       3.927   4.842  20.619  0.00  0.00    +0.000 HD
BRANCH  12  15
ATOM     15  C   UNL     1       2.772   2.926  21.708  0.00  0.00    +0.000 C 
BRANCH  15  16
ATOM     16  C   UNL     1       1.335   2.510  21.412  0.00  0.00    +0.000 C 
BRANCH  16  17
ATOM     17  C   UNL     1       0.763   3.370  20.312  0.00  0.00    +0.000 C 
ATOM     18  O   UNL     1       0.822   4.594  20.305  0.00  0.00    +0.000 OA
BRANCH  17  19
ATOM     19  O   UNL     1       0.164   2.668  19.331  0.00  0.00    +0.000 OA
ATOM     20  H   UNL     1      -0.345   1.892  19.641  0.00  0.00    +0.000 HD
ENDBRANCH  17  19
ENDBRANCH  16  17
ENDBRANCH  15  16
ENDBRANCH  12  15
ENDBRANCH   2  11
BRANCH   1  22
ATOM     21  N   UNL     1       1.987   3.349  16.813  0.00  0.00    +0.000 NA
ATOM     22  C   UNL     1       3.099   3.609  17.046  0.00  0.00    +0.000 C 
ENDBRANCH   1  22
TORSDOF 6
ENDMDL
MODEL 5
REMARK VINA RESULT:      -6.7      0.775      1.110
REMARK  Name = 
REMARK  6 active torsions:
REMARK  status: ('A' for Active; 'I' for Inactive)
REMARK    1  A    between atoms: C_2  and  C_3
REMARK    2  A    between atoms: C_4  and  N_5
REMARK    3  A    between atoms: C_6  and  C_8
REMARK    4  A    between atoms: C_8  and  C_9
REMARK    5  A    between atoms: C_9  and  C_10
REMARK    6  A    between atoms: C_10  and  O_12
REMARK                            x       y       z     vdW  Elec       q    Type
REMARK                         _______ _______ _______ _____ _____    ______ ____
ROOT
ATOM      1  C   UNL     1       3.572   4.870  18.004  0.00  0.00    +0.000 A 
ATOM      2  C   UNL     1       4.314   4.060  17.119  0.00  0.00    +0.000 A 
ATOM      3  C   UNL     1       4.092   2.675  17.140  0.00  0.00    +0.000 A 
ATOM      4  C   UNL     1       3.193   2.099  18.043  0.00  0.00    +0.000 A 
ATOM      5  C   UNL     1       2.496   2.887  18.966  0.00  0.00    +0.000 A 
ATOM      6  C   UNL     1       1.596   2.299  19.873  0.00  0.00    +0.000 A 
ATOM      7  C   UNL     1       0.898   3.073  20.801  0.00  0.00    +0.000 A 
ATOM      8  C   UNL     1       1.097   4.445  20.840  0.00  0.00    +0.000 A 
ATOM      9  C   UNL     1       1.978   5.040  19.939  0.00  0.00    +0.000 A 
ATOM     10  C   UNL     1       2.691   4.287  18.970  0.00  0.00    +0.000 A 
ENDROOT
BRANCH   2  11
ATOM     11  N   UNL     1       5.278   4.496  16.168  0.00  0.00    +0.000 N 
ATOM     12  C   UNL     1       6.628   4.690  16.389  0.00  0.00    +0.000 C 
ATOM     13  O   UNL     1       7.235   4.436  17.424  0.00  0.00    +0.000 OA
ATOM     14  H   UNL     1       5.029   4.346  15.189  0.00  0.00    +0.000 HD
BRANCH  12  15
ATOM     15  C   UNL     1       7.408   5.075  15.147  0.00  0.00    +0.000 C 
BRANCH  15  16
ATOM     16  C   UNL     1       6.731   4.413  13.951  0.00  0.00    +0.000 C 
BRANCH  16  17
ATOM     17  C   UNL     1       7.435   4.804  12.675  0.00  0.00    +0.000 C 
ATOM     18  O   UNL     1       7.265   4.238  11.603  0.00  0.00    +0.000 OA
BRANCH  17  19
ATOM     19  O   UNL     1       8.286   5.838  12.822  0.00  0.00    +0.000 OA
ATOM     20  H   UNL     1       9.201   5.579  13.051  0.00  0.00    +0.000 HD
ENDBRANCH  17  19
ENDBRANCH  16  17
ENDBRANCH  15  16
ENDBRANCH  12  15
ENDBRANCH   2  11
BRANCH   1  22
ATOM     21  N   UNL     1       3.426   7.447  17.705  0.00  0.00    +0.000 NA
ATOM     22  C   UNL     1       3.540   6.302  17.885  0.00  0.00    +0.000 C 
ENDBRANCH   1  22
TORSDOF 6
ENDMDL
MODEL 6
REMARK VINA RESULT:      -6.7      3.018      4.635
REMARK  Name = 
REMARK  6 active torsions:
REMARK  status: ('A' for Active; 'I' for Inactive)
REMARK    1  A    between atoms: C_2  and  C_3
REMARK    2  A    between atoms: C_4  and  N_5
REMARK    3  A    between atoms: C_6  and  C_8
REMARK    4  A    between atoms: C_8  and  C_9
REMARK    5  A    between atoms: C_9  and  C_10
REMARK    6  A    between atoms: C_10  and  O_12
REMARK                            x       y       z     vdW  Elec       q    Type
REMARK                         _______ _______ _______ _____ _____    ______ ____
ROOT
ATOM      1  C   UNL     1       2.166   6.740  19.559  0.00  0.00    +0.000 A 
ATOM      2  C   UNL     1       2.799   6.788  18.298  0.00  0.00    +0.000 A 
ATOM      3  C   UNL     1       2.808   8.007  17.605  0.00  0.00    +0.000 A 
ATOM      4  C   UNL     1       2.171   9.140  18.121  0.00  0.00    +0.000 A 
ATOM      5  C   UNL     1       1.490   9.088  19.342  0.00  0.00    +0.000 A 
ATOM      6  C   UNL     1       0.849  10.232  19.852  0.00  0.00    +0.000 A 
ATOM      7  C   UNL     1       0.163  10.192  21.067  0.00  0.00    +0.000 A 
ATOM      8  C   UNL     1       0.101   9.006  21.784  0.00  0.00    +0.000 A 
ATOM      9  C   UNL     1       0.742   7.869  21.293  0.00  0.00    +0.000 A 
ATOM     10  C   UNL     1       1.464   7.877  20.072  0.00  0.00    +0.000 A 
ENDROOT
BRANCH   2  11
ATOM     11  N   UNL     1       3.462   5.717  17.636  0.00  0.00    +0.000 N 
ATOM     12  C   UNL     1       4.747   5.268  17.871  0.00  0.00    +0.000 C 
ATOM     13  O   UNL     1       5.502   5.667  18.752  0.00  0.00    +0.000 OA
ATOM     14  H   UNL     1       2.850   5.031  17.191  0.00  0.00    +0.000 HD
BRANCH  12  15
ATOM     15  C   UNL     1       5.132   4.048  17.060  0.00  0.00    +0.000 C 
BRANCH  15  16
ATOM     16  C   UNL     1       5.607   4.531  15.693  0.00  0.00    +0.000 C 
BRANCH  16  17
ATOM     17  C   UNL     1       7.101   4.745  15.709  0.00  0.00    +0.000 C 
ATOM     18  O   UNL     1       7.830   4.381  16.623  0.00  0.00    +0.000 OA
BRANCH  17  19
ATOM     19  O   UNL     1       7.567   5.390  14.622  0.00  0.00    +0.000 OA
ATOM     20  H   UNL     1       6.895   5.557  13.932  0.00  0.00    +0.000 HD
ENDBRANCH  17  19
ENDBRANCH  16  17
ENDBRANCH  15  16
ENDBRANCH  12  15
ENDBRANCH   2  11
BRANCH   1  22
ATOM     21  N   UNL     1       2.473   4.651  21.075  0.00  0.00    +0.000 NA
ATOM     22  C   UNL     1       2.321   5.623  20.451  0.00  0.00    +0.000 C 
ENDBRANCH   1  22
TORSDOF 6
ENDMDL
MODEL 7
REMARK VINA RESULT:      -6.7      3.498      6.633
REMARK  Name = 
REMARK  6 active torsions:
REMARK  status: ('A' for Active; 'I' for Inactive)
REMARK    1  A    between atoms: C_2  and  C_3
REMARK    2  A    between atoms: C_4  and  N_5
REMARK    3  A    between atoms: C_6  and  C_8
REMARK    4  A    between atoms: C_8  and  C_9
REMARK    5  A    between atoms: C_9  and  C_10
REMARK    6  A    between atoms: C_10  and  O_12
REMARK                            x       y       z     vdW  Elec       q    Type
REMARK                         _______ _______ _______ _____ _____    ______ ____
ROOT
ATOM      1  C   UNL     1       4.490   4.050  17.330  0.00  0.00    +0.000 A 
ATOM      2  C   UNL     1       4.832   4.359  18.663  0.00  0.00    +0.000 A 
ATOM      3  C   UNL     1       6.065   4.983  18.906  0.00  0.00    +0.000 A 
ATOM      4  C   UNL     1       6.958   5.254  17.865  0.00  0.00    +0.000 A 
ATOM      5  C   UNL     1       6.654   4.898  16.546  0.00  0.00    +0.000 A 
ATOM      6  C   UNL     1       7.559   5.172  15.504  0.00  0.00    +0.000 A 
ATOM      7  C   UNL     1       7.270   4.818  14.186  0.00  0.00    +0.000 A 
ATOM      8  C   UNL     1       6.076   4.177  13.892  0.00  0.00    +0.000 A 
ATOM      9  C   UNL     1       5.166   3.911  14.914  0.00  0.00    +0.000 A 
ATOM     10  C   UNL     1       5.418   4.272  16.263  0.00  0.00    +0.000 A 
ENDROOT
BRANCH   2  11
ATOM     11  N   UNL     1       4.044   4.120  19.824  0.00  0.00    +0.000 N 
ATOM     12  C   UNL     1       2.960   4.861  20.253  0.00  0.00    +0.000 C 
ATOM     13  O   UNL     1       2.446   5.802  19.658  0.00  0.00    +0.000 OA
ATOM     14  H   UNL     1       4.071   3.165  20.183  0.00  0.00    +0.000 HD
BRANCH  12  15
ATOM     15  C   UNL     1       2.275   4.297  21.482  0.00  0.00    +0.000 C 
BRANCH  15  16
ATOM     16  C   UNL     1       2.200   2.782  21.316  0.00  0.00    +0.000 C 
BRANCH  16  17
ATOM     17  C   UNL     1       1.429   2.436  20.065  0.00  0.00    +0.000 C 
ATOM     18  O   UNL     1       0.337   2.915  19.785  0.00  0.00    +0.000 OA
BRANCH  17  19
ATOM     19  O   UNL     1       2.049   1.534  19.279  0.00  0.00    +0.000 OA
ATOM     20  H   UNL     1       1.935   1.688  18.320  0.00  0.00    +0.000 HD
ENDBRANCH  17  19
ENDBRANCH  16  17
ENDBRANCH  15  16
ENDBRANCH  12  15
ENDBRANCH   2  11
BRANCH   1  22
ATOM     21  N   UNL     1       2.094   3.239  16.736  0.00  0.00    +0.000 NA
ATOM     22  C   UNL     1       3.162   3.650  16.954  0.00  0.00    +0.000 C 
ENDBRANCH   1  22
TORSDOF 6
ENDMDL
MODEL 8
REMARK VINA RESULT:      -6.7      3.897      5.417
REMARK  Name = 
REMARK  6 active torsions:
REMARK  status: ('A' for Active; 'I' for Inactive)
REMARK    1  A    between atoms: C_2  and  C_3
REMARK    2  A    between atoms: C_4  and  N_5
REMARK    3  A    between atoms: C_6  and  C_8
REMARK    4  A    between atoms: C_8  and  C_9
REMARK    5  A    between atoms: C_9  and  C_10
REMARK    6  A    between atoms: C_10  and  O_12
REMARK                            x       y       z     vdW  Elec       q    Type
REMARK                         _______ _______ _______ _____ _____    ______ ____
ROOT
ATOM      1  C   UNL     1       4.220   6.368  17.541  0.00  0.00    +0.000 A 
ATOM      2  C   UNL     1       5.581   6.411  17.171  0.00  0.00    +0.000 A 
ATOM      3  C   UNL     1       6.205   5.213  16.796  0.00  0.00    +0.000 A 
ATOM      4  C   UNL     1       5.518   3.995  16.828  0.00  0.00    +0.000 A 
ATOM      5  C   UNL     1       4.185   3.933  17.251  0.00  0.00    +0.000 A 
ATOM      6  C   UNL     1       3.502   2.704  17.283  0.00  0.00    +0.000 A 
ATOM      7  C   UNL     1       2.175   2.628  17.706  0.00  0.00    +0.000 A 
ATOM      8  C   UNL     1       1.515   3.779  18.112  0.00  0.00    +0.000 A 
ATOM      9  C   UNL     1       2.178   5.004  18.073  0.00  0.00    +0.000 A 
ATOM     10  C   UNL     1       3.522   5.122  17.632  0.00  0.00    +0.000 A 
ENDROOT
BRANCH   2  11
ATOM     11  N   UNL     1       6.415   7.563  17.116  0.00  0.00    +0.000 N 
ATOM     12  C   UNL     1       7.554   7.794  17.862  0.00  0.00    +0.000 C 
ATOM     13  O   UNL     1       8.084   7.004  18.636  0.00  0.00    +0.000 OA
ATOM     14  H   UNL     1       6.358   8.104  16.253  0.00  0.00    +0.000 HD
BRANCH  12  15
ATOM     15  C   UNL     1       8.272   9.081  17.508  0.00  0.00    +0.000 C 
BRANCH  15  16
ATOM     16  C   UNL     1       8.892   9.633  18.787  0.00  0.00    +0.000 C 
BRANCH  16  17
ATOM     17  C   UNL     1       9.519  10.980  18.519  0.00  0.00    +0.000 C 
ATOM     18  O   UNL     1      10.316  11.191  17.613  0.00  0.00    +0.000 OA
BRANCH  17  19
ATOM     19  O   UNL     1       9.130  11.939  19.381  0.00  0.00    +0.000 OA
ATOM     20  H   UNL     1       9.615  12.784  19.293  0.00  0.00    +0.000 HD
ENDBRANCH  17  19
ENDBRANCH  16  17
ENDBRANCH  15  16
ENDBRANCH  12  15
ENDBRANCH   2  11
BRANCH   1  22
ATOM     21  N   UNL     1       2.719   8.461  17.889  0.00  0.00    +0.000 NA
ATOM     22  C   UNL     1       3.431   7.560  17.693  0.00  0.00    +0.000 C 
ENDBRANCH   1  22
TORSDOF 6
ENDMDL
MODEL 9
REMARK VINA RESULT:      -6.6      3.110      4.940
REMARK  Name = 
REMARK  6 active torsions:
REMARK  status: ('A' for Active; 'I' for Inactive)
REMARK    1  A    between atoms: C_2  and  C_3
REMARK    2  A    between atoms: C_4  and  N_5
REMARK    3  A    between atoms: C_6  and  C_8
REMARK    4  A    between atoms: C_8  and  C_9
REMARK    5  A    between atoms: C_9  and  C_10
REMARK    6  A    between atoms: C_10  and  O_12
REMARK                            x       y       z     vdW  Elec       q    Type
REMARK                         _______ _______ _______ _____ _____    ______ ____
ROOT
ATOM      1  C   UNL     1       2.229   6.713  19.689  0.00  0.00    +0.000 A 
ATOM      2  C   UNL     1       2.970   6.768  18.489  0.00  0.00    +0.000 A 
ATOM      3  C   UNL     1       2.968   7.967  17.762  0.00  0.00    +0.000 A 
ATOM      4  C   UNL     1       2.218   9.069  18.182  0.00  0.00    +0.000 A 
ATOM      5  C   UNL     1       1.432   9.006  19.338  0.00  0.00    +0.000 A 
ATOM      6  C   UNL     1       0.678  10.119  19.752  0.00  0.00    +0.000 A 
ATOM      7  C   UNL     1      -0.113  10.067  20.901  0.00  0.00    +0.000 A 
ATOM      8  C   UNL     1      -0.167   8.898  21.646  0.00  0.00    +0.000 A 
ATOM      9  C   UNL     1       0.585   7.793  21.252  0.00  0.00    +0.000 A 
ATOM     10  C   UNL     1       1.414   7.815  20.100  0.00  0.00    +0.000 A 
ENDROOT
BRANCH   2  11
ATOM     11  N   UNL     1       3.755   5.725  17.923  0.00  0.00    +0.000 N 
ATOM     12  C   UNL     1       3.301   4.501  17.472  0.00  0.00    +0.000 C 
ATOM     13  O   UNL     1       2.130   4.143  17.408  0.00  0.00    +0.000 OA
ATOM     14  H   UNL     1       4.650   6.016  17.526  0.00  0.00    +0.000 HD
BRANCH  12  15
ATOM     15  C   UNL     1       4.376   3.640  16.838  0.00  0.00    +0.000 C 
BRANCH  15  16
ATOM     16  C   UNL     1       5.423   4.573  16.237  0.00  0.00    +0.000 C 
BRANCH  16  17
ATOM     17  C   UNL     1       6.741   4.400  16.951  0.00  0.00    +0.000 C 
ATOM     18  O   UNL     1       7.831   4.488  16.399  0.00  0.00    +0.000 OA
BRANCH  17  19
ATOM     19  O   UNL     1       6.614   4.125  18.264  0.00  0.00    +0.000 OA
ATOM     20  H   UNL     1       6.912   4.843  18.858  0.00  0.00    +0.000 HD
ENDBRANCH  17  19
ENDBRANCH  16  17
ENDBRANCH  15  16
ENDBRANCH  12  15
ENDBRANCH   2  11
BRANCH   1  22
ATOM     21  N   UNL     1       2.406   4.693  21.315  0.00  0.00    +0.000 NA
ATOM     22  C   UNL     1       2.370   5.632  20.626  0.00  0.00    +0.000 C 
ENDBRANCH   1  22
TORSDOF 6
ENDMDL
