MODEL 1
REMARK VINA RESULT:      -6.6      0.000      0.000
REMARK  Name = 
REMARK  4 active torsions:
REMARK  status: ('A' for Active; 'I' for Inactive)
REMARK    1  A    between atoms: C_1  and  C_2
REMARK    2  A    between atoms: N_12  and  S_13
REMARK    3  A    between atoms: S_13  and  C_16
REMARK    4  A    between atoms: C_25  and  C_26
REMARK                            x       y       z     vdW  Elec       q    Type
REMARK                         _______ _______ _______ _____ _____    ______ ____
ROOT
ATOM      1  C   UNL     1       5.149   4.183  15.857  0.00  0.00    +0.000 C 
ATOM      2  C   UNL     1       4.212   4.475  16.988  0.00  0.00    +0.000 A 
ATOM      3  S   UNL     1       3.372   3.190  17.702  0.00  0.00    +0.000 S 
ATOM      4  C   UNL     1       2.621   4.220  18.815  0.00  0.00    +0.000 A 
ATOM      5  N   UNL     1       1.821   3.647  19.725  0.00  0.00    +0.000 NA
ATOM      6  C   UNL     1       1.297   4.518  20.562  0.00  0.00    +0.000 A 
ATOM      7  N   UNL     1       1.469   5.834  20.534  0.00  0.00    +0.000 NA
ATOM      8  C   UNL     1       2.231   6.438  19.571  0.00  0.00    +0.000 A 
ATOM      9  N   UNL     1       2.281   7.866  19.640  0.00  0.00    +0.000 N 
ATOM     10  C   UNL     1       1.450   8.338  20.801  0.00  0.00    +0.000 C 
ATOM     11  C   UNL     1       1.397   9.865  20.911  0.00  0.00    +0.000 C 
ATOM     12  N   UNL     1       0.949  10.512  19.640  0.00  0.00    +0.000 NA
ATOM     13  C   UNL     1       1.860  10.062  18.533  0.00  0.00    +0.000 C 
ATOM     14  C   UNL     1       1.864   8.520  18.374  0.00  0.00    +0.000 C 
ATOM     15  C   UNL     1       2.923   5.574  18.656  0.00  0.00    +0.000 A 
ATOM     16  C   UNL     1       3.930   5.706  17.588  0.00  0.00    +0.000 A 
ATOM     17  C   UNL     1       4.653   6.928  17.112  0.00  0.00    +0.000 C 
ENDROOT
BRANCH  12  18
ATOM     18  S   UNL     1      -0.710  10.420  19.228  0.00  0.00    +0.000 S 
ATOM     19  O   UNL     1      -0.794  10.391  17.783  0.00  0.00    +0.000 OA
ATOM     20  O   UNL     1      -1.326   9.374  20.014  0.00  0.00    +0.000 OA
BRANCH  18  21
ATOM     21  C   UNL     1      -1.372  11.962  19.787  0.00  0.00    +0.000 A 
ATOM     22  C   UNL     1      -0.503  13.017  20.065  0.00  0.00    +0.000 A 
ATOM     23  C   UNL     1      -1.027  14.218  20.542  0.00  0.00    +0.000 A 
ATOM     24  C   UNL     1      -2.404  14.359  20.728  0.00  0.00    +0.000 A 
ATOM     25  C   UNL     1      -3.268  13.304  20.433  0.00  0.00    +0.000 A 
ATOM     26  C   UNL     1      -2.755  12.102  19.958  0.00  0.00    +0.000 A 
ENDBRANCH  18  21
ENDBRANCH  12  18
TORSDOF 2
ENDMDL
MODEL 2
REMARK VINA RESULT:      -6.4      2.218      3.232
REMARK  Name = 
REMARK  4 active torsions:
REMARK  status: ('A' for Active; 'I' for Inactive)
REMARK    1  A    between atoms: C_1  and  C_2
REMARK    2  A    between atoms: N_12  and  S_13
REMARK    3  A    between atoms: S_13  and  C_16
REMARK    4  A    between atoms: C_25  and  C_26
REMARK                            x       y       z     vdW  Elec       q    Type
REMARK                         _______ _______ _______ _____ _____    ______ ____
ROOT
ATOM      1  C   UNL     1       3.350   2.523  20.618  0.00  0.00    +0.000 C 
ATOM      2  C   UNL     1       3.455   3.821  19.882  0.00  0.00    +0.000 A 
ATOM      3  S   UNL     1       4.863   4.144  18.998  0.00  0.00    +0.000 S 
ATOM      4  C   UNL     1       4.265   5.638  18.474  0.00  0.00    +0.000 A 
ATOM      5  N   UNL     1       5.038   6.337  17.631  0.00  0.00    +0.000 NA
ATOM      6  C   UNL     1       4.487   7.473  17.260  0.00  0.00    +0.000 A 
ATOM      7  N   UNL     1       3.318   7.949  17.671  0.00  0.00    +0.000 NA
ATOM      8  C   UNL     1       2.548   7.276  18.582  0.00  0.00    +0.000 A 
ATOM      9  N   UNL     1       1.342   7.939  18.968  0.00  0.00    +0.000 N 
ATOM     10  C   UNL     1       1.237   9.249  18.237  0.00  0.00    +0.000 C 
ATOM     11  C   UNL     1      -0.001  10.056  18.640  0.00  0.00    +0.000 C 
ATOM     12  N   UNL     1      -0.089  10.263  20.118  0.00  0.00    +0.000 NA
ATOM     13  C   UNL     1      -0.055   8.919  20.788  0.00  0.00    +0.000 C 
ATOM     14  C   UNL     1       1.230   8.126  20.436  0.00  0.00    +0.000 C 
ATOM     15  C   UNL     1       3.013   5.980  18.990  0.00  0.00    +0.000 A 
ATOM     16  C   UNL     1       2.512   4.848  19.790  0.00  0.00    +0.000 A 
ATOM     17  C   UNL     1       1.184   4.676  20.460  0.00  0.00    +0.000 C 
ENDROOT
BRANCH  12  18
ATOM     18  S   UNL     1       0.967  11.403  20.837  0.00  0.00    +0.000 S 
ATOM     19  O   UNL     1       1.816  10.680  21.760  0.00  0.00    +0.000 OA
ATOM     20  O   UNL     1       1.551  12.217  19.796  0.00  0.00    +0.000 OA
BRANCH  18  21
ATOM     21  C   UNL     1      -0.110  12.442  21.781  0.00  0.00    +0.000 A 
ATOM     22  C   UNL     1       0.134  13.815  21.827  0.00  0.00    +0.000 A 
ATOM     23  C   UNL     1      -0.694  14.624  22.603  0.00  0.00    +0.000 A 
ATOM     24  C   UNL     1      -1.758  14.064  23.315  0.00  0.00    +0.000 A 
ATOM     25  C   UNL     1      -2.005  12.692  23.251  0.00  0.00    +0.000 A 
ATOM     26  C   UNL     1      -1.183  11.876  22.480  0.00  0.00    +0.000 A 
ENDBRANCH  18  21
ENDBRANCH  12  18
TORSDOF 2
ENDMDL
MODEL 3
REMARK VINA RESULT:      -6.2      2.205      3.318
REMARK  Name = 
REMARK  4 active torsions:
REMARK  status: ('A' for Active; 'I' for Inactive)
REMARK    1  A    between atoms: C_1  and  C_2
REMARK    2  A    between atoms: N_12  and  S_13
REMARK    3  A    between atoms: S_13  and  C_16
REMARK    4  A    between atoms: C_25  and  C_26
REMARK                            x       y       z     vdW  Elec       q    Type
REMARK                         _______ _______ _______ _____ _____    ______ ____
ROOT
ATOM      1  C   UNL     1       3.662   2.394  20.170  0.00  0.00    +0.000 C 
ATOM      2  C   UNL     1       3.710   3.748  19.535  0.00  0.00    +0.000 A 
ATOM      3  S   UNL     1       5.106   4.202  18.690  0.00  0.00    +0.000 S 
ATOM      4  C   UNL     1       4.441   5.702  18.276  0.00  0.00    +0.000 A 
ATOM      5  N   UNL     1       5.185   6.497  17.494  0.00  0.00    +0.000 NA
ATOM      6  C   UNL     1       4.583   7.632  17.205  0.00  0.00    +0.000 A 
ATOM      7  N   UNL     1       3.391   8.021  17.643  0.00  0.00    +0.000 NA
ATOM      8  C   UNL     1       2.650   7.246  18.493  0.00  0.00    +0.000 A 
ATOM      9  N   UNL     1       1.412   7.822  18.918  0.00  0.00    +0.000 N 
ATOM     10  C   UNL     1       1.250   9.178  18.288  0.00  0.00    +0.000 C 
ATOM     11  C   UNL     1      -0.026   9.894  18.741  0.00  0.00    +0.000 C 
ATOM     12  N   UNL     1      -0.131   9.984  20.230  0.00  0.00    +0.000 NA
ATOM     13  C   UNL     1      -0.037   8.595  20.796  0.00  0.00    +0.000 C 
ATOM     14  C   UNL     1       1.285   7.892  20.395  0.00  0.00    +0.000 C 
ATOM     15  C   UNL     1       3.172   5.946  18.805  0.00  0.00    +0.000 A 
ATOM     16  C   UNL     1       2.721   4.735  19.513  0.00  0.00    +0.000 A 
ATOM     17  C   UNL     1       1.399   4.451  20.158  0.00  0.00    +0.000 C 
ENDROOT
BRANCH  12  18
ATOM     18  S   UNL     1       0.868  11.113  21.042  0.00  0.00    +0.000 S 
ATOM     19  O   UNL     1       1.672  10.371  21.991  0.00  0.00    +0.000 OA
ATOM     20  O   UNL     1       1.501  11.964  20.060  0.00  0.00    +0.000 OA
BRANCH  18  21
ATOM     21  C   UNL     1      -0.274  12.112  21.951  0.00  0.00    +0.000 A 
ATOM     22  C   UNL     1      -1.334  11.500  22.621  0.00  0.00    +0.000 A 
ATOM     23  C   UNL     1      -2.252  12.295  23.304  0.00  0.00    +0.000 A 
ATOM     24  C   UNL     1      -2.104  13.685  23.321  0.00  0.00    +0.000 A 
ATOM     25  C   UNL     1      -1.032  14.288  22.662  0.00  0.00    +0.000 A 
ATOM     26  C   UNL     1      -0.111  13.503  21.977  0.00  0.00    +0.000 A 
ENDBRANCH  18  21
ENDBRANCH  12  18
TORSDOF 2
ENDMDL
MODEL 4
REMARK VINA RESULT:      -6.2      2.120      3.176
REMARK  Name = 
REMARK  4 active torsions:
REMARK  status: ('A' for Active; 'I' for Inactive)
REMARK    1  A    between atoms: C_1  and  C_2
REMARK    2  A    between atoms: N_12  and  S_13
REMARK    3  A    between atoms: S_13  and  C_16
REMARK    4  A    between atoms: C_25  and  C_26
REMARK                            x       y       z     vdW  Elec       q    Type
REMARK                         _______ _______ _______ _____ _____    ______ ____
ROOT
ATOM      1  C   UNL     1       3.204   2.727  20.905  0.00  0.00    +0.000 C 
ATOM      2  C   UNL     1       3.343   3.953  20.057  0.00  0.00    +0.000 A 
ATOM      3  S   UNL     1       4.756   4.156  19.146  0.00  0.00    +0.000 S 
ATOM      4  C   UNL     1       4.199   5.615  18.494  0.00  0.00    +0.000 A 
ATOM      5  N   UNL     1       4.988   6.214  17.592  0.00  0.00    +0.000 NA
ATOM      6  C   UNL     1       4.468   7.329  17.123  0.00  0.00    +0.000 A 
ATOM      7  N   UNL     1       3.315   7.874  17.494  0.00  0.00    +0.000 NA
ATOM      8  C   UNL     1       2.530   7.306  18.461  0.00  0.00    +0.000 A 
ATOM      9  N   UNL     1       1.345   8.034  18.789  0.00  0.00    +0.000 N 
ATOM     10  C   UNL     1       1.275   9.278  17.947  0.00  0.00    +0.000 C 
ATOM     11  C   UNL     1       0.062  10.153  18.280  0.00  0.00    +0.000 C 
ATOM     12  N   UNL     1      -0.014  10.491  19.734  0.00  0.00    +0.000 NA
ATOM     13  C   UNL     1      -0.015   9.210  20.519  0.00  0.00    +0.000 C 
ATOM     14  C   UNL     1       1.245   8.353  20.235  0.00  0.00    +0.000 C 
ATOM     15  C   UNL     1       2.960   6.037  18.980  0.00  0.00    +0.000 A 
ATOM     16  C   UNL     1       2.429   4.995  19.877  0.00  0.00    +0.000 A 
ATOM     17  C   UNL     1       1.100   4.921  20.562  0.00  0.00    +0.000 C 
ENDROOT
BRANCH  12  18
ATOM     18  S   UNL     1       1.078  11.658  20.349  0.00  0.00    +0.000 S 
ATOM     19  O   UNL     1       1.598  11.144  21.598  0.00  0.00    +0.000 OA
ATOM     20  O   UNL     1       1.981  12.052  19.291  0.00  0.00    +0.000 OA
BRANCH  18  21
ATOM     21  C   UNL     1       0.049  13.050  20.713  0.00  0.00    +0.000 A 
ATOM     22  C   UNL     1      -0.114  14.048  19.752  0.00  0.00    +0.000 A 
ATOM     23  C   UNL     1      -0.895  15.162  20.059  0.00  0.00    +0.000 A 
ATOM     24  C   UNL     1      -1.509  15.267  21.309  0.00  0.00    +0.000 A 
ATOM     25  C   UNL     1      -1.354  14.257  22.259  0.00  0.00    +0.000 A 
ATOM     26  C   UNL     1      -0.576  13.143  21.963  0.00  0.00    +0.000 A 
ENDBRANCH  18  21
ENDBRANCH  12  18
TORSDOF 2
ENDMDL
MODEL 5
REMARK VINA RESULT:      -6.2      3.804      5.941
REMARK  Name = 
REMARK  4 active torsions:
REMARK  status: ('A' for Active; 'I' for Inactive)
REMARK    1  A    between atoms: C_1  and  C_2
REMARK    2  A    between atoms: N_12  and  S_13
REMARK    3  A    between atoms: S_13  and  C_16
REMARK    4  A    between atoms: C_25  and  C_26
REMARK                            x       y       z     vdW  Elec       q    Type
REMARK                         _______ _______ _______ _____ _____    ______ ____
ROOT
ATOM      1  C   UNL     1       1.884   9.197  17.757  0.00  0.00    +0.000 C 
ATOM      2  C   UNL     1       1.323   9.474  19.116  0.00  0.00    +0.000 A 
ATOM      3  S   UNL     1       1.422   8.265  20.299  0.00  0.00    +0.000 S 
ATOM      4  C   UNL     1       0.679   9.252  21.456  0.00  0.00    +0.000 A 
ATOM      5  N   UNL     1       0.553   8.745  22.691  0.00  0.00    +0.000 NA
ATOM      6  C   UNL     1      -0.016   9.586  23.529  0.00  0.00    +0.000 A 
ATOM      7  N   UNL     1      -0.472  10.798  23.235  0.00  0.00    +0.000 NA
ATOM      8  C   UNL     1      -0.408  11.302  21.964  0.00  0.00    +0.000 A 
ATOM      9  N   UNL     1      -0.987  12.598  21.792  0.00  0.00    +0.000 N 
ATOM     10  C   UNL     1      -1.530  13.080  23.109  0.00  0.00    +0.000 C 
ATOM     11  C   UNL     1      -2.227  14.440  23.002  0.00  0.00    +0.000 C 
ATOM     12  N   UNL     1      -3.290  14.454  21.951  0.00  0.00    +0.000 NA
ATOM     13  C   UNL     1      -2.673  14.037  20.647  0.00  0.00    +0.000 C 
ATOM     14  C   UNL     1      -2.025  12.630  20.733  0.00  0.00    +0.000 C 
ATOM     15  C   UNL     1       0.273  10.502  20.985  0.00  0.00    +0.000 A 
ATOM     16  C   UNL     1       0.722  10.644  19.589  0.00  0.00    +0.000 A 
ATOM     17  C   UNL     1       0.629  11.829  18.678  0.00  0.00    +0.000 C 
ENDROOT
BRANCH  12  18
ATOM     18  S   UNL     1      -4.766  13.653  22.286  0.00  0.00    +0.000 S 
ATOM     19  O   UNL     1      -4.440  12.295  22.673  0.00  0.00    +0.000 OA
ATOM     20  O   UNL     1      -5.560  14.487  23.160  0.00  0.00    +0.000 OA
BRANCH  18  21
ATOM     21  C   UNL     1      -5.584  13.597  20.719  0.00  0.00    +0.000 A 
ATOM     22  C   UNL     1      -5.734  12.371  20.071  0.00  0.00    +0.000 A 
ATOM     23  C   UNL     1      -6.345  12.338  18.818  0.00  0.00    +0.000 A 
ATOM     24  C   UNL     1      -6.806  13.519  18.229  0.00  0.00    +0.000 A 
ATOM     25  C   UNL     1      -6.665  14.739  18.891  0.00  0.00    +0.000 A 
ATOM     26  C   UNL     1      -6.056  14.782  20.141  0.00  0.00    +0.000 A 
ENDBRANCH  18  21
ENDBRANCH  12  18
TORSDOF 2
ENDMDL
MODEL 6
REMARK VINA RESULT:      -6.1      2.842      8.095
REMARK  Name = 
REMARK  4 active torsions:
REMARK  status: ('A' for Active; 'I' for Inactive)
REMARK    1  A    between atoms: C_1  and  C_2
REMARK    2  A    between atoms: N_12  and  S_13
REMARK    3  A    between atoms: S_13  and  C_16
REMARK    4  A    between atoms: C_25  and  C_26
REMARK                            x       y       z     vdW  Elec       q    Type
REMARK                         _______ _______ _______ _____ _____    ______ ____
ROOT
ATOM      1  C   UNL     1      -0.106  12.533  18.119  0.00  0.00    +0.000 C 
ATOM      2  C   UNL     1       0.317  11.486  19.101  0.00  0.00    +0.000 A 
ATOM      3  S   UNL     1       0.613  11.946  20.704  0.00  0.00    +0.000 S 
ATOM      4  C   UNL     1       0.974  10.356  21.157  0.00  0.00    +0.000 A 
ATOM      5  N   UNL     1       1.249  10.145  22.453  0.00  0.00    +0.000 NA
ATOM      6  C   UNL     1       1.497   8.880  22.719  0.00  0.00    +0.000 A 
ATOM      7  N   UNL     1       1.528   7.884  21.840  0.00  0.00    +0.000 NA
ATOM      8  C   UNL     1       1.313   8.097  20.505  0.00  0.00    +0.000 A 
ATOM      9  N   UNL     1       1.429   6.938  19.677  0.00  0.00    +0.000 N 
ATOM     10  C   UNL     1       1.769   5.747  20.531  0.00  0.00    +0.000 C 
ATOM     11  C   UNL     1       1.974   4.469  19.712  0.00  0.00    +0.000 C 
ATOM     12  N   UNL     1       2.984   4.647  18.624  0.00  0.00    +0.000 NA
ATOM     13  C   UNL     1       2.554   5.800  17.762  0.00  0.00    +0.000 C 
ATOM     14  C   UNL     1       2.410   7.112  18.576  0.00  0.00    +0.000 C 
ATOM     15  C   UNL     1       0.946   9.429  20.114  0.00  0.00    +0.000 A 
ATOM     16  C   UNL     1       0.490  10.115  18.892  0.00  0.00    +0.000 A 
ATOM     17  C   UNL     1       0.194   9.545  17.539  0.00  0.00    +0.000 C 
ENDROOT
BRANCH  12  18
ATOM     18  S   UNL     1       4.638   4.710  19.060  0.00  0.00    +0.000 S 
ATOM     19  O   UNL     1       4.852   5.963  19.755  0.00  0.00    +0.000 OA
ATOM     20  O   UNL     1       5.002   3.459  19.686  0.00  0.00    +0.000 OA
BRANCH  18  21
ATOM     21  C   UNL     1       5.483   4.791  17.508  0.00  0.00    +0.000 A 
ATOM     22  C   UNL     1       5.188   3.853  16.520  0.00  0.00    +0.000 A 
ATOM     23  C   UNL     1       5.884   3.898  15.314  0.00  0.00    +0.000 A 
ATOM     24  C   UNL     1       6.858   4.876  15.100  0.00  0.00    +0.000 A 
ATOM     25  C   UNL     1       7.137   5.822  16.087  0.00  0.00    +0.000 A 
ATOM     26  C   UNL     1       6.448   5.784  17.295  0.00  0.00    +0.000 A 
ENDBRANCH  18  21
ENDBRANCH  12  18
TORSDOF 2
ENDMDL
MODEL 7
REMARK VINA RESULT:      -6.1      3.439      9.215
REMARK  Name = 
REMARK  4 active torsions:
REMARK  status: ('A' for Active; 'I' for Inactive)
REMARK    1  A    between atoms: C_1  and  C_2
REMARK    2  A    between atoms: N_12  and  S_13
REMARK    3  A    between atoms: S_13  and  C_16
REMARK    4  A    between atoms: C_25  and  C_26
REMARK                            x       y       z     vdW  Elec       q    Type
REMARK                         _______ _______ _______ _____ _____    ______ ____
ROOT
ATOM      1  C   UNL     1      -0.361  17.461  24.936  0.00  0.00    +0.000 C 
ATOM      2  C   UNL     1      -1.070  16.220  24.495  0.00  0.00    +0.000 A 
ATOM      3  S   UNL     1      -2.397  15.676  25.397  0.00  0.00    +0.000 S 
ATOM      4  C   UNL     1      -2.654  14.374  24.347  0.00  0.00    +0.000 A 
ATOM      5  N   UNL     1      -3.711  13.589  24.605  0.00  0.00    +0.000 NA
ATOM      6  C   UNL     1      -3.847  12.617  23.728  0.00  0.00    +0.000 A 
ATOM      7  N   UNL     1      -3.037  12.362  22.706  0.00  0.00    +0.000 NA
ATOM      8  C   UNL     1      -1.920  13.116  22.470  0.00  0.00    +0.000 A 
ATOM      9  N   UNL     1      -1.119  12.690  21.365  0.00  0.00    +0.000 N 
ATOM     10  C   UNL     1      -1.748  11.479  20.732  0.00  0.00    +0.000 C 
ATOM     11  C   UNL     1      -0.919  10.917  19.573  0.00  0.00    +0.000 C 
ATOM     12  N   UNL     1       0.494  10.635  19.970  0.00  0.00    +0.000 NA
ATOM     13  C   UNL     1       1.092  11.896  20.525  0.00  0.00    +0.000 C 
ATOM     14  C   UNL     1       0.293  12.432  21.741  0.00  0.00    +0.000 C 
ATOM     15  C   UNL     1      -1.720  14.260  23.315  0.00  0.00    +0.000 A 
ATOM     16  C   UNL     1      -0.807  15.415  23.383  0.00  0.00    +0.000 A 
ATOM     17  C   UNL     1       0.293  15.809  22.446  0.00  0.00    +0.000 C 
ENDROOT
BRANCH  12  18
ATOM     18  S   UNL     1       0.800   9.258  20.941  0.00  0.00    +0.000 S 
ATOM     19  O   UNL     1       1.706   9.668  21.995  0.00  0.00    +0.000 OA
ATOM     20  O   UNL     1      -0.460   8.631  21.268  0.00  0.00    +0.000 OA
BRANCH  18  21
ATOM     21  C   UNL     1       1.673   8.162  19.861  0.00  0.00    +0.000 A 
ATOM     22  C   UNL     1       1.998   6.881  20.306  0.00  0.00    +0.000 A 
ATOM     23  C   UNL     1       2.720   6.035  19.466  0.00  0.00    +0.000 A 
ATOM     24  C   UNL     1       3.101   6.467  18.193  0.00  0.00    +0.000 A 
ATOM     25  C   UNL     1       2.759   7.744  17.749  0.00  0.00    +0.000 A 
ATOM     26  C   UNL     1       2.040   8.596  18.581  0.00  0.00    +0.000 A 
ENDBRANCH  18  21
ENDBRANCH  12  18
TORSDOF 2
ENDMDL
MODEL 8
REMARK VINA RESULT:      -6.0      3.648      9.882
REMARK  Name = 
REMARK  4 active torsions:
REMARK  status: ('A' for Active; 'I' for Inactive)
REMARK    1  A    between atoms: C_1  and  C_2
REMARK    2  A    between atoms: N_12  and  S_13
REMARK    3  A    between atoms: S_13  and  C_16
REMARK    4  A    between atoms: C_25  and  C_26
REMARK                            x       y       z     vdW  Elec       q    Type
REMARK                         _______ _______ _______ _____ _____    ______ ____
ROOT
ATOM      1  C   UNL     1      -7.409  13.489  24.446  0.00  0.00    +0.000 C 
ATOM      2  C   UNL     1      -6.367  14.049  23.530  0.00  0.00    +0.000 A 
ATOM      3  S   UNL     1      -6.788  15.328  22.503  0.00  0.00    +0.000 S 
ATOM      4  C   UNL     1      -5.221  15.418  21.871  0.00  0.00    +0.000 A 
ATOM      5  N   UNL     1      -4.984  16.388  20.977  0.00  0.00    +0.000 NA
ATOM      6  C   UNL     1      -3.738  16.397  20.555  0.00  0.00    +0.000 A 
ATOM      7  N   UNL     1      -2.784  15.541  20.905  0.00  0.00    +0.000 NA
ATOM      8  C   UNL     1      -3.030  14.507  21.768  0.00  0.00    +0.000 A 
ATOM      9  N   UNL     1      -1.919  13.639  22.010  0.00  0.00    +0.000 N 
ATOM     10  C   UNL     1      -0.732  14.117  21.221  0.00  0.00    +0.000 C 
ATOM     11  C   UNL     1       0.489  13.205  21.374  0.00  0.00    +0.000 C 
ATOM     12  N   UNL     1       0.178  11.779  21.052  0.00  0.00    +0.000 NA
ATOM     13  C   UNL     1      -0.965  11.335  21.921  0.00  0.00    +0.000 C 
ATOM     14  C   UNL     1      -2.225  12.216  21.719  0.00  0.00    +0.000 C 
ATOM     15  C   UNL     1      -4.337  14.453  22.359  0.00  0.00    +0.000 A 
ATOM     16  C   UNL     1      -5.026  13.673  23.402  0.00  0.00    +0.000 A 
ATOM     17  C   UNL     1      -4.485  12.601  24.297  0.00  0.00    +0.000 C 
ENDROOT
BRANCH  12  18
ATOM     18  S   UNL     1      -0.019  11.347  19.406  0.00  0.00    +0.000 S 
ATOM     19  O   UNL     1      -1.414  11.009  19.214  0.00  0.00    +0.000 OA
ATOM     20  O   UNL     1       0.604  12.359  18.583  0.00  0.00    +0.000 OA
BRANCH  18  21
ATOM     21  C   UNL     1       0.934   9.867  19.239  0.00  0.00    +0.000 A 
ATOM     22  C   UNL     1       1.497   9.553  18.003  0.00  0.00    +0.000 A 
ATOM     23  C   UNL     1       2.215   8.366  17.867  0.00  0.00    +0.000 A 
ATOM     24  C   UNL     1       2.371   7.510  18.960  0.00  0.00    +0.000 A 
ATOM     25  C   UNL     1       1.818   7.838  20.198  0.00  0.00    +0.000 A 
ATOM     26  C   UNL     1       1.099   9.020  20.343  0.00  0.00    +0.000 A 
ENDBRANCH  18  21
ENDBRANCH  12  18
TORSDOF 2
ENDMDL
MODEL 9
REMARK VINA RESULT:      -6.0      8.310      8.798
REMARK  Name = 
REMARK  4 active torsions:
REMARK  status: ('A' for Active; 'I' for Inactive)
REMARK    1  A    between atoms: C_1  and  C_2
REMARK    2  A    between atoms: N_12  and  S_13
REMARK    3  A    between atoms: S_13  and  C_16
REMARK    4  A    between atoms: C_25  and  C_26
REMARK                            x       y       z     vdW  Elec       q    Type
REMARK                         _______ _______ _______ _____ _____    ______ ____
ROOT
ATOM      1  C   UNL     1      11.899  12.726  18.080  0.00  0.00    +0.000 C 
ATOM      2  C   UNL     1      10.790  12.976  19.053  0.00  0.00    +0.000 A 
ATOM      3  S   UNL     1      10.634  11.950  20.391  0.00  0.00    +0.000 S 
ATOM      4  C   UNL     1       9.305  12.818  20.978  0.00  0.00    +0.000 A 
ATOM      5  N   UNL     1       8.789  12.414  22.148  0.00  0.00    +0.000 NA
ATOM      6  C   UNL     1       7.774  13.157  22.538  0.00  0.00    +0.000 A 
ATOM      7  N   UNL     1       7.247  14.178  21.872  0.00  0.00    +0.000 NA
ATOM      8  C   UNL     1       7.724  14.559  20.647  0.00  0.00    +0.000 A 
ATOM      9  N   UNL     1       7.022  15.641  20.030  0.00  0.00    +0.000 N 
ATOM     10  C   UNL     1       5.905  16.089  20.932  0.00  0.00    +0.000 C 
ATOM     11  C   UNL     1       5.059  17.209  20.318  0.00  0.00    +0.000 C 
ATOM     12  N   UNL     1       4.537  16.850  18.963  0.00  0.00    +0.000 NA
ATOM     13  C   UNL     1       5.702  16.484  18.088  0.00  0.00    +0.000 C 
ATOM     14  C   UNL     1       6.521  15.306  18.674  0.00  0.00    +0.000 C 
ATOM     15  C   UNL     1       8.888  13.872  20.163  0.00  0.00    +0.000 A 
ATOM     16  C   UNL     1       9.830  13.992  19.036  0.00  0.00    +0.000 A 
ATOM     17  C   UNL     1       9.884  15.023  17.951  0.00  0.00    +0.000 C 
ENDROOT
BRANCH  12  18
ATOM     18  S   UNL     1       3.243  15.733  18.867  0.00  0.00    +0.000 S 
ATOM     19  O   UNL     1       3.635  14.701  17.930  0.00  0.00    +0.000 OA
ATOM     20  O   UNL     1       2.833  15.380  20.208  0.00  0.00    +0.000 OA
BRANCH  18  21
ATOM     21  C   UNL     1       1.929  16.666  18.139  0.00  0.00    +0.000 A 
ATOM     22  C   UNL     1       2.221  17.583  17.129  0.00  0.00    +0.000 A 
ATOM     23  C   UNL     1       1.187  18.344  16.586  0.00  0.00    +0.000 A 
ATOM     24  C   UNL     1      -0.122  18.180  17.045  0.00  0.00    +0.000 A 
ATOM     25  C   UNL     1      -0.409  17.250  18.045  0.00  0.00    +0.000 A 
ATOM     26  C   UNL     1       0.616  16.487  18.594  0.00  0.00    +0.000 A 
ENDBRANCH  18  21
ENDBRANCH  12  18
TORSDOF 2
ENDMDL
