MODEL 1
REMARK VINA RESULT:     -10.3      0.000      0.000
REMARK  Name = 
REMARK  8 active torsions:
REMARK  status: ('A' for Active; 'I' for Inactive)
REMARK    1  A    between atoms: C_1  and  C_2
REMARK    2  A    between atoms: C_2  and  C_3
REMARK    3  A    between atoms: C_2  and  C_4
REMARK    4  A    between atoms: C_8  and  N_9
REMARK    5  A    between atoms: C_11  and  C_12
REMARK    6  A    between atoms: C_17  and  C_18
REMARK    7  A    between atoms: C_18  and  N_19
REMARK    8  A    between atoms: N_22  and  C_23
REMARK                            x       y       z     vdW  Elec       q    Type
REMARK                         _______ _______ _______ _____ _____    ______ ____
ROOT
ATOM      1  C   UNL     1       3.158   6.854  18.084  0.00  0.00    +0.000 C 
ENDROOT
BRANCH   1   2
ATOM      2  N   UNL     1       2.392   7.725  18.954  0.00  0.00    +0.000 N 
ATOM      3  C   UNL     1       1.939   8.885  18.348  0.00  0.00    +0.000 C 
ATOM      4  O   UNL     1       2.207   9.139  17.178  0.00  0.00    +0.000 OA
ATOM      5  N   UNL     1       1.220   9.691  19.210  0.00  0.00    +0.000 N 
ATOM      6  H   UNL     1       1.720   7.292  19.568  0.00  0.00    +0.000 HD
ATOM      7  H   UNL     1       1.509   9.618  20.173  0.00  0.00    +0.000 HD
BRANCH   5   8
ATOM      8  C   UNL     1       0.620  10.922  18.805  0.00  0.00    +0.000 A 
ATOM      9  C   UNL     1       1.320  12.134  18.942  0.00  0.00    +0.000 A 
ATOM     10  C   UNL     1       0.714  13.365  18.689  0.00  0.00    +0.000 A 
ATOM     11  C   UNL     1      -0.628  13.415  18.342  0.00  0.00    +0.000 A 
ATOM     12  C   UNL     1      -1.331  12.224  18.185  0.00  0.00    +0.000 A 
ATOM     13  N   UNL     1      -2.718  12.284  17.982  0.00  0.00    +0.000 N 
ATOM     14  C   UNL     1      -3.507  11.174  17.893  0.00  0.00    +0.000 A 
ATOM     15  O   UNL     1      -4.729  11.217  17.957  0.00  0.00    +0.000 OA
ATOM     16  C   UNL     1      -2.795   9.897  17.660  0.00  0.00    +0.000 A 
ATOM     17  C   UNL     1      -1.478   9.791  17.889  0.00  0.00    +0.000 A 
ATOM     18  C   UNL     1      -0.699  10.966  18.313  0.00  0.00    +0.000 A 
ATOM     19  H   UNL     1      -3.203  13.168  18.078  0.00  0.00    +0.000 HD
ENDBRANCH   5   8
ENDBRANCH   1   2
BRANCH   1  24
ATOM     20  N   UNL     1       3.770   4.412  17.855  0.00  0.00    +0.000 N 
ATOM     21  N   UNL     1       3.202   3.183  18.004  0.00  0.00    +0.000 NA
ATOM     22  C   UNL     1       2.112   3.371  18.766  0.00  0.00    +0.000 A 
ATOM     23  C   UNL     1       1.886   4.753  18.974  0.00  0.00    +0.000 A 
ATOM     24  C   UNL     1       2.921   5.411  18.339  0.00  0.00    +0.000 A 
BRANCH  20  29
ATOM     25  C   UNL     1       6.375   4.658  15.179  0.00  0.00    +0.000 A 
ATOM     26  C   UNL     1       7.540   4.720  15.953  0.00  0.00    +0.000 A 
ATOM     27  C   UNL     1       7.471   4.651  17.341  0.00  0.00    +0.000 A 
ATOM     28  C   UNL     1       6.239   4.543  17.984  0.00  0.00    +0.000 A 
ATOM     29  C   UNL     1       5.057   4.507  17.238  0.00  0.00    +0.000 A 
ATOM     30  C   UNL     1       5.139   4.526  15.834  0.00  0.00    +0.000 A 
BRANCH  25  32
ATOM     31  C   UNL     1       7.809   5.188  13.174  0.00  0.00    +0.000 C 
ATOM     32  C   UNL     1       6.425   4.744  13.658  0.00  0.00    +0.000 C 
ATOM     33  C   UNL     1       6.022   3.421  13.010  0.00  0.00    +0.000 C 
ENDBRANCH  25  32
ENDBRANCH  20  29
BRANCH  22  34
ATOM     34  C   UNL     1       1.252   2.243  19.273  0.00  0.00    +0.000 C 
ATOM     35  F   UNL     1       1.844   1.022  19.208  0.00  0.00    +0.000 F 
ATOM     36  F   UNL     1       0.901   2.438  20.574  0.00  0.00    +0.000 F 
ATOM     37  F   UNL     1       0.086   2.153  18.576  0.00  0.00    +0.000 F 
ENDBRANCH  22  34
ENDBRANCH   1  24
TORSDOF 6
ENDMDL
MODEL 2
REMARK VINA RESULT:     -10.2      0.601      1.083
REMARK  Name = 
REMARK  8 active torsions:
REMARK  status: ('A' for Active; 'I' for Inactive)
REMARK    1  A    between atoms: C_1  and  C_2
REMARK    2  A    between atoms: C_2  and  C_3
REMARK    3  A    between atoms: C_2  and  C_4
REMARK    4  A    between atoms: C_8  and  N_9
REMARK    5  A    between atoms: C_11  and  C_12
REMARK    6  A    between atoms: C_17  and  C_18
REMARK    7  A    between atoms: C_18  and  N_19
REMARK    8  A    between atoms: N_22  and  C_23
REMARK                            x       y       z     vdW  Elec       q    Type
REMARK                         _______ _______ _______ _____ _____    ______ ____
ROOT
ATOM      1  C   UNL     1       3.130   6.920  18.086  0.00  0.00    +0.000 C 
ENDROOT
BRANCH   1   2
ATOM      2  N   UNL     1       2.269   7.686  18.965  0.00  0.00    +0.000 N 
ATOM      3  C   UNL     1       1.850   8.898  18.442  0.00  0.00    +0.000 C 
ATOM      4  O   UNL     1       2.220   9.277  17.335  0.00  0.00    +0.000 OA
ATOM      5  N   UNL     1       1.037   9.601  19.312  0.00  0.00    +0.000 N 
ATOM      6  H   UNL     1       1.552   7.184  19.465  0.00  0.00    +0.000 HD
ATOM      7  H   UNL     1       1.237   9.430  20.285  0.00  0.00    +0.000 HD
BRANCH   5   8
ATOM      8  C   UNL     1       0.451  10.860  18.981  0.00  0.00    +0.000 A 
ATOM      9  C   UNL     1       1.085  12.060  19.354  0.00  0.00    +0.000 A 
ATOM     10  C   UNL     1       0.473  13.301  19.173  0.00  0.00    +0.000 A 
ATOM     11  C   UNL     1      -0.814  13.368  18.660  0.00  0.00    +0.000 A 
ATOM     12  C   UNL     1      -1.448  12.191  18.270  0.00  0.00    +0.000 A 
ATOM     13  N   UNL     1      -2.799  12.250  17.895  0.00  0.00    +0.000 N 
ATOM     14  C   UNL     1      -3.530  11.144  17.569  0.00  0.00    +0.000 A 
ATOM     15  O   UNL     1      -4.751  11.155  17.476  0.00  0.00    +0.000 OA
ATOM     16  C   UNL     1      -2.750   9.919  17.282  0.00  0.00    +0.000 A 
ATOM     17  C   UNL     1      -1.470   9.812  17.668  0.00  0.00    +0.000 A 
ATOM     18  C   UNL     1      -0.795  10.940  18.329  0.00  0.00    +0.000 A 
ATOM     19  H   UNL     1      -3.323  13.105  18.031  0.00  0.00    +0.000 HD
ENDBRANCH   5   8
ENDBRANCH   1   2
BRANCH   1  24
ATOM     20  N   UNL     1       3.727   4.533  17.506  0.00  0.00    +0.000 N 
ATOM     21  N   UNL     1       3.206   3.280  17.614  0.00  0.00    +0.000 NA
ATOM     22  C   UNL     1       2.250   3.357  18.555  0.00  0.00    +0.000 A 
ATOM     23  C   UNL     1       2.045   4.703  18.941  0.00  0.00    +0.000 A 
ATOM     24  C   UNL     1       2.955   5.452  18.222  0.00  0.00    +0.000 A 
BRANCH  20  29
ATOM     25  C   UNL     1       6.096   4.259  14.621  0.00  0.00    +0.000 A 
ATOM     26  C   UNL     1       7.142   5.079  15.064  0.00  0.00    +0.000 A 
ATOM     27  C   UNL     1       7.080   5.692  16.312  0.00  0.00    +0.000 A 
ATOM     28  C   UNL     1       5.968   5.518  17.132  0.00  0.00    +0.000 A 
ATOM     29  C   UNL     1       4.895   4.727  16.705  0.00  0.00    +0.000 A 
ATOM     30  C   UNL     1       4.988   4.071  15.465  0.00  0.00    +0.000 A 
BRANCH  25  32
ATOM     31  C   UNL     1       4.764   3.641  12.572  0.00  0.00    +0.000 C 
ATOM     32  C   UNL     1       6.135   3.589  13.254  0.00  0.00    +0.000 C 
ATOM     33  C   UNL     1       7.210   4.205  12.360  0.00  0.00    +0.000 C 
ENDBRANCH  25  32
ENDBRANCH  20  29
BRANCH  22  34
ATOM     34  C   UNL     1       1.498   2.159  19.072  0.00  0.00    +0.000 C 
ATOM     35  F   UNL     1       0.274   1.987  18.507  0.00  0.00    +0.000 F 
ATOM     36  F   UNL     1       2.193   1.009  18.856  0.00  0.00    +0.000 F 
ATOM     37  F   UNL     1       1.303   2.236  20.417  0.00  0.00    +0.000 F 
ENDBRANCH  22  34
ENDBRANCH   1  24
TORSDOF 6
ENDMDL
MODEL 3
REMARK VINA RESULT:      -9.8      0.788      1.126
REMARK  Name = 
REMARK  8 active torsions:
REMARK  status: ('A' for Active; 'I' for Inactive)
REMARK    1  A    between atoms: C_1  and  C_2
REMARK    2  A    between atoms: C_2  and  C_3
REMARK    3  A    between atoms: C_2  and  C_4
REMARK    4  A    between atoms: C_8  and  N_9
REMARK    5  A    between atoms: C_11  and  C_12
REMARK    6  A    between atoms: C_17  and  C_18
REMARK    7  A    between atoms: C_18  and  N_19
REMARK    8  A    between atoms: N_22  and  C_23
REMARK                            x       y       z     vdW  Elec       q    Type
REMARK                         _______ _______ _______ _____ _____    ______ ____
ROOT
ATOM      1  C   UNL     1       3.023   6.856  18.534  0.00  0.00    +0.000 C 
ENDROOT
BRANCH   1   2
ATOM      2  N   UNL     1       2.294   7.823  19.330  0.00  0.00    +0.000 N 
ATOM      3  C   UNL     1       1.834   8.920  18.620  0.00  0.00    +0.000 C 
ATOM      4  O   UNL     1       2.068   9.048  17.422  0.00  0.00    +0.000 OA
ATOM      5  N   UNL     1       1.150   9.820  19.414  0.00  0.00    +0.000 N 
ATOM      6  H   UNL     1       1.636   7.465  20.005  0.00  0.00    +0.000 HD
ATOM      7  H   UNL     1       1.467   9.844  20.371  0.00  0.00    +0.000 HD
BRANCH   5   8
ATOM      8  C   UNL     1       0.550  11.010  18.901  0.00  0.00    +0.000 A 
ATOM      9  C   UNL     1       1.226  12.241  18.984  0.00  0.00    +0.000 A 
ATOM     10  C   UNL     1       0.613  13.442  18.623  0.00  0.00    +0.000 A 
ATOM     11  C   UNL     1      -0.712  13.445  18.217  0.00  0.00    +0.000 A 
ATOM     12  C   UNL     1      -1.391  12.233  18.112  0.00  0.00    +0.000 A 
ATOM     13  N   UNL     1      -2.769  12.256  17.848  0.00  0.00    +0.000 N 
ATOM     14  C   UNL     1      -3.537  11.128  17.801  0.00  0.00    +0.000 A 
ATOM     15  O   UNL     1      -4.761  11.154  17.811  0.00  0.00    +0.000 OA
ATOM     16  C   UNL     1      -2.798   9.851  17.687  0.00  0.00    +0.000 A 
ATOM     17  C   UNL     1      -1.490   9.784  17.978  0.00  0.00    +0.000 A 
ATOM     18  C   UNL     1      -0.747  10.998  18.352  0.00  0.00    +0.000 A 
ATOM     19  H   UNL     1      -3.270  13.135  17.863  0.00  0.00    +0.000 HD
ENDBRANCH   5   8
ENDBRANCH   1   2
BRANCH   1  24
ATOM     20  N   UNL     1       3.944   4.512  18.754  0.00  0.00    +0.000 N 
ATOM     21  N   UNL     1       3.564   3.289  19.217  0.00  0.00    +0.000 NA
ATOM     22  C   UNL     1       2.523   3.513  20.037  0.00  0.00    +0.000 A 
ATOM     23  C   UNL     1       2.128   4.871  19.975  0.00  0.00    +0.000 A 
ATOM     24  C   UNL     1       3.008   5.487  19.108  0.00  0.00    +0.000 A 
BRANCH  20  29
ATOM     25  C   UNL     1       6.224   4.789  15.799  0.00  0.00    +0.000 A 
ATOM     26  C   UNL     1       7.469   4.850  16.435  0.00  0.00    +0.000 A 
ATOM     27  C   UNL     1       7.560   4.771  17.821  0.00  0.00    +0.000 A 
ATOM     28  C   UNL     1       6.411   4.653  18.601  0.00  0.00    +0.000 A 
ATOM     29  C   UNL     1       5.151   4.617  17.995  0.00  0.00    +0.000 A 
ATOM     30  C   UNL     1       5.072   4.647  16.591  0.00  0.00    +0.000 A 
BRANCH  25  32
ATOM     31  C   UNL     1       7.473   5.036  13.623  0.00  0.00    +0.000 C 
ATOM     32  C   UNL     1       6.099   4.886  14.284  0.00  0.00    +0.000 C 
ATOM     33  C   UNL     1       5.346   3.688  13.707  0.00  0.00    +0.000 C 
ENDBRANCH  25  32
ENDBRANCH  20  29
BRANCH  22  34
ATOM     34  C   UNL     1       1.870   2.433  20.860  0.00  0.00    +0.000 C 
ATOM     35  F   UNL     1       0.700   2.808  21.439  0.00  0.00    +0.000 F 
ATOM     36  F   UNL     1       1.597   1.334  20.104  0.00  0.00    +0.000 F 
ATOM     37  F   UNL     1       2.687   2.009  21.863  0.00  0.00    +0.000 F 
ENDBRANCH  22  34
ENDBRANCH   1  24
TORSDOF 6
ENDMDL
MODEL 4
REMARK VINA RESULT:      -9.7      1.019      2.075
REMARK  Name = 
REMARK  8 active torsions:
REMARK  status: ('A' for Active; 'I' for Inactive)
REMARK    1  A    between atoms: C_1  and  C_2
REMARK    2  A    between atoms: C_2  and  C_3
REMARK    3  A    between atoms: C_2  and  C_4
REMARK    4  A    between atoms: C_8  and  N_9
REMARK    5  A    between atoms: C_11  and  C_12
REMARK    6  A    between atoms: C_17  and  C_18
REMARK    7  A    between atoms: C_18  and  N_19
REMARK    8  A    between atoms: N_22  and  C_23
REMARK                            x       y       z     vdW  Elec       q    Type
REMARK                         _______ _______ _______ _____ _____    ______ ____
ROOT
ATOM      1  C   UNL     1       2.837   7.060  18.264  0.00  0.00    +0.000 C 
ENDROOT
BRANCH   1   2
ATOM      2  N   UNL     1       2.056   7.858  19.188  0.00  0.00    +0.000 N 
ATOM      3  C   UNL     1       1.564   9.037  18.654  0.00  0.00    +0.000 C 
ATOM      4  O   UNL     1       1.813   9.366  17.498  0.00  0.00    +0.000 OA
ATOM      5  N   UNL     1       0.831   9.772  19.567  0.00  0.00    +0.000 N 
ATOM      6  H   UNL     1       1.403   7.372  19.782  0.00  0.00    +0.000 HD
ATOM      7  H   UNL     1       1.132   9.652  20.522  0.00  0.00    +0.000 HD
BRANCH   5   8
ATOM      8  C   UNL     1       0.193  11.006  19.238  0.00  0.00    +0.000 A 
ATOM      9  C   UNL     1       0.764  12.229  19.632  0.00  0.00    +0.000 A 
ATOM     10  C   UNL     1       0.098  13.443  19.452  0.00  0.00    +0.000 A 
ATOM     11  C   UNL     1      -1.182  13.454  18.919  0.00  0.00    +0.000 A 
ATOM     12  C   UNL     1      -1.754  12.254  18.508  0.00  0.00    +0.000 A 
ATOM     13  N   UNL     1      -3.101  12.253  18.111  0.00  0.00    +0.000 N 
ATOM     14  C   UNL     1      -3.774  11.117  17.763  0.00  0.00    +0.000 A 
ATOM     15  O   UNL     1      -4.992  11.073  17.650  0.00  0.00    +0.000 OA
ATOM     16  C   UNL     1      -2.933   9.933  17.478  0.00  0.00    +0.000 A 
ATOM     17  C   UNL     1      -1.656   9.882  17.884  0.00  0.00    +0.000 A 
ATOM     18  C   UNL     1      -1.044  11.033  18.566  0.00  0.00    +0.000 A 
ATOM     19  H   UNL     1      -3.666  13.081  18.246  0.00  0.00    +0.000 HD
ENDBRANCH   5   8
ENDBRANCH   1   2
BRANCH   1  24
ATOM     20  N   UNL     1       3.507   4.657  17.859  0.00  0.00    +0.000 N 
ATOM     21  N   UNL     1       2.990   3.403  17.979  0.00  0.00    +0.000 NA
ATOM     22  C   UNL     1       1.951   3.512  18.824  0.00  0.00    +0.000 A 
ATOM     23  C   UNL     1       1.699   4.872  19.123  0.00  0.00    +0.000 A 
ATOM     24  C   UNL     1       2.664   5.598  18.454  0.00  0.00    +0.000 A 
BRANCH  20  29
ATOM     25  C   UNL     1       6.951   5.887  17.059  0.00  0.00    +0.000 A 
ATOM     26  C   UNL     1       7.202   5.201  15.864  0.00  0.00    +0.000 A 
ATOM     27  C   UNL     1       6.236   4.365  15.312  0.00  0.00    +0.000 A 
ATOM     28  C   UNL     1       5.012   4.179  15.951  0.00  0.00    +0.000 A 
ATOM     29  C   UNL     1       4.743   4.829  17.160  0.00  0.00    +0.000 A 
ATOM     30  C   UNL     1       5.704   5.711  17.684  0.00  0.00    +0.000 A 
BRANCH  25  32
ATOM     31  C   UNL     1       7.618   8.272  17.527  0.00  0.00    +0.000 C 
ATOM     32  C   UNL     1       7.997   6.797  17.689  0.00  0.00    +0.000 C 
ATOM     33  C   UNL     1       8.224   6.453  19.160  0.00  0.00    +0.000 C 
ENDBRANCH  25  32
ENDBRANCH  20  29
BRANCH  22  34
ATOM     34  C   UNL     1       1.166   2.330  19.328  0.00  0.00    +0.000 C 
ATOM     35  F   UNL     1       0.704   2.472  20.598  0.00  0.00    +0.000 F 
ATOM     36  F   UNL     1       0.081   2.088  18.542  0.00  0.00    +0.000 F 
ATOM     37  F   UNL     1       1.911   1.191  19.306  0.00  0.00    +0.000 F 
ENDBRANCH  22  34
ENDBRANCH   1  24
TORSDOF 6
ENDMDL
MODEL 5
REMARK VINA RESULT:      -9.5      0.968      1.173
REMARK  Name = 
REMARK  8 active torsions:
REMARK  status: ('A' for Active; 'I' for Inactive)
REMARK    1  A    between atoms: C_1  and  C_2
REMARK    2  A    between atoms: C_2  and  C_3
REMARK    3  A    between atoms: C_2  and  C_4
REMARK    4  A    between atoms: C_8  and  N_9
REMARK    5  A    between atoms: C_11  and  C_12
REMARK    6  A    between atoms: C_17  and  C_18
REMARK    7  A    between atoms: C_18  and  N_19
REMARK    8  A    between atoms: N_22  and  C_23
REMARK                            x       y       z     vdW  Elec       q    Type
REMARK                         _______ _______ _______ _____ _____    ______ ____
ROOT
ATOM      1  C   UNL     1       3.256   7.147  18.187  0.00  0.00    +0.000 C 
ENDROOT
BRANCH   1   2
ATOM      2  N   UNL     1       2.168   7.877  17.567  0.00  0.00    +0.000 N 
ATOM      3  C   UNL     1       1.580   8.831  18.381  0.00  0.00    +0.000 C 
ATOM      4  O   UNL     1       1.953   8.998  19.538  0.00  0.00    +0.000 OA
ATOM      5  N   UNL     1       0.544   9.500  17.756  0.00  0.00    +0.000 N 
ATOM      6  H   UNL     1       2.295   8.173  16.611  0.00  0.00    +0.000 HD
ATOM      7  H   UNL     1       0.055   8.945  17.071  0.00  0.00    +0.000 HD
BRANCH   5   8
ATOM      8  C   UNL     1      -0.190  10.552  18.382  0.00  0.00    +0.000 A 
ATOM      9  C   UNL     1       0.372  11.274  19.451  0.00  0.00    +0.000 A 
ATOM     10  C   UNL     1      -0.369  12.210  20.175  0.00  0.00    +0.000 A 
ATOM     11  C   UNL     1      -1.708  12.408  19.878  0.00  0.00    +0.000 A 
ATOM     12  C   UNL     1      -2.275  11.715  18.811  0.00  0.00    +0.000 A 
ATOM     13  N   UNL     1      -3.661  11.807  18.611  0.00  0.00    +0.000 N 
ATOM     14  C   UNL     1      -4.321  11.107  17.642  0.00  0.00    +0.000 A 
ATOM     15  O   UNL     1      -5.540  10.996  17.614  0.00  0.00    +0.000 OA
ATOM     16  C   UNL     1      -3.473  10.521  16.580  0.00  0.00    +0.000 A 
ATOM     17  C   UNL     1      -2.151  10.376  16.758  0.00  0.00    +0.000 A 
ATOM     18  C   UNL     1      -1.507  10.860  17.989  0.00  0.00    +0.000 A 
ATOM     19  H   UNL     1      -4.241  12.262  19.304  0.00  0.00    +0.000 HD
ENDBRANCH   5   8
ENDBRANCH   1   2
BRANCH   1  24
ATOM     20  N   UNL     1       3.727   4.672  17.981  0.00  0.00    +0.000 N 
ATOM     21  N   UNL     1       3.089   3.480  18.139  0.00  0.00    +0.000 NA
ATOM     22  C   UNL     1       2.008   3.737  18.893  0.00  0.00    +0.000 A 
ATOM     23  C   UNL     1       1.862   5.131  19.089  0.00  0.00    +0.000 A 
ATOM     24  C   UNL     1       2.935   5.722  18.453  0.00  0.00    +0.000 A 
BRANCH  20  29
ATOM     25  C   UNL     1       6.353   4.763  15.315  0.00  0.00    +0.000 A 
ATOM     26  C   UNL     1       7.516   4.746  16.094  0.00  0.00    +0.000 A 
ATOM     27  C   UNL     1       7.437   4.675  17.482  0.00  0.00    +0.000 A 
ATOM     28  C   UNL     1       6.199   4.643  18.120  0.00  0.00    +0.000 A 
ATOM     29  C   UNL     1       5.020   4.687  17.370  0.00  0.00    +0.000 A 
ATOM     30  C   UNL     1       5.109   4.707  15.966  0.00  0.00    +0.000 A 
BRANCH  25  32
ATOM     31  C   UNL     1       7.822   5.225  13.319  0.00  0.00    +0.000 C 
ATOM     32  C   UNL     1       6.414   4.853  13.796  0.00  0.00    +0.000 C 
ATOM     33  C   UNL     1       5.944   3.556  13.140  0.00  0.00    +0.000 C 
ENDBRANCH  25  32
ENDBRANCH  20  29
BRANCH  22  34
ATOM     34  C   UNL     1       1.082   2.665  19.407  0.00  0.00    +0.000 C 
ATOM     35  F   UNL     1       0.014   2.424  18.604  0.00  0.00    +0.000 F 
ATOM     36  F   UNL     1       1.735   1.480  19.556  0.00  0.00    +0.000 F 
ATOM     37  F   UNL     1       0.587   2.982  20.635  0.00  0.00    +0.000 F 
ENDBRANCH  22  34
ENDBRANCH   1  24
TORSDOF 6
ENDMDL
MODEL 6
REMARK VINA RESULT:      -9.4      5.411      7.952
REMARK  Name = 
REMARK  8 active torsions:
REMARK  status: ('A' for Active; 'I' for Inactive)
REMARK    1  A    between atoms: C_1  and  C_2
REMARK    2  A    between atoms: C_2  and  C_3
REMARK    3  A    between atoms: C_2  and  C_4
REMARK    4  A    between atoms: C_8  and  N_9
REMARK    5  A    between atoms: C_11  and  C_12
REMARK    6  A    between atoms: C_17  and  C_18
REMARK    7  A    between atoms: C_18  and  N_19
REMARK    8  A    between atoms: N_22  and  C_23
REMARK                            x       y       z     vdW  Elec       q    Type
REMARK                         _______ _______ _______ _____ _____    ______ ____
ROOT
ATOM      1  C   UNL     1       7.258   6.447  17.218  0.00  0.00    +0.000 C 
ENDROOT
BRANCH   1   2
ATOM      2  N   UNL     1       7.344   7.871  16.959  0.00  0.00    +0.000 N 
ATOM      3  C   UNL     1       8.091   8.578  17.887  0.00  0.00    +0.000 C 
ATOM      4  O   UNL     1       8.598   8.020  18.855  0.00  0.00    +0.000 OA
ATOM      5  N   UNL     1       8.144   9.931  17.609  0.00  0.00    +0.000 N 
ATOM      6  H   UNL     1       7.494   8.160  16.005  0.00  0.00    +0.000 HD
ATOM      7  H   UNL     1       7.325  10.283  17.138  0.00  0.00    +0.000 HD
BRANCH   5   8
ATOM      8  C   UNL     1       8.884  10.858  18.403  0.00  0.00    +0.000 A 
ATOM      9  C   UNL     1       9.886  10.404  19.280  0.00  0.00    +0.000 A 
ATOM     10  C   UNL     1      10.529  11.265  20.170  0.00  0.00    +0.000 A 
ATOM     11  C   UNL     1      10.146  12.596  20.241  0.00  0.00    +0.000 A 
ATOM     12  C   UNL     1       9.168  13.066  19.367  0.00  0.00    +0.000 A 
ATOM     13  N   UNL     1       8.680  14.370  19.545  0.00  0.00    +0.000 N 
ATOM     14  C   UNL     1       7.670  14.896  18.791  0.00  0.00    +0.000 A 
ATOM     15  O   UNL     1       7.083  15.928  19.090  0.00  0.00    +0.000 OA
ATOM     16  C   UNL     1       7.351  14.165  17.544  0.00  0.00    +0.000 A 
ATOM     17  C   UNL     1       7.762  12.901  17.363  0.00  0.00    +0.000 A 
ATOM     18  C   UNL     1       8.598  12.238  18.375  0.00  0.00    +0.000 A 
ATOM     19  H   UNL     1       8.945  14.899  20.366  0.00  0.00    +0.000 HD
ENDBRANCH   5   8
ENDBRANCH   1   2
BRANCH   1  24
ATOM     20  N   UNL     1       5.276   5.203  16.261  0.00  0.00    +0.000 N 
ATOM     21  N   UNL     1       4.986   4.340  15.249  0.00  0.00    +0.000 NA
ATOM     22  C   UNL     1       6.000   4.442  14.374  0.00  0.00    +0.000 A 
ATOM     23  C   UNL     1       7.030   5.257  14.905  0.00  0.00    +0.000 A 
ATOM     24  C   UNL     1       6.580   5.691  16.136  0.00  0.00    +0.000 A 
BRANCH  20  29
ATOM     25  C   UNL     1       2.799   4.557  18.992  0.00  0.00    +0.000 A 
ATOM     26  C   UNL     1       2.358   5.859  19.258  0.00  0.00    +0.000 A 
ATOM     27  C   UNL     1       2.849   6.935  18.525  0.00  0.00    +0.000 A 
ATOM     28  C   UNL     1       3.805   6.738  17.530  0.00  0.00    +0.000 A 
ATOM     29  C   UNL     1       4.285   5.452  17.261  0.00  0.00    +0.000 A 
ATOM     30  C   UNL     1       3.746   4.364  17.971  0.00  0.00    +0.000 A 
BRANCH  25  32
ATOM     31  C   UNL     1       1.040   3.735  20.599  0.00  0.00    +0.000 C 
ATOM     32  C   UNL     1       2.286   3.364  19.789  0.00  0.00    +0.000 C 
ATOM     33  C   UNL     1       2.009   2.165  18.884  0.00  0.00    +0.000 C 
ENDBRANCH  25  32
ENDBRANCH  20  29
BRANCH  22  34
ATOM     34  C   UNL     1       6.020   3.739  13.042  0.00  0.00    +0.000 C 
ATOM     35  F   UNL     1       4.812   3.693  12.422  0.00  0.00    +0.000 F 
ATOM     36  F   UNL     1       6.879   4.345  12.177  0.00  0.00    +0.000 F 
ATOM     37  F   UNL     1       6.449   2.453  13.164  0.00  0.00    +0.000 F 
ENDBRANCH  22  34
ENDBRANCH   1  24
TORSDOF 6
ENDMDL
MODEL 7
REMARK VINA RESULT:      -9.4      5.961      8.731
REMARK  Name = 
REMARK  8 active torsions:
REMARK  status: ('A' for Active; 'I' for Inactive)
REMARK    1  A    between atoms: C_1  and  C_2
REMARK    2  A    between atoms: C_2  and  C_3
REMARK    3  A    between atoms: C_2  and  C_4
REMARK    4  A    between atoms: C_8  and  N_9
REMARK    5  A    between atoms: C_11  and  C_12
REMARK    6  A    between atoms: C_17  and  C_18
REMARK    7  A    between atoms: C_18  and  N_19
REMARK    8  A    between atoms: N_22  and  C_23
REMARK                            x       y       z     vdW  Elec       q    Type
REMARK                         _______ _______ _______ _____ _____    ______ ____
ROOT
ATOM      1  C   UNL     1       7.475   6.255  17.294  0.00  0.00    +0.000 C 
ENDROOT
BRANCH   1   2
ATOM      2  N   UNL     1       7.649   7.688  17.152  0.00  0.00    +0.000 N 
ATOM      3  C   UNL     1       8.314   8.291  18.207  0.00  0.00    +0.000 C 
ATOM      4  O   UNL     1       8.685   7.644  19.180  0.00  0.00    +0.000 OA
ATOM      5  N   UNL     1       8.454   9.656  18.037  0.00  0.00    +0.000 N 
ATOM      6  H   UNL     1       7.917   8.034  16.244  0.00  0.00    +0.000 HD
ATOM      7  H   UNL     1       7.709  10.080  17.506  0.00  0.00    +0.000 HD
BRANCH   5   8
ATOM      8  C   UNL     1       9.138  10.489  18.973  0.00  0.00    +0.000 A 
ATOM      9  C   UNL     1       8.929  10.327  20.355  0.00  0.00    +0.000 A 
ATOM     10  C   UNL     1       9.469  11.213  21.288  0.00  0.00    +0.000 A 
ATOM     11  C   UNL     1      10.191  12.315  20.856  0.00  0.00    +0.000 A 
ATOM     12  C   UNL     1      10.422  12.480  19.493  0.00  0.00    +0.000 A 
ATOM     13  N   UNL     1      11.021  13.671  19.053  0.00  0.00    +0.000 N 
ATOM     14  C   UNL     1      11.220  13.960  17.733  0.00  0.00    +0.000 A 
ATOM     15  O   UNL     1      11.516  15.079  17.334  0.00  0.00    +0.000 OA
ATOM     16  C   UNL     1      11.107  12.818  16.800  0.00  0.00    +0.000 A 
ATOM     17  C   UNL     1      10.499  11.682  17.173  0.00  0.00    +0.000 A 
ATOM     18  C   UNL     1       9.990  11.525  18.545  0.00  0.00    +0.000 A 
ATOM     19  H   UNL     1      11.159  14.435  19.702  0.00  0.00    +0.000 HD
ENDBRANCH   5   8
ENDBRANCH   1   2
BRANCH   1  24
ATOM     20  N   UNL     1       5.442   5.274  16.156  0.00  0.00    +0.000 N 
ATOM     21  N   UNL     1       5.131   4.494  15.084  0.00  0.00    +0.000 NA
ATOM     22  C   UNL     1       6.205   4.529  14.278  0.00  0.00    +0.000 A 
ATOM     23  C   UNL     1       7.276   5.205  14.911  0.00  0.00    +0.000 A 
ATOM     24  C   UNL     1       6.794   5.626  16.135  0.00  0.00    +0.000 A 
BRANCH  20  29
ATOM     25  C   UNL     1       2.797   4.769  18.756  0.00  0.00    +0.000 A 
ATOM     26  C   UNL     1       2.423   6.095  19.009  0.00  0.00    +0.000 A 
ATOM     27  C   UNL     1       3.015   7.142  18.309  0.00  0.00    +0.000 A 
ATOM     28  C   UNL     1       4.005   6.891  17.362  0.00  0.00    +0.000 A 
ATOM     29  C   UNL     1       4.419   5.579  17.108  0.00  0.00    +0.000 A 
ATOM     30  C   UNL     1       3.780   4.523  17.783  0.00  0.00    +0.000 A 
BRANCH  25  32
ATOM     31  C   UNL     1       0.906   4.048  20.260  0.00  0.00    +0.000 C 
ATOM     32  C   UNL     1       2.173   3.608  19.519  0.00  0.00    +0.000 C 
ATOM     33  C   UNL     1       1.878   2.427  18.595  0.00  0.00    +0.000 C 
ENDBRANCH  25  32
ENDBRANCH  20  29
BRANCH  22  34
ATOM     34  C   UNL     1       6.238   3.891  12.914  0.00  0.00    +0.000 C 
ATOM     35  F   UNL     1       7.127   4.458  12.058  0.00  0.00    +0.000 F 
ATOM     36  F   UNL     1       6.562   2.571  12.995  0.00  0.00    +0.000 F 
ATOM     37  F   UNL     1       5.019   3.946  12.310  0.00  0.00    +0.000 F 
ENDBRANCH  22  34
ENDBRANCH   1  24
TORSDOF 6
ENDMDL
MODEL 8
REMARK VINA RESULT:      -9.3      1.651      2.526
REMARK  Name = 
REMARK  8 active torsions:
REMARK  status: ('A' for Active; 'I' for Inactive)
REMARK    1  A    between atoms: C_1  and  C_2
REMARK    2  A    between atoms: C_2  and  C_3
REMARK    3  A    between atoms: C_2  and  C_4
REMARK    4  A    between atoms: C_8  and  N_9
REMARK    5  A    between atoms: C_11  and  C_12
REMARK    6  A    between atoms: C_17  and  C_18
REMARK    7  A    between atoms: C_18  and  N_19
REMARK    8  A    between atoms: N_22  and  C_23
REMARK                            x       y       z     vdW  Elec       q    Type
REMARK                         _______ _______ _______ _____ _____    ______ ____
ROOT
ATOM      1  C   UNL     1       2.514   7.256  19.295  0.00  0.00    +0.000 C 
ENDROOT
BRANCH   1   2
ATOM      2  N   UNL     1       1.616   7.991  20.165  0.00  0.00    +0.000 N 
ATOM      3  C   UNL     1       1.171   9.194  19.643  0.00  0.00    +0.000 C 
ATOM      4  O   UNL     1       1.549   9.592  18.546  0.00  0.00    +0.000 OA
ATOM      5  N   UNL     1       0.323   9.867  20.503  0.00  0.00    +0.000 N 
ATOM      6  H   UNL     1       0.905   7.464  20.648  0.00  0.00    +0.000 HD
ATOM      7  H   UNL     1       0.512   9.695  21.479  0.00  0.00    +0.000 HD
BRANCH   5   8
ATOM      8  C   UNL     1      -0.292  11.112  20.172  0.00  0.00    +0.000 A 
ATOM      9  C   UNL     1       0.151  12.306  20.767  0.00  0.00    +0.000 A 
ATOM     10  C   UNL     1      -0.517  13.516  20.575  0.00  0.00    +0.000 A 
ATOM     11  C   UNL     1      -1.681  13.548  19.821  0.00  0.00    +0.000 A 
ATOM     12  C   UNL     1      -2.123  12.378  19.209  0.00  0.00    +0.000 A 
ATOM     13  N   UNL     1      -3.376  12.385  18.575  0.00  0.00    +0.000 N 
ATOM     14  C   UNL     1      -3.932  11.271  18.014  0.00  0.00    +0.000 A 
ATOM     15  O   UNL     1      -5.107  11.210  17.678  0.00  0.00    +0.000 OA
ATOM     16  C   UNL     1      -3.009  10.137  17.785  0.00  0.00    +0.000 A 
ATOM     17  C   UNL     1      -1.824  10.076  18.411  0.00  0.00    +0.000 A 
ATOM     18  C   UNL     1      -1.389  11.174  19.290  0.00  0.00    +0.000 A 
ATOM     19  H   UNL     1      -3.987  13.185  18.677  0.00  0.00    +0.000 HD
ENDBRANCH   5   8
ENDBRANCH   1   2
BRANCH   1  24
ATOM     20  N   UNL     1       3.429   4.929  18.923  0.00  0.00    +0.000 N 
ATOM     21  N   UNL     1       3.156   3.641  19.270  0.00  0.00    +0.000 NA
ATOM     22  C   UNL     1       2.346   3.711  20.340  0.00  0.00    +0.000 A 
ATOM     23  C   UNL     1       1.967   5.052  20.586  0.00  0.00    +0.000 A 
ATOM     24  C   UNL     1       2.619   5.815  19.638  0.00  0.00    +0.000 A 
BRANCH  20  29
ATOM     25  C   UNL     1       6.594   6.141  17.334  0.00  0.00    +0.000 A 
ATOM     26  C   UNL     1       6.417   5.686  16.022  0.00  0.00    +0.000 A 
ATOM     27  C   UNL     1       5.255   5.013  15.657  0.00  0.00    +0.000 A 
ATOM     28  C   UNL     1       4.258   4.761  16.596  0.00  0.00    +0.000 A 
ATOM     29  C   UNL     1       4.418   5.179  17.921  0.00  0.00    +0.000 A 
ATOM     30  C   UNL     1       5.573   5.902  18.270  0.00  0.00    +0.000 A 
BRANCH  25  32
ATOM     31  C   UNL     1       7.713   8.384  17.599  0.00  0.00    +0.000 C 
ATOM     32  C   UNL     1       7.862   6.868  17.761  0.00  0.00    +0.000 C 
ATOM     33  C   UNL     1       8.256   6.512  19.193  0.00  0.00    +0.000 C 
ENDBRANCH  25  32
ENDBRANCH  20  29
BRANCH  22  34
ATOM     34  C   UNL     1       1.897   2.502  21.119  0.00  0.00    +0.000 C 
ATOM     35  F   UNL     1       0.794   2.714  21.883  0.00  0.00    +0.000 F 
ATOM     36  F   UNL     1       1.605   1.462  20.290  0.00  0.00    +0.000 F 
ATOM     37  F   UNL     1       2.875   2.058  21.955  0.00  0.00    +0.000 F 
ENDBRANCH  22  34
ENDBRANCH   1  24
TORSDOF 6
ENDMDL
MODEL 9
REMARK VINA RESULT:      -9.3      1.447      2.586
REMARK  Name = 
REMARK  8 active torsions:
REMARK  status: ('A' for Active; 'I' for Inactive)
REMARK    1  A    between atoms: C_1  and  C_2
REMARK    2  A    between atoms: C_2  and  C_3
REMARK    3  A    between atoms: C_2  and  C_4
REMARK    4  A    between atoms: C_8  and  N_9
REMARK    5  A    between atoms: C_11  and  C_12
REMARK    6  A    between atoms: C_17  and  C_18
REMARK    7  A    between atoms: C_18  and  N_19
REMARK    8  A    between atoms: N_22  and  C_23
REMARK                            x       y       z     vdW  Elec       q    Type
REMARK                         _______ _______ _______ _____ _____    ______ ____
ROOT
ATOM      1  C   UNL     1       3.195   6.932  18.202  0.00  0.00    +0.000 C 
ENDROOT
BRANCH   1   2
ATOM      2  N   UNL     1       2.525   7.794  19.156  0.00  0.00    +0.000 N 
ATOM      3  C   UNL     1       1.731   8.775  18.583  0.00  0.00    +0.000 C 
ATOM      4  O   UNL     1       1.649   8.896  17.365  0.00  0.00    +0.000 OA
ATOM      5  N   UNL     1       1.116   9.579  19.524  0.00  0.00    +0.000 N 
ATOM      6  H   UNL     1       2.117   7.357  19.968  0.00  0.00    +0.000 HD
ATOM      7  H   UNL     1       1.644   9.688  20.375  0.00  0.00    +0.000 HD
BRANCH   5   8
ATOM      8  C   UNL     1       0.220  10.635  19.176  0.00  0.00    +0.000 A 
ATOM      9  C   UNL     1      -1.045  10.346  18.634  0.00  0.00    +0.000 A 
ATOM     10  C   UNL     1      -1.885  11.351  18.153  0.00  0.00    +0.000 A 
ATOM     11  C   UNL     1      -1.456  12.670  18.156  0.00  0.00    +0.000 A 
ATOM     12  C   UNL     1      -0.213  12.975  18.706  0.00  0.00    +0.000 A 
ATOM     13  N   UNL     1       0.278  14.283  18.571  0.00  0.00    +0.000 N 
ATOM     14  C   UNL     1       1.515  14.662  19.007  0.00  0.00    +0.000 A 
ATOM     15  O   UNL     1       2.040  15.720  18.684  0.00  0.00    +0.000 OA
ATOM     16  C   UNL     1       2.179  13.732  19.947  0.00  0.00    +0.000 A 
ATOM     17  C   UNL     1       1.764  12.462  20.067  0.00  0.00    +0.000 A 
ATOM     18  C   UNL     1       0.595  11.986  19.311  0.00  0.00    +0.000 A 
ATOM     19  H   UNL     1      -0.207  14.944  17.977  0.00  0.00    +0.000 HD
ENDBRANCH   5   8
ENDBRANCH   1   2
BRANCH   1  24
ATOM     20  N   UNL     1       3.762   4.485  17.919  0.00  0.00    +0.000 N 
ATOM     21  N   UNL     1       3.171   3.264  18.043  0.00  0.00    +0.000 NA
ATOM     22  C   UNL     1       2.085   3.455  18.809  0.00  0.00    +0.000 A 
ATOM     23  C   UNL     1       1.885   4.836  19.048  0.00  0.00    +0.000 A 
ATOM     24  C   UNL     1       2.931   5.488  18.425  0.00  0.00    +0.000 A 
BRANCH  20  29
ATOM     25  C   UNL     1       6.370   4.718  15.245  0.00  0.00    +0.000 A 
ATOM     26  C   UNL     1       7.535   4.762  16.020  0.00  0.00    +0.000 A 
ATOM     27  C   UNL     1       7.465   4.686  17.408  0.00  0.00    +0.000 A 
ATOM     28  C   UNL     1       6.232   4.587  18.050  0.00  0.00    +0.000 A 
ATOM     29  C   UNL     1       5.049   4.569  17.304  0.00  0.00    +0.000 A 
ATOM     30  C   UNL     1       5.133   4.595  15.900  0.00  0.00    +0.000 A 
BRANCH  25  32
ATOM     31  C   UNL     1       7.823   5.195  13.241  0.00  0.00    +0.000 C 
ATOM     32  C   UNL     1       6.421   4.812  13.726  0.00  0.00    +0.000 C 
ATOM     33  C   UNL     1       5.956   3.514  13.069  0.00  0.00    +0.000 C 
ENDBRANCH  25  32
ENDBRANCH  20  29
BRANCH  22  34
ATOM     34  C   UNL     1       1.205   2.333  19.294  0.00  0.00    +0.000 C 
ATOM     35  F   UNL     1       0.098   2.128  18.533  0.00  0.00    +0.000 F 
ATOM     36  F   UNL     1       1.882   1.152  19.322  0.00  0.00    +0.000 F 
ATOM     37  F   UNL     1       0.772   2.553  20.566  0.00  0.00    +0.000 F 
ENDBRANCH  22  34
ENDBRANCH   1  24
TORSDOF 6
ENDMDL
