MODEL 1
REMARK VINA RESULT:      -6.8      0.000      0.000
REMARK  Name = 
REMARK  7 active torsions:
REMARK  status: ('A' for Active; 'I' for Inactive)
REMARK    1  A    between atoms: C_1  and  N_2
REMARK    2  A    between atoms: N_2  and  C_3
REMARK    3  A    between atoms: N_2  and  C_11
REMARK    4  A    between atoms: C_3  and  C_4
REMARK    5  A    between atoms: C_11  and  C_12
REMARK    6  A    between atoms: N_16  and  C_17
REMARK    7  A    between atoms: C_17  and  C_18
REMARK                            x       y       z     vdW  Elec       q    Type
REMARK                         _______ _______ _______ _____ _____    ______ ____
ROOT
ATOM      1  C   UNL     1       4.507   6.435  17.085  0.00  0.00    +0.000 C 
ENDROOT
BRANCH   1   2
ATOM      2  C   UNL     1       5.820   5.857  17.534  0.00  0.00    +0.000 A 
ATOM      3  N   UNL     1       6.599   6.400  18.454  0.00  0.00    +0.000 NA
ATOM      4  C   UNL     1       7.691   5.586  18.559  0.00  0.00    +0.000 A 
ATOM      5  C   UNL     1       7.590   4.528  17.692  0.00  0.00    +0.000 A 
ATOM      6  N   UNL     1       6.392   4.702  17.048  0.00  0.00    +0.000 N 
BRANCH   6   7
ATOM      7  C   UNL     1       5.892   3.859  15.987  0.00  0.00    +0.000 C 
BRANCH   7   8
ATOM      8  C   UNL     1       6.227   4.336  14.587  0.00  0.00    +0.000 C 
ATOM      9  F   UNL     1       7.416   4.961  14.484  0.00  0.00    +0.000 F 
ATOM     10  F   UNL     1       6.233   3.295  13.719  0.00  0.00    +0.000 F 
ATOM     11  F   UNL     1       5.279   5.202  14.148  0.00  0.00    +0.000 F 
ENDBRANCH   7   8
ENDBRANCH   6   7
ENDBRANCH   1   2
BRANCH   1  13
ATOM     12  C   UNL     1       2.775   7.817  18.059  0.00  0.00    +0.000 C 
ATOM     13  N   UNL     1       3.476   6.521  18.150  0.00  0.00    +0.000 NA
BRANCH  13  14
ATOM     14  C   UNL     1       2.512   5.411  17.929  0.00  0.00    +0.000 C 
BRANCH  14  15
ATOM     15  C   UNL     1       2.381   4.453  19.097  0.00  0.00    +0.000 A 
ATOM     16  C   UNL     1       2.268   4.972  20.397  0.00  0.00    +0.000 A 
ATOM     17  C   UNL     1       2.140   4.102  21.469  0.00  0.00    +0.000 A 
ATOM     18  N   UNL     1       2.127   2.759  21.345  0.00  0.00    +0.000 NA
ATOM     19  C   UNL     1       2.242   2.271  20.088  0.00  0.00    +0.000 A 
ATOM     20  C   UNL     1       2.375   3.058  18.949  0.00  0.00    +0.000 A 
ATOM     21 CL   UNL     1       2.515   2.269  17.423  0.00  0.00    +0.000 Cl
ENDBRANCH  14  15
ENDBRANCH  13  14
ENDBRANCH   1  13
TORSDOF 6
ENDMDL
MODEL 2
REMARK VINA RESULT:      -6.7      2.545      3.769
REMARK  Name = 
REMARK  7 active torsions:
REMARK  status: ('A' for Active; 'I' for Inactive)
REMARK    1  A    between atoms: C_1  and  N_2
REMARK    2  A    between atoms: N_2  and  C_3
REMARK    3  A    between atoms: N_2  and  C_11
REMARK    4  A    between atoms: C_3  and  C_4
REMARK    5  A    between atoms: C_11  and  C_12
REMARK    6  A    between atoms: N_16  and  C_17
REMARK    7  A    between atoms: C_17  and  C_18
REMARK                            x       y       z     vdW  Elec       q    Type
REMARK                         _______ _______ _______ _____ _____    ______ ____
ROOT
ATOM      1  C   UNL     1       4.574   3.746  17.789  0.00  0.00    +0.000 C 
ENDROOT
BRANCH   1   2
ATOM      2  C   UNL     1       5.433   4.132  16.617  0.00  0.00    +0.000 A 
ATOM      3  N   UNL     1       5.039   4.090  15.357  0.00  0.00    +0.000 NA
ATOM      4  C   UNL     1       6.107   4.498  14.609  0.00  0.00    +0.000 A 
ATOM      5  C   UNL     1       7.177   4.793  15.414  0.00  0.00    +0.000 A 
ATOM      6  N   UNL     1       6.739   4.566  16.693  0.00  0.00    +0.000 N 
BRANCH   6   7
ATOM      7  C   UNL     1       7.555   4.679  17.881  0.00  0.00    +0.000 C 
BRANCH   7   8
ATOM      8  C   UNL     1       7.404   5.989  18.630  0.00  0.00    +0.000 C 
ATOM      9  F   UNL     1       8.347   6.906  18.339  0.00  0.00    +0.000 F 
ATOM     10  F   UNL     1       6.196   6.546  18.375  0.00  0.00    +0.000 F 
ATOM     11  F   UNL     1       7.456   5.770  19.969  0.00  0.00    +0.000 F 
ENDBRANCH   7   8
ENDBRANCH   6   7
ENDBRANCH   1   2
BRANCH   1  13
ATOM     12  C   UNL     1       3.545   1.667  18.479  0.00  0.00    +0.000 C 
ATOM     13  N   UNL     1       3.518   2.751  17.476  0.00  0.00    +0.000 NA
BRANCH  13  14
ATOM     14  C   UNL     1       2.209   3.455  17.531  0.00  0.00    +0.000 C 
BRANCH  14  15
ATOM     15  C   UNL     1       2.173   4.639  18.475  0.00  0.00    +0.000 A 
ATOM     16  C   UNL     1       2.622   5.890  18.022  0.00  0.00    +0.000 A 
ATOM     17  C   UNL     1       2.584   6.979  18.878  0.00  0.00    +0.000 A 
ATOM     18  N   UNL     1       2.145   6.915  20.151  0.00  0.00    +0.000 NA
ATOM     19  C   UNL     1       1.720   5.703  20.579  0.00  0.00    +0.000 A 
ATOM     20  C   UNL     1       1.718   4.551  19.799  0.00  0.00    +0.000 A 
ATOM     21 CL   UNL     1       1.146   3.087  20.507  0.00  0.00    +0.000 Cl
ENDBRANCH  14  15
ENDBRANCH  13  14
ENDBRANCH   1  13
TORSDOF 6
ENDMDL
MODEL 3
REMARK VINA RESULT:      -6.7      0.763      1.072
REMARK  Name = 
REMARK  7 active torsions:
REMARK  status: ('A' for Active; 'I' for Inactive)
REMARK    1  A    between atoms: C_1  and  N_2
REMARK    2  A    between atoms: N_2  and  C_3
REMARK    3  A    between atoms: N_2  and  C_11
REMARK    4  A    between atoms: C_3  and  C_4
REMARK    5  A    between atoms: C_11  and  C_12
REMARK    6  A    between atoms: N_16  and  C_17
REMARK    7  A    between atoms: C_17  and  C_18
REMARK                            x       y       z     vdW  Elec       q    Type
REMARK                         _______ _______ _______ _____ _____    ______ ____
ROOT
ATOM      1  C   UNL     1       4.341   6.282  17.182  0.00  0.00    +0.000 C 
ENDROOT
BRANCH   1   2
ATOM      2  C   UNL     1       5.611   5.736  17.772  0.00  0.00    +0.000 A 
ATOM      3  N   UNL     1       5.860   5.660  19.068  0.00  0.00    +0.000 NA
ATOM      4  C   UNL     1       7.112   5.127  19.186  0.00  0.00    +0.000 A 
ATOM      5  C   UNL     1       7.647   4.872  17.949  0.00  0.00    +0.000 A 
ATOM      6  N   UNL     1       6.683   5.254  17.053  0.00  0.00    +0.000 N 
BRANCH   6   7
ATOM      7  C   UNL     1       6.832   5.231  15.616  0.00  0.00    +0.000 C 
BRANCH   7   8
ATOM      8  C   UNL     1       6.084   4.111  14.919  0.00  0.00    +0.000 C 
ATOM      9  F   UNL     1       5.770   3.072  15.717  0.00  0.00    +0.000 F 
ATOM     10  F   UNL     1       4.932   4.575  14.377  0.00  0.00    +0.000 F 
ATOM     11  F   UNL     1       6.825   3.621  13.893  0.00  0.00    +0.000 F 
ENDBRANCH   7   8
ENDBRANCH   6   7
ENDBRANCH   1   2
BRANCH   1  13
ATOM     12  C   UNL     1       2.823   8.048  17.840  0.00  0.00    +0.000 C 
ATOM     13  N   UNL     1       3.330   6.705  18.183  0.00  0.00    +0.000 NA
BRANCH  13  14
ATOM     14  C   UNL     1       2.216   5.720  18.136  0.00  0.00    +0.000 C 
BRANCH  14  15
ATOM     15  C   UNL     1       2.302   4.627  19.182  0.00  0.00    +0.000 A 
ATOM     16  C   UNL     1       2.079   4.951  20.531  0.00  0.00    +0.000 A 
ATOM     17  C   UNL     1       2.148   3.954  21.491  0.00  0.00    +0.000 A 
ATOM     18  N   UNL     1       2.433   2.665  21.213  0.00  0.00    +0.000 NA
ATOM     19  C   UNL     1       2.651   2.366  19.911  0.00  0.00    +0.000 A 
ATOM     20  C   UNL     1       2.605   3.292  18.874  0.00  0.00    +0.000 A 
ATOM     21 CL   UNL     1       2.914   2.739  17.271  0.00  0.00    +0.000 Cl
ENDBRANCH  14  15
ENDBRANCH  13  14
ENDBRANCH   1  13
TORSDOF 6
ENDMDL
MODEL 4
REMARK VINA RESULT:      -6.7      2.492      3.801
REMARK  Name = 
REMARK  7 active torsions:
REMARK  status: ('A' for Active; 'I' for Inactive)
REMARK    1  A    between atoms: C_1  and  N_2
REMARK    2  A    between atoms: N_2  and  C_3
REMARK    3  A    between atoms: N_2  and  C_11
REMARK    4  A    between atoms: C_3  and  C_4
REMARK    5  A    between atoms: C_11  and  C_12
REMARK    6  A    between atoms: N_16  and  C_17
REMARK    7  A    between atoms: C_17  and  C_18
REMARK                            x       y       z     vdW  Elec       q    Type
REMARK                         _______ _______ _______ _____ _____    ______ ____
ROOT
ATOM      1  C   UNL     1       4.527   3.855  17.834  0.00  0.00    +0.000 C 
ENDROOT
BRANCH   1   2
ATOM      2  C   UNL     1       5.436   4.188  16.685  0.00  0.00    +0.000 A 
ATOM      3  N   UNL     1       5.552   3.459  15.588  0.00  0.00    +0.000 NA
ATOM      4  C   UNL     1       6.480   4.087  14.808  0.00  0.00    +0.000 A 
ATOM      5  C   UNL     1       6.949   5.217  15.428  0.00  0.00    +0.000 A 
ATOM      6  N   UNL     1       6.274   5.281  16.620  0.00  0.00    +0.000 N 
BRANCH   6   7
ATOM      7  C   UNL     1       6.493   6.275  17.644  0.00  0.00    +0.000 C 
BRANCH   7   8
ATOM      8  C   UNL     1       7.510   5.885  18.700  0.00  0.00    +0.000 C 
ATOM      9  F   UNL     1       6.981   5.629  19.912  0.00  0.00    +0.000 F 
ATOM     10  F   UNL     1       8.198   4.784  18.312  0.00  0.00    +0.000 F 
ATOM     11  F   UNL     1       8.422   6.876  18.860  0.00  0.00    +0.000 F 
ENDBRANCH   7   8
ENDBRANCH   6   7
ENDBRANCH   1   2
BRANCH   1  13
ATOM     12  C   UNL     1       3.509   1.765  18.507  0.00  0.00    +0.000 C 
ATOM     13  N   UNL     1       3.473   2.858  17.516  0.00  0.00    +0.000 NA
BRANCH  13  14
ATOM     14  C   UNL     1       2.162   3.557  17.584  0.00  0.00    +0.000 C 
BRANCH  14  15
ATOM     15  C   UNL     1       2.138   4.757  18.508  0.00  0.00    +0.000 A 
ATOM     16  C   UNL     1       2.555   6.006  18.018  0.00  0.00    +0.000 A 
ATOM     17  C   UNL     1       2.528   7.110  18.856  0.00  0.00    +0.000 A 
ATOM     18  N   UNL     1       2.130   7.063  20.143  0.00  0.00    +0.000 NA
ATOM     19  C   UNL     1       1.736   5.853  20.606  0.00  0.00    +0.000 A 
ATOM     20  C   UNL     1       1.726   4.687  19.848  0.00  0.00    +0.000 A 
ATOM     21 CL   UNL     1       1.198   3.229  20.599  0.00  0.00    +0.000 Cl
ENDBRANCH  14  15
ENDBRANCH  13  14
ENDBRANCH   1  13
TORSDOF 6
ENDMDL
MODEL 5
REMARK VINA RESULT:      -6.7      1.490      1.904
REMARK  Name = 
REMARK  7 active torsions:
REMARK  status: ('A' for Active; 'I' for Inactive)
REMARK    1  A    between atoms: C_1  and  N_2
REMARK    2  A    between atoms: N_2  and  C_3
REMARK    3  A    between atoms: N_2  and  C_11
REMARK    4  A    between atoms: C_3  and  C_4
REMARK    5  A    between atoms: C_11  and  C_12
REMARK    6  A    between atoms: N_16  and  C_17
REMARK    7  A    between atoms: C_17  and  C_18
REMARK                            x       y       z     vdW  Elec       q    Type
REMARK                         _______ _______ _______ _____ _____    ______ ____
ROOT
ATOM      1  C   UNL     1       4.359   6.433  17.163  0.00  0.00    +0.000 C 
ENDROOT
BRANCH   1   2
ATOM      2  C   UNL     1       5.607   5.836  17.750  0.00  0.00    +0.000 A 
ATOM      3  N   UNL     1       5.858   5.753  19.045  0.00  0.00    +0.000 NA
ATOM      4  C   UNL     1       7.087   5.169  19.160  0.00  0.00    +0.000 A 
ATOM      5  C   UNL     1       7.607   4.889  17.921  0.00  0.00    +0.000 A 
ATOM      6  N   UNL     1       6.656   5.308  17.028  0.00  0.00    +0.000 N 
BRANCH   6   7
ATOM      7  C   UNL     1       6.798   5.276  15.590  0.00  0.00    +0.000 C 
BRANCH   7   8
ATOM      8  C   UNL     1       6.076   4.130  14.908  0.00  0.00    +0.000 C 
ATOM      9  F   UNL     1       6.729   3.617  13.847  0.00  0.00    +0.000 F 
ATOM     10  F   UNL     1       5.855   3.119  15.783  0.00  0.00    +0.000 F 
ATOM     11  F   UNL     1       4.858   4.538  14.471  0.00  0.00    +0.000 F 
ENDBRANCH   7   8
ENDBRANCH   6   7
ENDBRANCH   1   2
BRANCH   1  13
ATOM     12  C   UNL     1       2.781   8.075  17.983  0.00  0.00    +0.000 C 
ATOM     13  N   UNL     1       3.281   6.696  18.149  0.00  0.00    +0.000 NA
BRANCH  13  14
ATOM     14  C   UNL     1       2.184   5.728  17.880  0.00  0.00    +0.000 C 
BRANCH  14  15
ATOM     15  C   UNL     1       2.490   4.303  18.294  0.00  0.00    +0.000 A 
ATOM     16  C   UNL     1       2.759   3.345  17.301  0.00  0.00    +0.000 A 
ATOM     17  C   UNL     1       3.048   2.041  17.673  0.00  0.00    +0.000 A 
ATOM     18  N   UNL     1       3.077   1.617  18.953  0.00  0.00    +0.000 NA
ATOM     19  C   UNL     1       2.810   2.547  19.900  0.00  0.00    +0.000 A 
ATOM     20  C   UNL     1       2.510   3.878  19.631  0.00  0.00    +0.000 A 
ATOM     21 CL   UNL     1       2.189   4.927  20.960  0.00  0.00    +0.000 Cl
ENDBRANCH  14  15
ENDBRANCH  13  14
ENDBRANCH   1  13
TORSDOF 6
ENDMDL
MODEL 6
REMARK VINA RESULT:      -6.7      3.612      6.082
REMARK  Name = 
REMARK  7 active torsions:
REMARK  status: ('A' for Active; 'I' for Inactive)
REMARK    1  A    between atoms: C_1  and  N_2
REMARK    2  A    between atoms: N_2  and  C_3
REMARK    3  A    between atoms: N_2  and  C_11
REMARK    4  A    between atoms: C_3  and  C_4
REMARK    5  A    between atoms: C_11  and  C_12
REMARK    6  A    between atoms: N_16  and  C_17
REMARK    7  A    between atoms: C_17  and  C_18
REMARK                            x       y       z     vdW  Elec       q    Type
REMARK                         _______ _______ _______ _____ _____    ______ ____
ROOT
ATOM      1  C   UNL     1       2.859   4.304  17.574  0.00  0.00    +0.000 C 
ENDROOT
BRANCH   1   2
ATOM      2  C   UNL     1       2.570   5.434  18.522  0.00  0.00    +0.000 A 
ATOM      3  N   UNL     1       2.457   6.701  18.162  0.00  0.00    +0.000 NA
ATOM      4  C   UNL     1       2.212   7.404  19.307  0.00  0.00    +0.000 A 
ATOM      5  C   UNL     1       2.175   6.564  20.391  0.00  0.00    +0.000 A 
ATOM      6  N   UNL     1       2.396   5.310  19.883  0.00  0.00    +0.000 N 
BRANCH   6   7
ATOM      7  C   UNL     1       2.513   4.106  20.673  0.00  0.00    +0.000 C 
BRANCH   7   8
ATOM      8  C   UNL     1       1.277   3.227  20.677  0.00  0.00    +0.000 C 
ATOM      9  F   UNL     1       1.377   2.125  19.909  0.00  0.00    +0.000 F 
ATOM     10  F   UNL     1       0.984   2.824  21.937  0.00  0.00    +0.000 F 
ATOM     11  F   UNL     1       0.203   3.929  20.234  0.00  0.00    +0.000 F 
ENDBRANCH   7   8
ENDBRANCH   6   7
ENDBRANCH   1   2
BRANCH   1  13
ATOM     12  C   UNL     1       3.800   2.084  17.789  0.00  0.00    +0.000 C 
ATOM     13  N   UNL     1       4.084   3.529  17.896  0.00  0.00    +0.000 NA
BRANCH  13  14
ATOM     14  C   UNL     1       5.127   3.911  16.907  0.00  0.00    +0.000 C 
BRANCH  14  15
ATOM     15  C   UNL     1       6.056   5.015  17.371  0.00  0.00    +0.000 A 
ATOM     16  C   UNL     1       6.974   4.749  18.400  0.00  0.00    +0.000 A 
ATOM     17  C   UNL     1       7.832   5.752  18.824  0.00  0.00    +0.000 A 
ATOM     18  N   UNL     1       7.837   6.999  18.310  0.00  0.00    +0.000 NA
ATOM     19  C   UNL     1       6.944   7.245  17.322  0.00  0.00    +0.000 A 
ATOM     20  C   UNL     1       6.043   6.309  16.827  0.00  0.00    +0.000 A 
ATOM     21 CL   UNL     1       4.970   6.794  15.569  0.00  0.00    +0.000 Cl
ENDBRANCH  14  15
ENDBRANCH  13  14
ENDBRANCH   1  13
TORSDOF 6
ENDMDL
MODEL 7
REMARK VINA RESULT:      -6.7      2.454      5.149
REMARK  Name = 
REMARK  7 active torsions:
REMARK  status: ('A' for Active; 'I' for Inactive)
REMARK    1  A    between atoms: C_1  and  N_2
REMARK    2  A    between atoms: N_2  and  C_3
REMARK    3  A    between atoms: N_2  and  C_11
REMARK    4  A    between atoms: C_3  and  C_4
REMARK    5  A    between atoms: C_11  and  C_12
REMARK    6  A    between atoms: N_16  and  C_17
REMARK    7  A    between atoms: C_17  and  C_18
REMARK                            x       y       z     vdW  Elec       q    Type
REMARK                         _______ _______ _______ _____ _____    ______ ____
ROOT
ATOM      1  C   UNL     1       3.560   5.913  19.590  0.00  0.00    +0.000 C 
ENDROOT
BRANCH   1   2
ATOM      2  C   UNL     1       2.765   4.741  20.093  0.00  0.00    +0.000 A 
ATOM      3  N   UNL     1       1.694   4.840  20.862  0.00  0.00    +0.000 NA
ATOM      4  C   UNL     1       1.280   3.562  21.107  0.00  0.00    +0.000 A 
ATOM      5  C   UNL     1       2.106   2.659  20.486  0.00  0.00    +0.000 A 
ATOM      6  N   UNL     1       3.044   3.417  19.835  0.00  0.00    +0.000 N 
BRANCH   6   7
ATOM      7  C   UNL     1       4.168   2.888  19.096  0.00  0.00    +0.000 C 
BRANCH   7   8
ATOM      8  C   UNL     1       3.841   2.429  17.688  0.00  0.00    +0.000 C 
ATOM      9  F   UNL     1       4.726   2.829  16.755  0.00  0.00    +0.000 F 
ATOM     10  F   UNL     1       3.770   1.077  17.634  0.00  0.00    +0.000 F 
ATOM     11  F   UNL     1       2.624   2.897  17.314  0.00  0.00    +0.000 F 
ENDBRANCH   7   8
ENDBRANCH   6   7
ENDBRANCH   1   2
BRANCH   1  13
ATOM     12  C   UNL     1       2.139   7.130  18.054  0.00  0.00    +0.000 C 
ATOM     13  N   UNL     1       3.321   6.253  18.165  0.00  0.00    +0.000 NA
BRANCH  13  14
ATOM     14  C   UNL     1       4.526   6.967  17.666  0.00  0.00    +0.000 C 
BRANCH  14  15
ATOM     15  C   UNL     1       5.516   6.089  16.929  0.00  0.00    +0.000 A 
ATOM     16  C   UNL     1       5.345   5.873  15.551  0.00  0.00    +0.000 A 
ATOM     17  C   UNL     1       6.251   5.077  14.868  0.00  0.00    +0.000 A 
ATOM     18  N   UNL     1       7.304   4.471  15.453  0.00  0.00    +0.000 NA
ATOM     19  C   UNL     1       7.455   4.681  16.782  0.00  0.00    +0.000 A 
ATOM     20  C   UNL     1       6.603   5.462  17.556  0.00  0.00    +0.000 A 
ATOM     21 CL   UNL     1       6.941   5.618  19.239  0.00  0.00    +0.000 Cl
ENDBRANCH  14  15
ENDBRANCH  13  14
ENDBRANCH   1  13
TORSDOF 6
ENDMDL
MODEL 8
REMARK VINA RESULT:      -6.6      2.302      3.797
REMARK  Name = 
REMARK  7 active torsions:
REMARK  status: ('A' for Active; 'I' for Inactive)
REMARK    1  A    between atoms: C_1  and  N_2
REMARK    2  A    between atoms: N_2  and  C_3
REMARK    3  A    between atoms: N_2  and  C_11
REMARK    4  A    between atoms: C_3  and  C_4
REMARK    5  A    between atoms: C_11  and  C_12
REMARK    6  A    between atoms: N_16  and  C_17
REMARK    7  A    between atoms: C_17  and  C_18
REMARK                            x       y       z     vdW  Elec       q    Type
REMARK                         _______ _______ _______ _____ _____    ______ ____
ROOT
ATOM      1  C   UNL     1       4.171   4.310  18.988  0.00  0.00    +0.000 C 
ENDROOT
BRANCH   1   2
ATOM      2  C   UNL     1       5.590   4.734  18.736  0.00  0.00    +0.000 A 
ATOM      3  N   UNL     1       6.352   5.355  19.620  0.00  0.00    +0.000 NA
ATOM      4  C   UNL     1       7.551   5.575  19.004  0.00  0.00    +0.000 A 
ATOM      5  C   UNL     1       7.532   5.089  17.722  0.00  0.00    +0.000 A 
ATOM      6  N   UNL     1       6.284   4.546  17.560  0.00  0.00    +0.000 N 
BRANCH   6   7
ATOM      7  C   UNL     1       5.782   3.973  16.332  0.00  0.00    +0.000 C 
BRANCH   7   8
ATOM      8  C   UNL     1       5.759   4.925  15.152  0.00  0.00    +0.000 C 
ATOM      9  F   UNL     1       6.976   5.222  14.654  0.00  0.00    +0.000 F 
ATOM     10  F   UNL     1       5.016   4.412  14.142  0.00  0.00    +0.000 F 
ATOM     11  F   UNL     1       5.174   6.097  15.507  0.00  0.00    +0.000 F 
ENDBRANCH   7   8
ENDBRANCH   6   7
ENDBRANCH   1   2
BRANCH   1  13
ATOM     12  C   UNL     1       1.996   4.499  17.943  0.00  0.00    +0.000 C 
ATOM     13  N   UNL     1       3.147   5.255  18.475  0.00  0.00    +0.000 NA
BRANCH  13  14
ATOM     14  C   UNL     1       2.708   6.102  19.615  0.00  0.00    +0.000 C 
BRANCH  14  15
ATOM     15  C   UNL     1       2.250   7.492  19.224  0.00  0.00    +0.000 A 
ATOM     16  C   UNL     1       2.597   7.996  17.959  0.00  0.00    +0.000 A 
ATOM     17  C   UNL     1       2.175   9.264  17.591  0.00  0.00    +0.000 A 
ATOM     18  N   UNL     1       1.447  10.071  18.390  0.00  0.00    +0.000 NA
ATOM     19  C   UNL     1       1.124   9.577  19.608  0.00  0.00    +0.000 A 
ATOM     20  C   UNL     1       1.498   8.320  20.071  0.00  0.00    +0.000 A 
ATOM     21 CL   UNL     1       1.004   7.853  21.655  0.00  0.00    +0.000 Cl
ENDBRANCH  14  15
ENDBRANCH  13  14
ENDBRANCH   1  13
TORSDOF 6
ENDMDL
MODEL 9
REMARK VINA RESULT:      -6.6      3.886      6.144
REMARK  Name = 
REMARK  7 active torsions:
REMARK  status: ('A' for Active; 'I' for Inactive)
REMARK    1  A    between atoms: C_1  and  N_2
REMARK    2  A    between atoms: N_2  and  C_3
REMARK    3  A    between atoms: N_2  and  C_11
REMARK    4  A    between atoms: C_3  and  C_4
REMARK    5  A    between atoms: C_11  and  C_12
REMARK    6  A    between atoms: N_16  and  C_17
REMARK    7  A    between atoms: C_17  and  C_18
REMARK                            x       y       z     vdW  Elec       q    Type
REMARK                         _______ _______ _______ _____ _____    ______ ____
ROOT
ATOM      1  C   UNL     1       3.875   5.193  19.060  0.00  0.00    +0.000 C 
ENDROOT
BRANCH   1   2
ATOM      2  C   UNL     1       3.505   3.796  18.649  0.00  0.00    +0.000 A 
ATOM      3  N   UNL     1       4.107   3.115  17.690  0.00  0.00    +0.000 NA
ATOM      4  C   UNL     1       3.469   1.909  17.618  0.00  0.00    +0.000 A 
ATOM      5  C   UNL     1       2.458   1.842  18.542  0.00  0.00    +0.000 A 
ATOM      6  N   UNL     1       2.491   3.044  19.202  0.00  0.00    +0.000 N 
BRANCH   6   7
ATOM      7  C   UNL     1       1.555   3.454  20.224  0.00  0.00    +0.000 C 
BRANCH   7   8
ATOM      8  C   UNL     1       1.961   3.087  21.639  0.00  0.00    +0.000 C 
ATOM      9  F   UNL     1       1.000   2.462  22.346  0.00  0.00    +0.000 F 
ATOM     10  F   UNL     1       3.051   2.282  21.626  0.00  0.00    +0.000 F 
ATOM     11  F   UNL     1       2.309   4.201  22.329  0.00  0.00    +0.000 F 
ENDBRANCH   7   8
ENDBRANCH   6   7
ENDBRANCH   1   2
BRANCH   1  13
ATOM     12  C   UNL     1       2.527   7.191  18.843  0.00  0.00    +0.000 C 
ATOM     13  N   UNL     1       3.413   6.252  18.128  0.00  0.00    +0.000 NA
BRANCH  13  14
ATOM     14  C   UNL     1       4.618   6.973  17.637  0.00  0.00    +0.000 C 
BRANCH  14  15
ATOM     15  C   UNL     1       5.578   6.116  16.837  0.00  0.00    +0.000 A 
ATOM     16  C   UNL     1       5.263   5.797  15.506  0.00  0.00    +0.000 A 
ATOM     17  C   UNL     1       6.141   5.020  14.765  0.00  0.00    +0.000 A 
ATOM     18  N   UNL     1       7.299   4.530  15.252  0.00  0.00    +0.000 NA
ATOM     19  C   UNL     1       7.589   4.840  16.538  0.00  0.00    +0.000 A 
ATOM     20  C   UNL     1       6.777   5.610  17.363  0.00  0.00    +0.000 A 
ATOM     21 CL   UNL     1       7.298   5.903  18.979  0.00  0.00    +0.000 Cl
ENDBRANCH  14  15
ENDBRANCH  13  14
ENDBRANCH   1  13
TORSDOF 6
ENDMDL
