MODEL 1
REMARK VINA RESULT:      -7.8      0.000      0.000
REMARK  Name = 
REMARK  6 active torsions:
REMARK  status: ('A' for Active; 'I' for Inactive)
REMARK    1  A    between atoms: C_5  and  C_6
REMARK    2  A    between atoms: C_8  and  N_9
REMARK    3  A    between atoms: N_10  and  C_11
REMARK    4  A    between atoms: C_14  and  N_15
REMARK    5  A    between atoms: C_22  and  O_23
REMARK    6  A    between atoms: N_24  and  C_25
REMARK                            x       y       z     vdW  Elec       q    Type
REMARK                         _______ _______ _______ _____ _____    ______ ____
ROOT
ATOM      1  C   UNL     1       0.414  10.637  20.334  0.00  0.00    +0.000 A 
ATOM      2  C   UNL     1       1.123   9.901  19.360  0.00  0.00    +0.000 A 
ATOM      3  C   UNL     1       1.627   8.613  19.595  0.00  0.00    +0.000 A 
ATOM      4  C   UNL     1       1.409   8.026  20.847  0.00  0.00    +0.000 A 
ATOM      5  C   UNL     1       0.688   8.698  21.829  0.00  0.00    +0.000 A 
ATOM      6  C   UNL     1       0.201   9.981  21.563  0.00  0.00    +0.000 A 
ENDROOT
BRANCH   1  11
ATOM      7  O   UNL     1      -0.644  14.870  18.504  0.00  0.00    +0.000 OA
ATOM      8  C   UNL     1      -0.423  13.746  18.891  0.00  0.00    +0.000 C 
ATOM      9  C   UNL     1      -1.275  12.474  19.197  0.00  0.00    +0.000 C 
ATOM     10 CL   UNL     1      -1.675  11.528  17.710  0.00  0.00    +0.000 Cl
ATOM     11  C   UNL     1      -0.058  12.127  20.117  0.00  0.00    +0.000 C 
ATOM     12  N   UNL     1       0.710  13.069  19.260  0.00  0.00    +0.000 N 
BRANCH  12  13
ATOM     13  C   UNL     1       2.005  13.558  19.480  0.00  0.00    +0.000 A 
ATOM     14  C   UNL     1       2.478  13.777  20.780  0.00  0.00    +0.000 A 
ATOM     15  C   UNL     1       3.770  14.257  21.002  0.00  0.00    +0.000 A 
ATOM     16  C   UNL     1       4.592  14.561  19.922  0.00  0.00    +0.000 A 
ATOM     17 BR   UNL     1       6.341  15.205  20.228  0.00  0.00    +0.000 Br
ATOM     18  C   UNL     1       4.128  14.390  18.622  0.00  0.00    +0.000 A 
ATOM     19  C   UNL     1       2.841  13.882  18.404  0.00  0.00    +0.000 A 
ENDBRANCH  12  13
ENDBRANCH   1  11
BRANCH   3  20
ATOM     20  N   UNL     1       2.416   8.020  18.591  0.00  0.00    +0.000 NA
ATOM     21  N   UNL     1       2.764   6.857  18.880  0.00  0.00    +0.000 NA
BRANCH  21  22
ATOM     22  C   UNL     1       3.599   6.302  17.890  0.00  0.00    +0.000 A 
ATOM     23  C   UNL     1       4.373   7.177  17.114  0.00  0.00    +0.000 A 
ATOM     24  C   UNL     1       5.239   6.689  16.127  0.00  0.00    +0.000 A 
ATOM     25  C   UNL     1       5.340   5.311  15.919  0.00  0.00    +0.000 A 
ATOM     26  C   UNL     1       4.581   4.418  16.686  0.00  0.00    +0.000 A 
ATOM     27  C   UNL     1       3.721   4.920  17.668  0.00  0.00    +0.000 A 
BRANCH  25  28
ATOM     28  N   UNL     1       6.252   4.794  14.892  0.00  0.00    +0.000 N 
ATOM     29  O   UNL     1       5.785   4.004  14.055  0.00  0.00    +0.000 OA
ATOM     30  O   UNL     1       7.428   5.170  14.920  0.00  0.00    +0.000 OA
ENDBRANCH  25  28
ENDBRANCH  21  22
ENDBRANCH   3  20
BRANCH   6  31
ATOM     31  O   UNL     1      -0.488  10.650  22.536  0.00  0.00    +0.000 OA
ATOM     32  H   UNL     1      -1.246  10.113  22.826  0.00  0.00    +0.000 HD
ENDBRANCH   6  31
TORSDOF 6
ENDMDL
MODEL 2
REMARK VINA RESULT:      -7.7      6.197      7.890
REMARK  Name = 
REMARK  6 active torsions:
REMARK  status: ('A' for Active; 'I' for Inactive)
REMARK    1  A    between atoms: C_5  and  C_6
REMARK    2  A    between atoms: C_8  and  N_9
REMARK    3  A    between atoms: N_10  and  C_11
REMARK    4  A    between atoms: C_14  and  N_15
REMARK    5  A    between atoms: C_22  and  O_23
REMARK    6  A    between atoms: N_24  and  C_25
REMARK                            x       y       z     vdW  Elec       q    Type
REMARK                         _______ _______ _______ _____ _____    ______ ____
ROOT
ATOM      1  C   UNL     1      -4.633  13.026  22.663  0.00  0.00    +0.000 A 
ATOM      2  C   UNL     1      -4.523  12.610  21.318  0.00  0.00    +0.000 A 
ATOM      3  C   UNL     1      -5.620  12.171  20.562  0.00  0.00    +0.000 A 
ATOM      4  C   UNL     1      -6.884  12.153  21.164  0.00  0.00    +0.000 A 
ATOM      5  C   UNL     1      -7.050  12.584  22.476  0.00  0.00    +0.000 A 
ATOM      6  C   UNL     1      -5.936  13.014  23.202  0.00  0.00    +0.000 A 
ENDROOT
BRANCH   1  11
ATOM      7  O   UNL     1      -0.531  14.749  24.271  0.00  0.00    +0.000 OA
ATOM      8  C   UNL     1      -1.599  14.403  23.821  0.00  0.00    +0.000 C 
ATOM      9  C   UNL     1      -3.074  14.903  23.913  0.00  0.00    +0.000 C 
ATOM     10 CL   UNL     1      -3.418  16.274  22.786  0.00  0.00    +0.000 Cl
ATOM     11  C   UNL     1      -3.390  13.414  23.552  0.00  0.00    +0.000 C 
ATOM     12  N   UNL     1      -2.005  13.373  23.013  0.00  0.00    +0.000 N 
BRANCH  12  13
ATOM     13  C   UNL     1      -1.290  12.245  22.584  0.00  0.00    +0.000 A 
ATOM     14  C   UNL     1      -1.306  11.059  23.330  0.00  0.00    +0.000 A 
ATOM     15  C   UNL     1      -0.602   9.933  22.901  0.00  0.00    +0.000 A 
ATOM     16  C   UNL     1       0.160   9.992  21.740  0.00  0.00    +0.000 A 
ATOM     17 BR   UNL     1       1.107   8.464  21.162  0.00  0.00    +0.000 Br
ATOM     18  C   UNL     1       0.223  11.172  21.006  0.00  0.00    +0.000 A 
ATOM     19  C   UNL     1      -0.507  12.291  21.424  0.00  0.00    +0.000 A 
ENDBRANCH  12  13
ENDBRANCH   1  11
BRANCH   3  20
ATOM     20  N   UNL     1      -5.374  11.673  19.269  0.00  0.00    +0.000 NA
ATOM     21  N   UNL     1      -4.157  11.531  19.034  0.00  0.00    +0.000 NA
BRANCH  21  22
ATOM     22  C   UNL     1      -3.929  11.085  17.717  0.00  0.00    +0.000 A 
ATOM     23  C   UNL     1      -4.637  11.707  16.678  0.00  0.00    +0.000 A 
ATOM     24  C   UNL     1      -4.442  11.325  15.345  0.00  0.00    +0.000 A 
ATOM     25  C   UNL     1      -3.521  10.317  15.044  0.00  0.00    +0.000 A 
ATOM     26  C   UNL     1      -2.799   9.686  16.065  0.00  0.00    +0.000 A 
ATOM     27  C   UNL     1      -3.004  10.078  17.391  0.00  0.00    +0.000 A 
BRANCH  25  28
ATOM     28  N   UNL     1      -3.307   9.919  13.649  0.00  0.00    +0.000 N 
ATOM     29  O   UNL     1      -2.152   9.613  13.309  0.00  0.00    +0.000 OA
ATOM     30  O   UNL     1      -4.284   9.911  12.892  0.00  0.00    +0.000 OA
ENDBRANCH  25  28
ENDBRANCH  21  22
ENDBRANCH   3  20
BRANCH   6  31
ATOM     31  O   UNL     1      -6.095  13.415  24.499  0.00  0.00    +0.000 OA
ATOM     32  H   UNL     1      -5.421  14.082  24.718  0.00  0.00    +0.000 HD
ENDBRANCH   6  31
TORSDOF 6
ENDMDL
MODEL 3
REMARK VINA RESULT:      -7.6      0.828      1.229
REMARK  Name = 
REMARK  6 active torsions:
REMARK  status: ('A' for Active; 'I' for Inactive)
REMARK    1  A    between atoms: C_5  and  C_6
REMARK    2  A    between atoms: C_8  and  N_9
REMARK    3  A    between atoms: N_10  and  C_11
REMARK    4  A    between atoms: C_14  and  N_15
REMARK    5  A    between atoms: C_22  and  O_23
REMARK    6  A    between atoms: N_24  and  C_25
REMARK                            x       y       z     vdW  Elec       q    Type
REMARK                         _______ _______ _______ _____ _____    ______ ____
ROOT
ATOM      1  C   UNL     1       0.498   9.777  20.112  0.00  0.00    +0.000 A 
ATOM      2  C   UNL     1       1.289   9.198  19.096  0.00  0.00    +0.000 A 
ATOM      3  C   UNL     1       1.989   7.994  19.267  0.00  0.00    +0.000 A 
ATOM      4  C   UNL     1       1.893   7.332  20.497  0.00  0.00    +0.000 A 
ATOM      5  C   UNL     1       1.101   7.846  21.518  0.00  0.00    +0.000 A 
ATOM      6  C   UNL     1       0.417   9.047  21.315  0.00  0.00    +0.000 A 
ENDROOT
BRANCH   1  11
ATOM      7  O   UNL     1      -1.246  13.861  18.480  0.00  0.00    +0.000 OA
ATOM      8  C   UNL     1      -0.845  12.771  18.817  0.00  0.00    +0.000 C 
ATOM      9  C   UNL     1      -1.483  11.373  19.090  0.00  0.00    +0.000 C 
ATOM     10 CL   UNL     1      -1.778  10.431  17.575  0.00  0.00    +0.000 Cl
ATOM     11  C   UNL     1      -0.202  11.183  19.967  0.00  0.00    +0.000 C 
ATOM     12  N   UNL     1       0.388  12.262  19.131  0.00  0.00    +0.000 N 
BRANCH  12  13
ATOM     13  C   UNL     1       1.600  12.936  19.341  0.00  0.00    +0.000 A 
ATOM     14  C   UNL     1       1.991  13.327  20.628  0.00  0.00    +0.000 A 
ATOM     15  C   UNL     1       3.200  13.992  20.839  0.00  0.00    +0.000 A 
ATOM     16  C   UNL     1       4.016  14.307  19.759  0.00  0.00    +0.000 A 
ATOM     17 BR   UNL     1       5.653  15.202  20.052  0.00  0.00    +0.000 Br
ATOM     18  C   UNL     1       3.628  13.965  18.468  0.00  0.00    +0.000 A 
ATOM     19  C   UNL     1       2.427  13.275  18.262  0.00  0.00    +0.000 A 
ENDBRANCH  12  13
ENDBRANCH   1  11
BRANCH   3  20
ATOM     20  N   UNL     1       2.837   7.570  18.226  0.00  0.00    +0.000 NA
ATOM     21  N   UNL     1       3.213   6.389  18.366  0.00  0.00    +0.000 NA
BRANCH  21  22
ATOM     22  C   UNL     1       4.104   6.002  17.345  0.00  0.00    +0.000 A 
ATOM     23  C   UNL     1       4.294   4.630  17.121  0.00  0.00    +0.000 A 
ATOM     24  C   UNL     1       5.150   4.179  16.108  0.00  0.00    +0.000 A 
ATOM     25  C   UNL     1       5.817   5.108  15.304  0.00  0.00    +0.000 A 
ATOM     26  C   UNL     1       5.638   6.482  15.507  0.00  0.00    +0.000 A 
ATOM     27  C   UNL     1       4.780   6.918  16.521  0.00  0.00    +0.000 A 
BRANCH  25  28
ATOM     28  N   UNL     1       6.708   4.640  14.237  0.00  0.00    +0.000 N 
ATOM     29  O   UNL     1       6.342   3.656  13.572  0.00  0.00    +0.000 OA
ATOM     30  O   UNL     1       7.770   5.247  14.062  0.00  0.00    +0.000 OA
ENDBRANCH  25  28
ENDBRANCH  21  22
ENDBRANCH   3  20
BRANCH   6  31
ATOM     31  O   UNL     1      -0.344   9.564  22.328  0.00  0.00    +0.000 OA
ATOM     32  H   UNL     1      -1.231   9.779  21.989  0.00  0.00    +0.000 HD
ENDBRANCH   6  31
TORSDOF 6
ENDMDL
MODEL 4
REMARK VINA RESULT:      -7.6      0.175      1.353
REMARK  Name = 
REMARK  6 active torsions:
REMARK  status: ('A' for Active; 'I' for Inactive)
REMARK    1  A    between atoms: C_5  and  C_6
REMARK    2  A    between atoms: C_8  and  N_9
REMARK    3  A    between atoms: N_10  and  C_11
REMARK    4  A    between atoms: C_14  and  N_15
REMARK    5  A    between atoms: C_22  and  O_23
REMARK    6  A    between atoms: N_24  and  C_25
REMARK                            x       y       z     vdW  Elec       q    Type
REMARK                         _______ _______ _______ _____ _____    ______ ____
ROOT
ATOM      1  C   UNL     1       0.342  10.635  20.329  0.00  0.00    +0.000 A 
ATOM      2  C   UNL     1       1.098   9.923  19.372  0.00  0.00    +0.000 A 
ATOM      3  C   UNL     1       1.608   8.637  19.607  0.00  0.00    +0.000 A 
ATOM      4  C   UNL     1       1.351   8.029  20.841  0.00  0.00    +0.000 A 
ATOM      5  C   UNL     1       0.584   8.677  21.804  0.00  0.00    +0.000 A 
ATOM      6  C   UNL     1       0.091   9.957  21.539  0.00  0.00    +0.000 A 
ENDROOT
BRANCH   1  11
ATOM      7  O   UNL     1      -0.700  14.882  18.522  0.00  0.00    +0.000 OA
ATOM      8  C   UNL     1      -0.479  13.755  18.901  0.00  0.00    +0.000 C 
ATOM      9  C   UNL     1      -1.325  12.467  19.153  0.00  0.00    +0.000 C 
ATOM     10 CL   UNL     1      -1.653  11.539  17.637  0.00  0.00    +0.000 Cl
ATOM     11  C   UNL     1      -0.141  12.121  20.116  0.00  0.00    +0.000 C 
ATOM     12  N   UNL     1       0.647  13.087  19.304  0.00  0.00    +0.000 N 
BRANCH  12  13
ATOM     13  C   UNL     1       1.926  13.589  19.583  0.00  0.00    +0.000 A 
ATOM     14  C   UNL     1       2.830  13.866  18.549  0.00  0.00    +0.000 A 
ATOM     15  C   UNL     1       4.101  14.373  18.825  0.00  0.00    +0.000 A 
ATOM     16  C   UNL     1       4.497  14.574  20.142  0.00  0.00    +0.000 A 
ATOM     17 BR   UNL     1       6.216  15.265  20.508  0.00  0.00    +0.000 Br
ATOM     18  C   UNL     1       3.631  14.267  21.186  0.00  0.00    +0.000 A 
ATOM     19  C   UNL     1       2.347  13.784  20.905  0.00  0.00    +0.000 A 
ENDBRANCH  12  13
ENDBRANCH   1  11
BRANCH   3  20
ATOM     20  N   UNL     1       2.443   8.070  18.626  0.00  0.00    +0.000 NA
ATOM     21  N   UNL     1       2.716   6.875  18.861  0.00  0.00    +0.000 NA
BRANCH  21  22
ATOM     22  C   UNL     1       3.597   6.342  17.899  0.00  0.00    +0.000 A 
ATOM     23  C   UNL     1       3.592   4.954  17.699  0.00  0.00    +0.000 A 
ATOM     24  C   UNL     1       4.429   4.363  16.744  0.00  0.00    +0.000 A 
ATOM     25  C   UNL     1       5.271   5.168  15.972  0.00  0.00    +0.000 A 
ATOM     26  C   UNL     1       5.288   6.557  16.151  0.00  0.00    +0.000 A 
ATOM     27  C   UNL     1       4.447   7.133  17.108  0.00  0.00    +0.000 A 
BRANCH  25  28
ATOM     28  N   UNL     1       6.143   4.554  14.964  0.00  0.00    +0.000 N 
ATOM     29  O   UNL     1       7.371   4.654  15.129  0.00  0.00    +0.000 OA
ATOM     30  O   UNL     1       5.610   3.976  14.012  0.00  0.00    +0.000 OA
ENDBRANCH  25  28
ENDBRANCH  21  22
ENDBRANCH   3  20
BRANCH   6  31
ATOM     31  O   UNL     1      -0.643  10.603  22.495  0.00  0.00    +0.000 OA
ATOM     32  H   UNL     1      -0.075  10.804  23.259  0.00  0.00    +0.000 HD
ENDBRANCH   6  31
TORSDOF 6
ENDMDL
MODEL 5
REMARK VINA RESULT:      -7.6      1.319      1.681
REMARK  Name = 
REMARK  6 active torsions:
REMARK  status: ('A' for Active; 'I' for Inactive)
REMARK    1  A    between atoms: C_5  and  C_6
REMARK    2  A    between atoms: C_8  and  N_9
REMARK    3  A    between atoms: N_10  and  C_11
REMARK    4  A    between atoms: C_14  and  N_15
REMARK    5  A    between atoms: C_22  and  O_23
REMARK    6  A    between atoms: N_24  and  C_25
REMARK                            x       y       z     vdW  Elec       q    Type
REMARK                         _______ _______ _______ _____ _____    ______ ____
ROOT
ATOM      1  C   UNL     1      -0.086  11.240  21.300  0.00  0.00    +0.000 A 
ATOM      2  C   UNL     1       0.621  10.512  20.318  0.00  0.00    +0.000 A 
ATOM      3  C   UNL     1       0.971   9.163  20.474  0.00  0.00    +0.000 A 
ATOM      4  C   UNL     1       0.596   8.505  21.652  0.00  0.00    +0.000 A 
ATOM      5  C   UNL     1      -0.130   9.170  22.634  0.00  0.00    +0.000 A 
ATOM      6  C   UNL     1      -0.462  10.514  22.448  0.00  0.00    +0.000 A 
ENDROOT
BRANCH   1  11
ATOM      7  O   UNL     1      -1.260  15.557  19.760  0.00  0.00    +0.000 OA
ATOM      8  C   UNL     1      -1.047  14.420  20.109  0.00  0.00    +0.000 C 
ATOM      9  C   UNL     1      -1.829  13.318  20.891  0.00  0.00    +0.000 C 
ATOM     10 CL   UNL     1      -3.008  12.426  19.851  0.00  0.00    +0.000 Cl
ATOM     11  C   UNL     1      -0.387  12.784  21.181  0.00  0.00    +0.000 C 
ATOM     12  N   UNL     1       0.017  13.565  19.981  0.00  0.00    +0.000 N 
BRANCH  12  13
ATOM     13  C   UNL     1       1.320  13.829  19.536  0.00  0.00    +0.000 A 
ATOM     14  C   UNL     1       2.198  14.605  20.304  0.00  0.00    +0.000 A 
ATOM     15  C   UNL     1       3.498  14.862  19.865  0.00  0.00    +0.000 A 
ATOM     16  C   UNL     1       3.923  14.379  18.633  0.00  0.00    +0.000 A 
ATOM     17 BR   UNL     1       5.684  14.727  18.048  0.00  0.00    +0.000 Br
ATOM     18  C   UNL     1       3.054  13.642  17.835  0.00  0.00    +0.000 A 
ATOM     19  C   UNL     1       1.760  13.362  18.291  0.00  0.00    +0.000 A 
ENDBRANCH  12  13
ENDBRANCH   1  11
BRANCH   3  20
ATOM     20  N   UNL     1       1.774   8.570  19.481  0.00  0.00    +0.000 NA
ATOM     21  N   UNL     1       2.068   7.387  19.746  0.00  0.00    +0.000 NA
BRANCH  21  22
ATOM     22  C   UNL     1       2.918   6.830  18.769  0.00  0.00    +0.000 A 
ATOM     23  C   UNL     1       3.077   5.437  18.751  0.00  0.00    +0.000 A 
ATOM     24  C   UNL     1       3.891   4.819  17.793  0.00  0.00    +0.000 A 
ATOM     25  C   UNL     1       4.545   5.600  16.836  0.00  0.00    +0.000 A 
ATOM     26  C   UNL     1       4.396   6.992  16.832  0.00  0.00    +0.000 A 
ATOM     27  C   UNL     1       3.580   7.596  17.794  0.00  0.00    +0.000 A 
BRANCH  25  28
ATOM     28  N   UNL     1       5.392   4.957  15.826  0.00  0.00    +0.000 N 
ATOM     29  O   UNL     1       5.615   3.741  15.952  0.00  0.00    +0.000 OA
ATOM     30  O   UNL     1       5.836   5.658  14.911  0.00  0.00    +0.000 OA
ENDBRANCH  25  28
ENDBRANCH  21  22
ENDBRANCH   3  20
BRANCH   6  31
ATOM     31  O   UNL     1      -1.155  11.175  23.425  0.00  0.00    +0.000 OA
ATOM     32  H   UNL     1      -1.558  11.977  23.050  0.00  0.00    +0.000 HD
ENDBRANCH   6  31
TORSDOF 6
ENDMDL
MODEL 6
REMARK VINA RESULT:      -7.5      1.414      1.604
REMARK  Name = 
REMARK  6 active torsions:
REMARK  status: ('A' for Active; 'I' for Inactive)
REMARK    1  A    between atoms: C_5  and  C_6
REMARK    2  A    between atoms: C_8  and  N_9
REMARK    3  A    between atoms: N_10  and  C_11
REMARK    4  A    between atoms: C_14  and  N_15
REMARK    5  A    between atoms: C_22  and  O_23
REMARK    6  A    between atoms: N_24  and  C_25
REMARK                            x       y       z     vdW  Elec       q    Type
REMARK                         _______ _______ _______ _____ _____    ______ ____
ROOT
ATOM      1  C   UNL     1      -0.106  11.376  21.419  0.00  0.00    +0.000 A 
ATOM      2  C   UNL     1       0.589  10.610  20.458  0.00  0.00    +0.000 A 
ATOM      3  C   UNL     1       0.932   9.265  20.659  0.00  0.00    +0.000 A 
ATOM      4  C   UNL     1       0.563   8.651  21.861  0.00  0.00    +0.000 A 
ATOM      5  C   UNL     1      -0.151   9.354  22.826  0.00  0.00    +0.000 A 
ATOM      6  C   UNL     1      -0.477  10.693  22.595  0.00  0.00    +0.000 A 
ENDROOT
BRANCH   1  11
ATOM      7  O   UNL     1      -1.246  15.647  19.733  0.00  0.00    +0.000 OA
ATOM      8  C   UNL     1      -1.042  14.521  20.120  0.00  0.00    +0.000 C 
ATOM      9  C   UNL     1      -1.835  13.448  20.931  0.00  0.00    +0.000 C 
ATOM     10 CL   UNL     1      -3.010  12.529  19.910  0.00  0.00    +0.000 Cl
ATOM     11  C   UNL     1      -0.398  12.917  21.249  0.00  0.00    +0.000 C 
ATOM     12  N   UNL     1       0.020  13.657  20.029  0.00  0.00    +0.000 N 
BRANCH  12  13
ATOM     13  C   UNL     1       1.327  13.901  19.585  0.00  0.00    +0.000 A 
ATOM     14  C   UNL     1       2.208  14.684  20.343  0.00  0.00    +0.000 A 
ATOM     15  C   UNL     1       3.512  14.922  19.907  0.00  0.00    +0.000 A 
ATOM     16  C   UNL     1       3.940  14.411  18.688  0.00  0.00    +0.000 A 
ATOM     17 BR   UNL     1       5.708  14.732  18.105  0.00  0.00    +0.000 Br
ATOM     18  C   UNL     1       3.069  13.665  17.899  0.00  0.00    +0.000 A 
ATOM     19  C   UNL     1       1.770  13.406  18.353  0.00  0.00    +0.000 A 
ENDBRANCH  12  13
ENDBRANCH   1  11
BRANCH   3  20
ATOM     20  N   UNL     1       1.724   8.633  19.681  0.00  0.00    +0.000 NA
ATOM     21  N   UNL     1       1.911   7.424  19.924  0.00  0.00    +0.000 NA
BRANCH  21  22
ATOM     22  C   UNL     1       2.751   6.823  18.965  0.00  0.00    +0.000 A 
ATOM     23  C   UNL     1       3.233   7.623  17.918  0.00  0.00    +0.000 A 
ATOM     24  C   UNL     1       4.088   7.093  16.943  0.00  0.00    +0.000 A 
ATOM     25  C   UNL     1       4.476   5.752  17.022  0.00  0.00    +0.000 A 
ATOM     26  C   UNL     1       4.011   4.937  18.061  0.00  0.00    +0.000 A 
ATOM     27  C   UNL     1       3.158   5.480  19.027  0.00  0.00    +0.000 A 
BRANCH  25  28
ATOM     28  N   UNL     1       5.378   5.195  16.008  0.00  0.00    +0.000 N 
ATOM     29  O   UNL     1       5.865   5.980  15.177  0.00  0.00    +0.000 OA
ATOM     30  O   UNL     1       5.601   3.980  16.036  0.00  0.00    +0.000 OA
ENDBRANCH  25  28
ENDBRANCH  21  22
ENDBRANCH   3  20
BRANCH   6  31
ATOM     31  O   UNL     1      -1.158  11.391  23.553  0.00  0.00    +0.000 OA
ATOM     32  H   UNL     1      -0.561  11.590  24.296  0.00  0.00    +0.000 HD
ENDBRANCH   6  31
TORSDOF 6
ENDMDL
MODEL 7
REMARK VINA RESULT:      -7.4      3.028      4.465
REMARK  Name = 
REMARK  6 active torsions:
REMARK  status: ('A' for Active; 'I' for Inactive)
REMARK    1  A    between atoms: C_5  and  C_6
REMARK    2  A    between atoms: C_8  and  N_9
REMARK    3  A    between atoms: N_10  and  C_11
REMARK    4  A    between atoms: C_14  and  N_15
REMARK    5  A    between atoms: C_22  and  O_23
REMARK    6  A    between atoms: N_24  and  C_25
REMARK                            x       y       z     vdW  Elec       q    Type
REMARK                         _______ _______ _______ _____ _____    ______ ____
ROOT
ATOM      1  C   UNL     1       0.629  10.678  19.324  0.00  0.00    +0.000 A 
ATOM      2  C   UNL     1       1.367   9.845  18.455  0.00  0.00    +0.000 A 
ATOM      3  C   UNL     1       1.825   8.572  18.824  0.00  0.00    +0.000 A 
ATOM      4  C   UNL     1       1.529   8.099  20.108  0.00  0.00    +0.000 A 
ATOM      5  C   UNL     1       0.777   8.868  20.990  0.00  0.00    +0.000 A 
ATOM      6  C   UNL     1       0.337  10.133  20.592  0.00  0.00    +0.000 A 
ENDROOT
BRANCH   1  11
ATOM      7  O   UNL     1      -0.926  15.144  19.445  0.00  0.00    +0.000 OA
ATOM      8  C   UNL     1      -0.472  14.025  19.498  0.00  0.00    +0.000 C 
ATOM      9  C   UNL     1       0.953  13.391  19.556  0.00  0.00    +0.000 C 
ATOM     10 CL   UNL     1       1.654  13.397  21.222  0.00  0.00    +0.000 Cl
ATOM     11  C   UNL     1       0.207  12.152  18.958  0.00  0.00    +0.000 C 
ATOM     12  N   UNL     1      -1.024  12.771  19.518  0.00  0.00    +0.000 N 
BRANCH  12  13
ATOM     13  C   UNL     1      -2.352  12.381  19.292  0.00  0.00    +0.000 A 
ATOM     14  C   UNL     1      -2.704  11.665  18.141  0.00  0.00    +0.000 A 
ATOM     15  C   UNL     1      -4.024  11.269  17.919  0.00  0.00    +0.000 A 
ATOM     16  C   UNL     1      -5.016  11.621  18.827  0.00  0.00    +0.000 A 
ATOM     17 BR   UNL     1      -6.799  11.079  18.523  0.00  0.00    +0.000 Br
ATOM     18  C   UNL     1      -4.696  12.367  19.956  0.00  0.00    +0.000 A 
ATOM     19  C   UNL     1      -3.366  12.739  20.190  0.00  0.00    +0.000 A 
ENDBRANCH  12  13
ENDBRANCH   1  11
BRANCH   3  20
ATOM     20  N   UNL     1       2.649   7.878  17.917  0.00  0.00    +0.000 NA
ATOM     21  N   UNL     1       3.035   6.780  18.365  0.00  0.00    +0.000 NA
BRANCH  21  22
ATOM     22  C   UNL     1       3.903   6.127  17.467  0.00  0.00    +0.000 A 
ATOM     23  C   UNL     1       4.666   6.918  16.596  0.00  0.00    +0.000 A 
ATOM     24  C   UNL     1       5.563   6.333  15.692  0.00  0.00    +0.000 A 
ATOM     25  C   UNL     1       5.706   4.943  15.666  0.00  0.00    +0.000 A 
ATOM     26  C   UNL     1       4.958   4.135  16.530  0.00  0.00    +0.000 A 
ATOM     27  C   UNL     1       4.068   4.732  17.427  0.00  0.00    +0.000 A 
BRANCH  25  28
ATOM     28  N   UNL     1       6.650   4.326  14.727  0.00  0.00    +0.000 N 
ATOM     29  O   UNL     1       7.792   4.810  14.659  0.00  0.00    +0.000 OA
ATOM     30  O   UNL     1       6.257   3.364  14.059  0.00  0.00    +0.000 OA
ENDBRANCH  25  28
ENDBRANCH  21  22
ENDBRANCH   3  20
BRANCH   6  31
ATOM     31  O   UNL     1      -0.383  10.899  21.467  0.00  0.00    +0.000 OA
ATOM     32  H   UNL     1      -0.184  10.622  22.379  0.00  0.00    +0.000 HD
ENDBRANCH   6  31
TORSDOF 6
ENDMDL
MODEL 8
REMARK VINA RESULT:      -7.4      3.739      5.069
REMARK  Name = 
REMARK  6 active torsions:
REMARK  status: ('A' for Active; 'I' for Inactive)
REMARK    1  A    between atoms: C_5  and  C_6
REMARK    2  A    between atoms: C_8  and  N_9
REMARK    3  A    between atoms: N_10  and  C_11
REMARK    4  A    between atoms: C_14  and  N_15
REMARK    5  A    between atoms: C_22  and  O_23
REMARK    6  A    between atoms: N_24  and  C_25
REMARK                            x       y       z     vdW  Elec       q    Type
REMARK                         _______ _______ _______ _____ _____    ______ ____
ROOT
ATOM      1  C   UNL     1      -0.381  12.162  19.142  0.00  0.00    +0.000 A 
ATOM      2  C   UNL     1       0.648  11.197  19.199  0.00  0.00    +0.000 A 
ATOM      3  C   UNL     1       0.546   9.935  18.596  0.00  0.00    +0.000 A 
ATOM      4  C   UNL     1      -0.626   9.619  17.897  0.00  0.00    +0.000 A 
ATOM      5  C   UNL     1      -1.655  10.548  17.785  0.00  0.00    +0.000 A 
ATOM      6  C   UNL     1      -1.522  11.796  18.398  0.00  0.00    +0.000 A 
ENDROOT
BRANCH   1  11
ATOM      7  O   UNL     1       0.292  15.574  22.349  0.00  0.00    +0.000 OA
ATOM      8  C   UNL     1       0.217  14.671  21.549  0.00  0.00    +0.000 C 
ATOM      9  C   UNL     1       1.044  14.189  20.315  0.00  0.00    +0.000 C 
ATOM     10 CL   UNL     1       2.491  13.212  20.782  0.00  0.00    +0.000 Cl
ATOM     11  C   UNL     1      -0.320  13.538  19.909  0.00  0.00    +0.000 C 
ATOM     12  N   UNL     1      -0.665  13.640  21.352  0.00  0.00    +0.000 N 
BRANCH  12  13
ATOM     13  C   UNL     1      -1.914  13.414  21.948  0.00  0.00    +0.000 A 
ATOM     14  C   UNL     1      -3.047  14.123  21.529  0.00  0.00    +0.000 A 
ATOM     15  C   UNL     1      -4.293  13.894  22.116  0.00  0.00    +0.000 A 
ATOM     16  C   UNL     1      -4.413  12.979  23.155  0.00  0.00    +0.000 A 
ATOM     17 BR   UNL     1      -6.102  12.670  23.942  0.00  0.00    +0.000 Br
ATOM     18  C   UNL     1      -3.293  12.294  23.614  0.00  0.00    +0.000 A 
ATOM     19  C   UNL     1      -2.050  12.506  23.006  0.00  0.00    +0.000 A 
ENDBRANCH  12  13
ENDBRANCH   1  11
BRANCH   3  20
ATOM     20  N   UNL     1       1.586   9.012  18.815  0.00  0.00    +0.000 NA
ATOM     21  N   UNL     1       1.789   8.276  17.828  0.00  0.00    +0.000 NA
BRANCH  21  22
ATOM     22  C   UNL     1       2.795   7.324  18.087  0.00  0.00    +0.000 A 
ATOM     23  C   UNL     1       2.560   6.372  19.090  0.00  0.00    +0.000 A 
ATOM     24  C   UNL     1       3.510   5.385  19.383  0.00  0.00    +0.000 A 
ATOM     25  C   UNL     1       4.705   5.343  18.658  0.00  0.00    +0.000 A 
ATOM     26  C   UNL     1       4.958   6.279  17.649  0.00  0.00    +0.000 A 
ATOM     27  C   UNL     1       4.001   7.258  17.368  0.00  0.00    +0.000 A 
BRANCH  25  28
ATOM     28  N   UNL     1       5.699   4.306  18.956  0.00  0.00    +0.000 N 
ATOM     29  O   UNL     1       5.326   3.324  19.619  0.00  0.00    +0.000 OA
ATOM     30  O   UNL     1       6.849   4.468  18.533  0.00  0.00    +0.000 OA
ENDBRANCH  25  28
ENDBRANCH  21  22
ENDBRANCH   3  20
BRANCH   6  31
ATOM     31  O   UNL     1      -2.544  12.700  18.307  0.00  0.00    +0.000 OA
ATOM     32  H   UNL     1      -3.090  12.654  19.111  0.00  0.00    +0.000 HD
ENDBRANCH   6  31
TORSDOF 6
ENDMDL
MODEL 9
REMARK VINA RESULT:      -7.3      3.075      4.404
REMARK  Name = 
REMARK  6 active torsions:
REMARK  status: ('A' for Active; 'I' for Inactive)
REMARK    1  A    between atoms: C_5  and  C_6
REMARK    2  A    between atoms: C_8  and  N_9
REMARK    3  A    between atoms: N_10  and  C_11
REMARK    4  A    between atoms: C_14  and  N_15
REMARK    5  A    between atoms: C_22  and  O_23
REMARK    6  A    between atoms: N_24  and  C_25
REMARK                            x       y       z     vdW  Elec       q    Type
REMARK                         _______ _______ _______ _____ _____    ______ ____
ROOT
ATOM      1  C   UNL     1       0.403  10.926  19.673  0.00  0.00    +0.000 A 
ATOM      2  C   UNL     1       1.178  10.089  18.841  0.00  0.00    +0.000 A 
ATOM      3  C   UNL     1       1.638   8.827  19.244  0.00  0.00    +0.000 A 
ATOM      4  C   UNL     1       1.308   8.372  20.527  0.00  0.00    +0.000 A 
ATOM      5  C   UNL     1       0.520   9.146  21.372  0.00  0.00    +0.000 A 
ATOM      6  C   UNL     1       0.078  10.399  20.939  0.00  0.00    +0.000 A 
ENDROOT
BRANCH   1  11
ATOM      7  O   UNL     1      -1.138  15.400  19.687  0.00  0.00    +0.000 OA
ATOM      8  C   UNL     1      -0.685  14.281  19.765  0.00  0.00    +0.000 C 
ATOM      9  C   UNL     1       0.739  13.644  19.809  0.00  0.00    +0.000 C 
ATOM     10 CL   UNL     1       1.481  13.702  21.456  0.00  0.00    +0.000 Cl
ATOM     11  C   UNL     1      -0.024  12.390  19.269  0.00  0.00    +0.000 C 
ATOM     12  N   UNL     1      -1.240  13.030  19.839  0.00  0.00    +0.000 N 
BRANCH  12  13
ATOM     13  C   UNL     1      -2.574  12.637  19.659  0.00  0.00    +0.000 A 
ATOM     14  C   UNL     1      -3.551  12.955  20.611  0.00  0.00    +0.000 A 
ATOM     15  C   UNL     1      -4.881  12.571  20.429  0.00  0.00    +0.000 A 
ATOM     16  C   UNL     1      -5.242  11.832  19.309  0.00  0.00    +0.000 A 
ATOM     17 BR   UNL     1      -7.044  11.321  19.066  0.00  0.00    +0.000 Br
ATOM     18  C   UNL     1      -4.281  11.471  18.371  0.00  0.00    +0.000 A 
ATOM     19  C   UNL     1      -2.953  11.880  18.543  0.00  0.00    +0.000 A 
ENDBRANCH  12  13
ENDBRANCH   1  11
BRANCH   3  20
ATOM     20  N   UNL     1       2.497   8.129  18.375  0.00  0.00    +0.000 NA
ATOM     21  N   UNL     1       2.622   6.927  18.687  0.00  0.00    +0.000 NA
BRANCH  21  22
ATOM     22  C   UNL     1       3.529   6.260  17.840  0.00  0.00    +0.000 A 
ATOM     23  C   UNL     1       4.467   7.033  17.140  0.00  0.00    +0.000 A 
ATOM     24  C   UNL     1       5.409   6.430  16.296  0.00  0.00    +0.000 A 
ATOM     25  C   UNL     1       5.421   5.039  16.160  0.00  0.00    +0.000 A 
ATOM     26  C   UNL     1       4.497   4.248  16.853  0.00  0.00    +0.000 A 
ATOM     27  C   UNL     1       3.563   4.863  17.692  0.00  0.00    +0.000 A 
BRANCH  25  28
ATOM     28  N   UNL     1       6.412   4.402  15.284  0.00  0.00    +0.000 N 
ATOM     29  O   UNL     1       5.989   3.647  14.392  0.00  0.00    +0.000 OA
ATOM     30  O   UNL     1       7.605   4.650  15.483  0.00  0.00    +0.000 OA
ENDBRANCH  25  28
ENDBRANCH  21  22
ENDBRANCH   3  20
BRANCH   6  31
ATOM     31  O   UNL     1      -0.677  11.170  21.780  0.00  0.00    +0.000 OA
ATOM     32  H   UNL     1      -0.092  11.737  22.313  0.00  0.00    +0.000 HD
ENDBRANCH   6  31
TORSDOF 6
ENDMDL
