MODEL 1
REMARK VINA RESULT:      -8.8      0.000      0.000
REMARK  Name = 
REMARK  13 active torsions:
REMARK  status: ('A' for Active; 'I' for Inactive)
REMARK    1  A    between atoms: C_4  and  C_5
REMARK    2  A    between atoms: C_10  and  C_11
REMARK    3  A    between atoms: C_15  and  C_16
REMARK    4  A    between atoms: C_16  and  C_17
REMARK    5  A    between atoms: C_16  and  C_18
REMARK    6  A    between atoms: C_18  and  C_19
REMARK    7  A    between atoms: C_25  and  C_26
REMARK    8  A    between atoms: C_28  and  O_29
REMARK    9  A    between atoms: C_30  and  C_31
REMARK   10  A    between atoms: C_31  and  C_32
REMARK   11  A    between atoms: C_32  and  C_33
REMARK   12  A    between atoms: C_33  and  O_34
REMARK   13  A    between atoms: C_35  and  O_36
REMARK                            x       y       z     vdW  Elec       q    Type
REMARK                         _______ _______ _______ _____ _____    ______ ____
ROOT
ATOM      1  C   UNL     1       1.116   8.062  20.297  0.00  0.00    +0.000 C 
ATOM      2  C   UNL     1       0.235   8.903  20.863  0.00  0.00    +0.000 C 
ATOM      3  C   UNL     1      -0.299   8.780  22.287  0.00  0.00    +0.000 C 
ATOM      4  C   UNL     1      -0.335  10.102  23.067  0.00  0.00    +0.000 C 
ATOM      5  C   UNL     1      -0.992  11.233  22.277  0.00  0.00    +0.000 C 
ATOM      6  C   UNL     1      -0.408  11.363  20.858  0.00  0.00    +0.000 C 
ATOM      7  C   UNL     1       1.051  11.894  20.988  0.00  0.00    +0.000 C 
ATOM      8  C   UNL     1      -0.430  10.016  20.107  0.00  0.00    +0.000 C 
ATOM      9  C   UNL     1      -0.104  10.402  18.658  0.00  0.00    +0.000 C 
ATOM     10  C   UNL     1      -0.710  11.808  18.489  0.00  0.00    +0.000 C 
ATOM     11  C   UNL     1      -1.222  12.263  19.883  0.00  0.00    +0.000 C 
ENDROOT
BRANCH   1  15
ATOM     12  C   UNL     1       2.812   6.474  18.107  0.00  0.00    +0.000 C 
ATOM     13  C   UNL     1       2.190   5.565  18.879  0.00  0.00    +0.000 C 
ATOM     14  C   UNL     1       2.046   5.743  20.326  0.00  0.00    +0.000 C 
ATOM     15  C   UNL     1       1.606   6.865  20.933  0.00  0.00    +0.000 C 
ATOM     16  C   UNL     1       2.412   4.542  21.175  0.00  0.00    +0.000 C 
ATOM     17  C   UNL     1       1.841   3.227  20.622  0.00  0.00    +0.000 C 
ATOM     18  C   UNL     1       2.171   3.032  19.125  0.00  0.00    +0.000 C 
ATOM     19  C   UNL     1       1.618   4.261  18.350  0.00  0.00    +0.000 C 
BRANCH  17  20
ATOM     20  O   UNL     1       0.423   3.166  20.824  0.00  0.00    +0.000 OA
ATOM     21  H   UNL     1       0.164   2.233  20.943  0.00  0.00    +0.000 HD
ENDBRANCH  17  20
BRANCH  19  22
ATOM     22  O   UNL     1       1.780   4.165  16.940  0.00  0.00    +0.000 OA
ATOM     23  H   UNL     1       2.168   4.995  16.603  0.00  0.00    +0.000 HD
ENDBRANCH  19  22
BRANCH  18  24
ATOM     24  C   UNL     1       3.689   2.775  18.888  0.00  0.00    +0.000 C 
BRANCH  24  25
ATOM     25  C   UNL     1       4.119   2.986  17.424  0.00  0.00    +0.000 C 
BRANCH  25  26
ATOM     26  C   UNL     1       5.314   3.925  17.283  0.00  0.00    +0.000 C 
BRANCH  26  27
ATOM     27  O   UNL     1       6.050   3.994  18.495  0.00  0.00    +0.000 OA
ATOM     28  H   UNL     1       6.428   3.113  18.658  0.00  0.00    +0.000 HD
ENDBRANCH  26  27
ENDBRANCH  25  26
ENDBRANCH  24  25
ENDBRANCH  18  24
ENDBRANCH   1  15
BRANCH  11  29
ATOM     29  C   UNL     1      -2.789  12.239  20.046  0.00  0.00    +0.000 C 
ATOM     30  C   UNL     1      -3.597  11.810  18.808  0.00  0.00    +0.000 C 
BRANCH  29  31
ATOM     31  C   UNL     1      -3.307  13.603  20.559  0.00  0.00    +0.000 C 
BRANCH  31  32
ATOM     32  C   UNL     1      -4.619  13.504  21.362  0.00  0.00    +0.000 C 
ATOM     33  O   UNL     1      -4.595  12.329  22.190  0.00  0.00    +0.000 OA
ATOM     34  C   UNL     1      -4.238  12.666  23.460  0.00  0.00    +0.000 C 
ATOM     35  O   UNL     1      -4.010  11.893  24.371  0.00  0.00    +0.000 OA
ATOM     36  C   UNL     1      -4.201  14.148  23.526  0.00  0.00    +0.000 C 
ATOM     37  C   UNL     1      -3.562  14.806  24.498  0.00  0.00    +0.000 C 
ATOM     38  C   UNL     1      -4.898  14.656  22.317  0.00  0.00    +0.000 C 
ATOM     39  C   UNL     1      -4.512  16.036  21.801  0.00  0.00    +0.000 C 
ENDBRANCH  31  32
ENDBRANCH  29  31
ENDBRANCH  11  29
TORSDOF 10
ENDMDL
MODEL 2
REMARK VINA RESULT:      -8.7      0.907      1.129
REMARK  Name = 
REMARK  13 active torsions:
REMARK  status: ('A' for Active; 'I' for Inactive)
REMARK    1  A    between atoms: C_4  and  C_5
REMARK    2  A    between atoms: C_10  and  C_11
REMARK    3  A    between atoms: C_15  and  C_16
REMARK    4  A    between atoms: C_16  and  C_17
REMARK    5  A    between atoms: C_16  and  C_18
REMARK    6  A    between atoms: C_18  and  C_19
REMARK    7  A    between atoms: C_25  and  C_26
REMARK    8  A    between atoms: C_28  and  O_29
REMARK    9  A    between atoms: C_30  and  C_31
REMARK   10  A    between atoms: C_31  and  C_32
REMARK   11  A    between atoms: C_32  and  C_33
REMARK   12  A    between atoms: C_33  and  O_34
REMARK   13  A    between atoms: C_35  and  O_36
REMARK                            x       y       z     vdW  Elec       q    Type
REMARK                         _______ _______ _______ _____ _____    ______ ____
ROOT
ATOM      1  C   UNL     1       1.173   7.968  20.275  0.00  0.00    +0.000 C 
ATOM      2  C   UNL     1       0.295   8.816  20.837  0.00  0.00    +0.000 C 
ATOM      3  C   UNL     1      -0.237   8.704  22.262  0.00  0.00    +0.000 C 
ATOM      4  C   UNL     1      -0.269  10.031  23.033  0.00  0.00    +0.000 C 
ATOM      5  C   UNL     1      -0.923  11.160  22.236  0.00  0.00    +0.000 C 
ATOM      6  C   UNL     1      -0.341  11.278  20.816  0.00  0.00    +0.000 C 
ATOM      7  C   UNL     1       1.121  11.805  20.940  0.00  0.00    +0.000 C 
ATOM      8  C   UNL     1      -0.367   9.926  20.074  0.00  0.00    +0.000 C 
ATOM      9  C   UNL     1      -0.042  10.301  18.622  0.00  0.00    +0.000 C 
ATOM     10  C   UNL     1      -0.643  11.708  18.445  0.00  0.00    +0.000 C 
ATOM     11  C   UNL     1      -1.153  12.174  19.836  0.00  0.00    +0.000 C 
ENDROOT
BRANCH   1  15
ATOM     12  C   UNL     1       2.813   6.332  18.078  0.00  0.00    +0.000 C 
ATOM     13  C   UNL     1       2.194   5.441  18.873  0.00  0.00    +0.000 C 
ATOM     14  C   UNL     1       2.077   5.640  20.319  0.00  0.00    +0.000 C 
ATOM     15  C   UNL     1       1.660   6.774  20.919  0.00  0.00    +0.000 C 
ATOM     16  C   UNL     1       2.443   4.446  21.179  0.00  0.00    +0.000 C 
ATOM     17  C   UNL     1       1.848   3.130  20.652  0.00  0.00    +0.000 C 
ATOM     18  C   UNL     1       2.150   2.911  19.154  0.00  0.00    +0.000 C 
ATOM     19  C   UNL     1       1.598   4.137  18.371  0.00  0.00    +0.000 C 
BRANCH  17  20
ATOM     20  O   UNL     1       0.433   3.088  20.880  0.00  0.00    +0.000 OA
ATOM     21  H   UNL     1       0.255   3.367  21.797  0.00  0.00    +0.000 HD
ENDBRANCH  17  20
BRANCH  19  22
ATOM     22  O   UNL     1       1.734   4.020  16.960  0.00  0.00    +0.000 OA
ATOM     23  H   UNL     1       0.870   4.188  16.538  0.00  0.00    +0.000 HD
ENDBRANCH  19  22
BRANCH  18  24
ATOM     24  C   UNL     1       3.660   2.633  18.894  0.00  0.00    +0.000 C 
BRANCH  24  25
ATOM     25  C   UNL     1       4.496   2.560  20.186  0.00  0.00    +0.000 C 
BRANCH  25  26
ATOM     26  C   UNL     1       5.048   1.165  20.461  0.00  0.00    +0.000 C 
BRANCH  26  27
ATOM     27  O   UNL     1       5.651   1.102  21.745  0.00  0.00    +0.000 OA
ATOM     28  H   UNL     1       4.939   0.984  22.396  0.00  0.00    +0.000 HD
ENDBRANCH  26  27
ENDBRANCH  25  26
ENDBRANCH  24  25
ENDBRANCH  18  24
ENDBRANCH   1  15
BRANCH  11  29
ATOM     29  C   UNL     1      -2.719  12.156  20.001  0.00  0.00    +0.000 C 
ATOM     30  C   UNL     1      -3.534  11.822  18.738  0.00  0.00    +0.000 C 
BRANCH  29  31
ATOM     31  C   UNL     1      -3.221  13.487  20.608  0.00  0.00    +0.000 C 
BRANCH  31  32
ATOM     32  C   UNL     1      -4.607  13.378  21.274  0.00  0.00    +0.000 C 
ATOM     33  O   UNL     1      -4.617  12.280  22.201  0.00  0.00    +0.000 OA
ATOM     34  C   UNL     1      -4.418  12.742  23.467  0.00  0.00    +0.000 C 
ATOM     35  O   UNL     1      -4.255  12.062  24.462  0.00  0.00    +0.000 OA
ATOM     36  C   UNL     1      -4.461  14.224  23.404  0.00  0.00    +0.000 C 
ATOM     37  C   UNL     1      -3.967  14.997  24.376  0.00  0.00    +0.000 C 
ATOM     38  C   UNL     1      -5.046  14.588  22.088  0.00  0.00    +0.000 C 
ATOM     39  C   UNL     1      -4.674  15.940  21.494  0.00  0.00    +0.000 C 
ENDBRANCH  31  32
ENDBRANCH  29  31
ENDBRANCH  11  29
TORSDOF 10
ENDMDL
MODEL 3
REMARK VINA RESULT:      -8.2      1.157      1.552
REMARK  Name = 
REMARK  13 active torsions:
REMARK  status: ('A' for Active; 'I' for Inactive)
REMARK    1  A    between atoms: C_4  and  C_5
REMARK    2  A    between atoms: C_10  and  C_11
REMARK    3  A    between atoms: C_15  and  C_16
REMARK    4  A    between atoms: C_16  and  C_17
REMARK    5  A    between atoms: C_16  and  C_18
REMARK    6  A    between atoms: C_18  and  C_19
REMARK    7  A    between atoms: C_25  and  C_26
REMARK    8  A    between atoms: C_28  and  O_29
REMARK    9  A    between atoms: C_30  and  C_31
REMARK   10  A    between atoms: C_31  and  C_32
REMARK   11  A    between atoms: C_32  and  C_33
REMARK   12  A    between atoms: C_33  and  O_34
REMARK   13  A    between atoms: C_35  and  O_36
REMARK                            x       y       z     vdW  Elec       q    Type
REMARK                         _______ _______ _______ _____ _____    ______ ____
ROOT
ATOM      1  C   UNL     1       1.276   8.136  20.222  0.00  0.00    +0.000 C 
ATOM      2  C   UNL     1       0.338   8.897  20.812  0.00  0.00    +0.000 C 
ATOM      3  C   UNL     1      -0.208   8.675  22.219  0.00  0.00    +0.000 C 
ATOM      4  C   UNL     1      -0.334   9.954  23.059  0.00  0.00    +0.000 C 
ATOM      5  C   UNL     1      -1.045  11.082  22.312  0.00  0.00    +0.000 C 
ATOM      6  C   UNL     1      -0.450  11.312  20.911  0.00  0.00    +0.000 C 
ATOM      7  C   UNL     1       0.974  11.921  21.090  0.00  0.00    +0.000 C 
ATOM      8  C   UNL     1      -0.380  10.003  20.098  0.00  0.00    +0.000 C 
ATOM      9  C   UNL     1      -0.058  10.476  18.674  0.00  0.00    +0.000 C 
ATOM     10  C   UNL     1      -0.743  11.851  18.560  0.00  0.00    +0.000 C 
ATOM     11  C   UNL     1      -1.301  12.209  19.965  0.00  0.00    +0.000 C 
ENDROOT
BRANCH   1  15
ATOM     12  C   UNL     1       2.606   6.462  17.851  0.00  0.00    +0.000 C 
ATOM     13  C   UNL     1       2.082   5.586  18.726  0.00  0.00    +0.000 C 
ATOM     14  C   UNL     1       2.151   5.797  20.173  0.00  0.00    +0.000 C 
ATOM     15  C   UNL     1       1.826   6.941  20.810  0.00  0.00    +0.000 C 
ATOM     16  C   UNL     1       2.609   4.605  20.991  0.00  0.00    +0.000 C 
ATOM     17  C   UNL     1       1.937   3.293  20.556  0.00  0.00    +0.000 C 
ATOM     18  C   UNL     1       2.045   3.059  19.033  0.00  0.00    +0.000 C 
ATOM     19  C   UNL     1       1.412   4.285  18.315  0.00  0.00    +0.000 C 
BRANCH  17  20
ATOM     20  O   UNL     1       0.562   3.271  20.961  0.00  0.00    +0.000 OA
ATOM     21  H   UNL     1       0.454   3.854  21.734  0.00  0.00    +0.000 HD
ENDBRANCH  17  20
BRANCH  19  22
ATOM     22  O   UNL     1       1.368   4.156  16.900  0.00  0.00    +0.000 OA
ATOM     23  H   UNL     1       0.586   3.628  16.649  0.00  0.00    +0.000 HD
ENDBRANCH  19  22
BRANCH  18  24
ATOM     24  C   UNL     1       3.507   2.760  18.587  0.00  0.00    +0.000 C 
BRANCH  24  25
ATOM     25  C   UNL     1       3.830   1.255  18.531  0.00  0.00    +0.000 C 
BRANCH  25  26
ATOM     26  C   UNL     1       4.803   0.812  19.619  0.00  0.00    +0.000 C 
BRANCH  26  27
ATOM     27  O   UNL     1       5.224   1.918  20.404  0.00  0.00    +0.000 OA
ATOM     28  H   UNL     1       5.123   1.668  21.338  0.00  0.00    +0.000 HD
ENDBRANCH  26  27
ENDBRANCH  25  26
ENDBRANCH  24  25
ENDBRANCH  18  24
ENDBRANCH   1  15
BRANCH  11  29
ATOM     29  C   UNL     1      -2.866  12.085  20.100  0.00  0.00    +0.000 C 
ATOM     30  C   UNL     1      -3.651  11.903  18.788  0.00  0.00    +0.000 C 
BRANCH  29  31
ATOM     31  C   UNL     1      -3.443  13.283  20.890  0.00  0.00    +0.000 C 
BRANCH  31  32
ATOM     32  C   UNL     1      -4.049  12.890  22.252  0.00  0.00    +0.000 C 
ATOM     33  O   UNL     1      -3.482  13.705  23.292  0.00  0.00    +0.000 OA
ATOM     34  C   UNL     1      -4.329  14.729  23.590  0.00  0.00    +0.000 C 
ATOM     35  O   UNL     1      -4.095  15.660  24.337  0.00  0.00    +0.000 OA
ATOM     36  C   UNL     1      -5.592  14.481  22.852  0.00  0.00    +0.000 C 
ATOM     37  C   UNL     1      -6.496  15.442  22.637  0.00  0.00    +0.000 C 
ATOM     38  C   UNL     1      -5.555  13.072  22.384  0.00  0.00    +0.000 C 
ATOM     39  C   UNL     1      -6.363  12.713  21.144  0.00  0.00    +0.000 C 
ENDBRANCH  31  32
ENDBRANCH  29  31
ENDBRANCH  11  29
TORSDOF 10
ENDMDL
MODEL 4
REMARK VINA RESULT:      -8.0      1.407      1.859
REMARK  Name = 
REMARK  13 active torsions:
REMARK  status: ('A' for Active; 'I' for Inactive)
REMARK    1  A    between atoms: C_4  and  C_5
REMARK    2  A    between atoms: C_10  and  C_11
REMARK    3  A    between atoms: C_15  and  C_16
REMARK    4  A    between atoms: C_16  and  C_17
REMARK    5  A    between atoms: C_16  and  C_18
REMARK    6  A    between atoms: C_18  and  C_19
REMARK    7  A    between atoms: C_25  and  C_26
REMARK    8  A    between atoms: C_28  and  O_29
REMARK    9  A    between atoms: C_30  and  C_31
REMARK   10  A    between atoms: C_31  and  C_32
REMARK   11  A    between atoms: C_32  and  C_33
REMARK   12  A    between atoms: C_33  and  O_34
REMARK   13  A    between atoms: C_35  and  O_36
REMARK                            x       y       z     vdW  Elec       q    Type
REMARK                         _______ _______ _______ _____ _____    ______ ____
ROOT
ATOM      1  C   UNL     1       1.319   8.138  20.219  0.00  0.00    +0.000 C 
ATOM      2  C   UNL     1       0.400   8.914  20.820  0.00  0.00    +0.000 C 
ATOM      3  C   UNL     1      -0.156   8.682  22.221  0.00  0.00    +0.000 C 
ATOM      4  C   UNL     1      -0.249   9.949  23.083  0.00  0.00    +0.000 C 
ATOM      5  C   UNL     1      -0.927  11.109  22.354  0.00  0.00    +0.000 C 
ATOM      6  C   UNL     1      -0.321  11.348  20.959  0.00  0.00    +0.000 C 
ATOM      7  C   UNL     1       1.118  11.914  21.152  0.00  0.00    +0.000 C 
ATOM      8  C   UNL     1      -0.285  10.052  20.123  0.00  0.00    +0.000 C 
ATOM      9  C   UNL     1       0.054  10.541  18.708  0.00  0.00    +0.000 C 
ATOM     10  C   UNL     1      -0.592  11.936  18.618  0.00  0.00    +0.000 C 
ATOM     11  C   UNL     1      -1.145  12.284  20.027  0.00  0.00    +0.000 C 
ENDROOT
BRANCH   1  15
ATOM     12  C   UNL     1       2.648   6.490  17.828  0.00  0.00    +0.000 C 
ATOM     13  C   UNL     1       2.092   5.606  18.675  0.00  0.00    +0.000 C 
ATOM     14  C   UNL     1       2.144   5.782  20.128  0.00  0.00    +0.000 C 
ATOM     15  C   UNL     1       1.835   6.918  20.787  0.00  0.00    +0.000 C 
ATOM     16  C   UNL     1       2.564   4.562  20.924  0.00  0.00    +0.000 C 
ATOM     17  C   UNL     1       1.871   3.276  20.449  0.00  0.00    +0.000 C 
ATOM     18  C   UNL     1       1.996   3.074  18.923  0.00  0.00    +0.000 C 
ATOM     19  C   UNL     1       1.401   4.330  18.225  0.00  0.00    +0.000 C 
BRANCH  17  20
ATOM     20  O   UNL     1       0.489   3.273  20.833  0.00  0.00    +0.000 OA
ATOM     21  H   UNL     1       0.302   2.452  21.323  0.00  0.00    +0.000 HD
ENDBRANCH  17  20
BRANCH  19  22
ATOM     22  O   UNL     1       1.376   4.234  16.806  0.00  0.00    +0.000 OA
ATOM     23  H   UNL     1       2.125   4.739  16.436  0.00  0.00    +0.000 HD
ENDBRANCH  19  22
BRANCH  18  24
ATOM     24  C   UNL     1       3.458   2.754  18.492  0.00  0.00    +0.000 C 
BRANCH  24  25
ATOM     25  C   UNL     1       3.789   1.250  18.537  0.00  0.00    +0.000 C 
BRANCH  25  26
ATOM     26  C   UNL     1       4.760   0.886  19.656  0.00  0.00    +0.000 C 
BRANCH  26  27
ATOM     27  O   UNL     1       5.202   2.047  20.342  0.00  0.00    +0.000 OA
ATOM     28  H   UNL     1       4.691   2.112  21.166  0.00  0.00    +0.000 HD
ENDBRANCH  26  27
ENDBRANCH  25  26
ENDBRANCH  24  25
ENDBRANCH  18  24
ENDBRANCH   1  15
BRANCH  11  29
ATOM     29  C   UNL     1      -2.713  12.201  20.156  0.00  0.00    +0.000 C 
ATOM     30  C   UNL     1      -3.478  11.760  18.895  0.00  0.00    +0.000 C 
BRANCH  29  31
ATOM     31  C   UNL     1      -3.291  13.539  20.674  0.00  0.00    +0.000 C 
BRANCH  31  32
ATOM     32  C   UNL     1      -2.502  14.134  21.857  0.00  0.00    +0.000 C 
ATOM     33  O   UNL     1      -2.285  15.539  21.641  0.00  0.00    +0.000 OA
ATOM     34  C   UNL     1      -3.211  16.262  22.330  0.00  0.00    +0.000 C 
ATOM     35  O   UNL     1      -3.376  17.465  22.265  0.00  0.00    +0.000 OA
ATOM     36  C   UNL     1      -3.959  15.310  23.188  0.00  0.00    +0.000 C 
ATOM     37  C   UNL     1      -5.146  15.610  23.724  0.00  0.00    +0.000 C 
ATOM     38  C   UNL     1      -3.181  14.045  23.217  0.00  0.00    +0.000 C 
ATOM     39  C   UNL     1      -3.940  12.750  23.480  0.00  0.00    +0.000 C 
ENDBRANCH  31  32
ENDBRANCH  29  31
ENDBRANCH  11  29
TORSDOF 10
ENDMDL
MODEL 5
REMARK VINA RESULT:      -8.0      1.339      1.742
REMARK  Name = 
REMARK  13 active torsions:
REMARK  status: ('A' for Active; 'I' for Inactive)
REMARK    1  A    between atoms: C_4  and  C_5
REMARK    2  A    between atoms: C_10  and  C_11
REMARK    3  A    between atoms: C_15  and  C_16
REMARK    4  A    between atoms: C_16  and  C_17
REMARK    5  A    between atoms: C_16  and  C_18
REMARK    6  A    between atoms: C_18  and  C_19
REMARK    7  A    between atoms: C_25  and  C_26
REMARK    8  A    between atoms: C_28  and  O_29
REMARK    9  A    between atoms: C_30  and  C_31
REMARK   10  A    between atoms: C_31  and  C_32
REMARK   11  A    between atoms: C_32  and  C_33
REMARK   12  A    between atoms: C_33  and  O_34
REMARK   13  A    between atoms: C_35  and  O_36
REMARK                            x       y       z     vdW  Elec       q    Type
REMARK                         _______ _______ _______ _____ _____    ______ ____
ROOT
ATOM      1  C   UNL     1       1.162   8.081  20.309  0.00  0.00    +0.000 C 
ATOM      2  C   UNL     1       0.248   8.887  20.875  0.00  0.00    +0.000 C 
ATOM      3  C   UNL     1      -0.308   8.722  22.285  0.00  0.00    +0.000 C 
ATOM      4  C   UNL     1      -0.394  10.027  23.090  0.00  0.00    +0.000 C 
ATOM      5  C   UNL     1      -1.067  11.156  22.309  0.00  0.00    +0.000 C 
ATOM      6  C   UNL     1      -0.460  11.329  20.905  0.00  0.00    +0.000 C 
ATOM      7  C   UNL     1       0.982  11.895  21.072  0.00  0.00    +0.000 C 
ATOM      8  C   UNL     1      -0.432   9.997  20.128  0.00  0.00    +0.000 C 
ATOM      9  C   UNL     1      -0.090  10.419  18.693  0.00  0.00    +0.000 C 
ATOM     10  C   UNL     1      -0.730  11.812  18.540  0.00  0.00    +0.000 C 
ATOM     11  C   UNL     1      -1.280  12.227  19.932  0.00  0.00    +0.000 C 
ENDROOT
BRANCH   1  15
ATOM     12  C   UNL     1       2.753   6.469  18.058  0.00  0.00    +0.000 C 
ATOM     13  C   UNL     1       2.159   5.569  18.863  0.00  0.00    +0.000 C 
ATOM     14  C   UNL     1       2.079   5.757  20.313  0.00  0.00    +0.000 C 
ATOM     15  C   UNL     1       1.672   6.885  20.931  0.00  0.00    +0.000 C 
ATOM     16  C   UNL     1       2.473   4.559  21.154  0.00  0.00    +0.000 C 
ATOM     17  C   UNL     1       1.872   3.244  20.634  0.00  0.00    +0.000 C 
ATOM     18  C   UNL     1       2.136   3.037  19.126  0.00  0.00    +0.000 C 
ATOM     19  C   UNL     1       1.558   4.265  18.367  0.00  0.00    +0.000 C 
BRANCH  17  20
ATOM     20  O   UNL     1       0.464   3.192  20.897  0.00  0.00    +0.000 OA
ATOM     21  H   UNL     1       0.192   2.258  20.967  0.00  0.00    +0.000 HD
ENDBRANCH  17  20
BRANCH  19  22
ATOM     22  O   UNL     1       1.658   4.159  16.952  0.00  0.00    +0.000 OA
ATOM     23  H   UNL     1       2.506   3.733  16.721  0.00  0.00    +0.000 HD
ENDBRANCH  19  22
BRANCH  18  24
ATOM     24  C   UNL     1       3.641   2.769  18.826  0.00  0.00    +0.000 C 
BRANCH  24  25
ATOM     25  C   UNL     1       3.982   2.835  17.325  0.00  0.00    +0.000 C 
BRANCH  25  26
ATOM     26  C   UNL     1       5.086   3.839  17.007  0.00  0.00    +0.000 C 
BRANCH  26  27
ATOM     27  O   UNL     1       5.953   3.339  16.000  0.00  0.00    +0.000 OA
ATOM     28  H   UNL     1       6.017   4.017  15.307  0.00  0.00    +0.000 HD
ENDBRANCH  26  27
ENDBRANCH  25  26
ENDBRANCH  24  25
ENDBRANCH  18  24
ENDBRANCH   1  15
BRANCH  11  29
ATOM     29  C   UNL     1      -2.848  12.158  20.065  0.00  0.00    +0.000 C 
ATOM     30  C   UNL     1      -3.620  11.722  18.807  0.00  0.00    +0.000 C 
BRANCH  29  31
ATOM     31  C   UNL     1      -3.412  13.501  20.583  0.00  0.00    +0.000 C 
BRANCH  31  32
ATOM     32  C   UNL     1      -2.511  14.187  21.629  0.00  0.00    +0.000 C 
ATOM     33  O   UNL     1      -2.257  15.546  21.237  0.00  0.00    +0.000 OA
ATOM     34  C   UNL     1      -3.097  16.385  21.906  0.00  0.00    +0.000 C 
ATOM     35  O   UNL     1      -3.220  17.580  21.715  0.00  0.00    +0.000 OA
ATOM     36  C   UNL     1      -3.813  15.571  22.919  0.00  0.00    +0.000 C 
ATOM     37  C   UNL     1      -4.941  15.985  23.503  0.00  0.00    +0.000 C 
ATOM     38  C   UNL     1      -3.085  14.281  23.036  0.00  0.00    +0.000 C 
ATOM     39  C   UNL     1      -3.871  13.062  23.501  0.00  0.00    +0.000 C 
ENDBRANCH  31  32
ENDBRANCH  29  31
ENDBRANCH  11  29
TORSDOF 10
ENDMDL
MODEL 6
REMARK VINA RESULT:      -7.8      2.291     10.655
REMARK  Name = 
REMARK  13 active torsions:
REMARK  status: ('A' for Active; 'I' for Inactive)
REMARK    1  A    between atoms: C_4  and  C_5
REMARK    2  A    between atoms: C_10  and  C_11
REMARK    3  A    between atoms: C_15  and  C_16
REMARK    4  A    between atoms: C_16  and  C_17
REMARK    5  A    between atoms: C_16  and  C_18
REMARK    6  A    between atoms: C_18  and  C_19
REMARK    7  A    between atoms: C_25  and  C_26
REMARK    8  A    between atoms: C_28  and  O_29
REMARK    9  A    between atoms: C_30  and  C_31
REMARK   10  A    between atoms: C_31  and  C_32
REMARK   11  A    between atoms: C_32  and  C_33
REMARK   12  A    between atoms: C_33  and  O_34
REMARK   13  A    between atoms: C_35  and  O_36
REMARK                            x       y       z     vdW  Elec       q    Type
REMARK                         _______ _______ _______ _____ _____    ______ ____
ROOT
ATOM      1  C   UNL     1       1.796   8.107  19.707  0.00  0.00    +0.000 C 
ATOM      2  C   UNL     1       2.074   6.796  19.804  0.00  0.00    +0.000 C 
ATOM      3  C   UNL     1       1.620   5.889  20.944  0.00  0.00    +0.000 C 
ATOM      4  C   UNL     1       1.070   4.529  20.492  0.00  0.00    +0.000 C 
ATOM      5  C   UNL     1       1.990   3.823  19.496  0.00  0.00    +0.000 C 
ATOM      6  C   UNL     1       2.402   4.747  18.335  0.00  0.00    +0.000 C 
ATOM      7  C   UNL     1       1.142   4.999  17.453  0.00  0.00    +0.000 C 
ATOM      8  C   UNL     1       2.981   6.082  18.845  0.00  0.00    +0.000 C 
ATOM      9  C   UNL     1       3.595   6.716  17.590  0.00  0.00    +0.000 C 
ATOM     10  C   UNL     1       4.071   5.518  16.747  0.00  0.00    +0.000 C 
ATOM     11  C   UNL     1       3.577   4.227  17.455  0.00  0.00    +0.000 C 
ENDROOT
BRANCH   1  15
ATOM     12  C   UNL     1      -0.649   9.578  18.276  0.00  0.00    +0.000 C 
ATOM     13  C   UNL     1      -0.186  10.397  19.237  0.00  0.00    +0.000 C 
ATOM     14  C   UNL     1       0.261   9.894  20.538  0.00  0.00    +0.000 C 
ATOM     15  C   UNL     1       1.106   8.859  20.724  0.00  0.00    +0.000 C 
ATOM     16  C   UNL     1      -0.275  10.633  21.748  0.00  0.00    +0.000 C 
ATOM     17  C   UNL     1      -0.215  12.160  21.586  0.00  0.00    +0.000 C 
ATOM     18  C   UNL     1      -0.851  12.631  20.260  0.00  0.00    +0.000 C 
ATOM     19  C   UNL     1      -0.117  11.908  19.094  0.00  0.00    +0.000 C 
BRANCH  17  20
ATOM     20  O   UNL     1       1.138  12.626  21.675  0.00  0.00    +0.000 OA
ATOM     21  H   UNL     1       1.573  12.490  20.814  0.00  0.00    +0.000 HD
ENDBRANCH  17  20
BRANCH  19  22
ATOM     22  O   UNL     1      -0.551  12.321  17.805  0.00  0.00    +0.000 OA
ATOM     23  H   UNL     1       0.106  12.937  17.426  0.00  0.00    +0.000 HD
ENDBRANCH  19  22
BRANCH  18  24
ATOM     24  C   UNL     1      -2.395  12.431  20.245  0.00  0.00    +0.000 C 
BRANCH  24  25
ATOM     25  C   UNL     1      -3.175  13.677  20.706  0.00  0.00    +0.000 C 
BRANCH  25  26
ATOM     26  C   UNL     1      -4.533  13.340  21.314  0.00  0.00    +0.000 C 
BRANCH  26  27
ATOM     27  O   UNL     1      -4.410  12.331  22.304  0.00  0.00    +0.000 OA
ATOM     28  H   UNL     1      -5.031  12.546  23.020  0.00  0.00    +0.000 HD
ENDBRANCH  26  27
ENDBRANCH  25  26
ENDBRANCH  24  25
ENDBRANCH  18  24
ENDBRANCH   1  15
BRANCH  11  29
ATOM     29  C   UNL     1       4.703   3.413  18.197  0.00  0.00    +0.000 C 
ATOM     30  C   UNL     1       4.226   2.333  19.185  0.00  0.00    +0.000 C 
BRANCH  29  31
ATOM     31  C   UNL     1       5.691   4.368  18.907  0.00  0.00    +0.000 C 
BRANCH  31  32
ATOM     32  C   UNL     1       7.122   4.309  18.339  0.00  0.00    +0.000 C 
ATOM     33  O   UNL     1       7.076   4.263  16.903  0.00  0.00    +0.000 OA
ATOM     34  C   UNL     1       7.286   5.509  16.394  0.00  0.00    +0.000 C 
ATOM     35  O   UNL     1       7.192   5.831  15.224  0.00  0.00    +0.000 OA
ATOM     36  C   UNL     1       7.671   6.386  17.526  0.00  0.00    +0.000 C 
ATOM     37  C   UNL     1       7.611   7.719  17.452  0.00  0.00    +0.000 C 
ATOM     38  C   UNL     1       8.014   5.499  18.668  0.00  0.00    +0.000 C 
ATOM     39  C   UNL     1       7.856   6.060  20.075  0.00  0.00    +0.000 C 
ENDBRANCH  31  32
ENDBRANCH  29  31
ENDBRANCH  11  29
TORSDOF 10
ENDMDL
MODEL 7
REMARK VINA RESULT:      -7.5      1.299      1.655
REMARK  Name = 
REMARK  13 active torsions:
REMARK  status: ('A' for Active; 'I' for Inactive)
REMARK    1  A    between atoms: C_4  and  C_5
REMARK    2  A    between atoms: C_10  and  C_11
REMARK    3  A    between atoms: C_15  and  C_16
REMARK    4  A    between atoms: C_16  and  C_17
REMARK    5  A    between atoms: C_16  and  C_18
REMARK    6  A    between atoms: C_18  and  C_19
REMARK    7  A    between atoms: C_25  and  C_26
REMARK    8  A    between atoms: C_28  and  O_29
REMARK    9  A    between atoms: C_30  and  C_31
REMARK   10  A    between atoms: C_31  and  C_32
REMARK   11  A    between atoms: C_32  and  C_33
REMARK   12  A    between atoms: C_33  and  O_34
REMARK   13  A    between atoms: C_35  and  O_36
REMARK                            x       y       z     vdW  Elec       q    Type
REMARK                         _______ _______ _______ _____ _____    ______ ____
ROOT
ATOM      1  C   UNL     1       1.236   8.101  20.235  0.00  0.00    +0.000 C 
ATOM      2  C   UNL     1       0.332   8.859  20.877  0.00  0.00    +0.000 C 
ATOM      3  C   UNL     1      -0.124   8.645  22.317  0.00  0.00    +0.000 C 
ATOM      4  C   UNL     1      -0.207   9.930  23.153  0.00  0.00    +0.000 C 
ATOM      5  C   UNL     1      -0.972  11.047  22.443  0.00  0.00    +0.000 C 
ATOM      6  C   UNL     1      -0.467  11.270  21.006  0.00  0.00    +0.000 C 
ATOM      7  C   UNL     1       0.960  11.890  21.091  0.00  0.00    +0.000 C 
ATOM      8  C   UNL     1      -0.439   9.955  20.200  0.00  0.00    +0.000 C 
ATOM      9  C   UNL     1      -0.209  10.418  18.755  0.00  0.00    +0.000 C 
ATOM     10  C   UNL     1      -0.910  11.788  18.674  0.00  0.00    +0.000 C 
ATOM     11  C   UNL     1      -1.383  12.153  20.108  0.00  0.00    +0.000 C 
ENDROOT
BRANCH   1  15
ATOM     12  C   UNL     1       2.542   6.481  17.813  0.00  0.00    +0.000 C 
ATOM     13  C   UNL     1       2.063   5.584  18.693  0.00  0.00    +0.000 C 
ATOM     14  C   UNL     1       2.166   5.784  20.140  0.00  0.00    +0.000 C 
ATOM     15  C   UNL     1       1.832   6.914  20.797  0.00  0.00    +0.000 C 
ATOM     16  C   UNL     1       2.675   4.597  20.934  0.00  0.00    +0.000 C 
ATOM     17  C   UNL     1       2.024   3.273  20.505  0.00  0.00    +0.000 C 
ATOM     18  C   UNL     1       2.096   3.055  18.977  0.00  0.00    +0.000 C 
ATOM     19  C   UNL     1       1.415   4.272  18.288  0.00  0.00    +0.000 C 
BRANCH  17  20
ATOM     20  O   UNL     1       0.661   3.213  20.946  0.00  0.00    +0.000 OA
ATOM     21  H   UNL     1       0.261   2.388  20.615  0.00  0.00    +0.000 HD
ENDBRANCH  17  20
BRANCH  19  22
ATOM     22  O   UNL     1       1.335   4.154  16.873  0.00  0.00    +0.000 OA
ATOM     23  H   UNL     1       0.400   4.205  16.598  0.00  0.00    +0.000 HD
ENDBRANCH  19  22
BRANCH  18  24
ATOM     24  C   UNL     1       3.552   2.796  18.490  0.00  0.00    +0.000 C 
BRANCH  24  25
ATOM     25  C   UNL     1       4.622   3.346  19.452  0.00  0.00    +0.000 C 
BRANCH  25  26
ATOM     26  C   UNL     1       5.549   4.364  18.794  0.00  0.00    +0.000 C 
BRANCH  26  27
ATOM     27  O   UNL     1       6.461   4.904  19.739  0.00  0.00    +0.000 OA
ATOM     28  H   UNL     1       5.980   5.568  20.262  0.00  0.00    +0.000 HD
ENDBRANCH  26  27
ENDBRANCH  25  26
ENDBRANCH  24  25
ENDBRANCH  18  24
ENDBRANCH   1  15
BRANCH  11  29
ATOM     29  C   UNL     1      -2.935  12.019  20.341  0.00  0.00    +0.000 C 
ATOM     30  C   UNL     1      -3.820  12.069  19.083  0.00  0.00    +0.000 C 
BRANCH  29  31
ATOM     31  C   UNL     1      -3.426  13.069  21.366  0.00  0.00    +0.000 C 
BRANCH  31  32
ATOM     32  C   UNL     1      -3.086  14.520  20.974  0.00  0.00    +0.000 C 
ATOM     33  O   UNL     1      -4.291  15.230  20.640  0.00  0.00    +0.000 OA
ATOM     34  C   UNL     1      -4.702  15.970  21.707  0.00  0.00    +0.000 C 
ATOM     35  O   UNL     1      -5.746  16.589  21.792  0.00  0.00    +0.000 OA
ATOM     36  C   UNL     1      -3.630  15.897  22.730  0.00  0.00    +0.000 C 
ATOM     37  C   UNL     1      -3.841  16.208  24.012  0.00  0.00    +0.000 C 
ATOM     38  C   UNL     1      -2.420  15.359  22.056  0.00  0.00    +0.000 C 
ATOM     39  C   UNL     1      -1.399  14.622  22.912  0.00  0.00    +0.000 C 
ENDBRANCH  31  32
ENDBRANCH  29  31
ENDBRANCH  11  29
TORSDOF 10
ENDMDL
MODEL 8
REMARK VINA RESULT:      -7.5      1.142      1.363
REMARK  Name = 
REMARK  13 active torsions:
REMARK  status: ('A' for Active; 'I' for Inactive)
REMARK    1  A    between atoms: C_4  and  C_5
REMARK    2  A    between atoms: C_10  and  C_11
REMARK    3  A    between atoms: C_15  and  C_16
REMARK    4  A    between atoms: C_16  and  C_17
REMARK    5  A    between atoms: C_16  and  C_18
REMARK    6  A    between atoms: C_18  and  C_19
REMARK    7  A    between atoms: C_25  and  C_26
REMARK    8  A    between atoms: C_28  and  O_29
REMARK    9  A    between atoms: C_30  and  C_31
REMARK   10  A    between atoms: C_31  and  C_32
REMARK   11  A    between atoms: C_32  and  C_33
REMARK   12  A    between atoms: C_33  and  O_34
REMARK   13  A    between atoms: C_35  and  O_36
REMARK                            x       y       z     vdW  Elec       q    Type
REMARK                         _______ _______ _______ _____ _____    ______ ____
ROOT
ATOM      1  C   UNL     1       1.068   8.188  19.796  0.00  0.00    +0.000 C 
ATOM      2  C   UNL     1       0.237   8.994  20.478  0.00  0.00    +0.000 C 
ATOM      3  C   UNL     1      -0.170   8.798  21.935  0.00  0.00    +0.000 C 
ATOM      4  C   UNL     1      -0.142  10.080  22.780  0.00  0.00    +0.000 C 
ATOM      5  C   UNL     1      -0.868  11.244  22.107  0.00  0.00    +0.000 C 
ATOM      6  C   UNL     1      -0.411  11.447  20.651  0.00  0.00    +0.000 C 
ATOM      7  C   UNL     1       1.053  11.981  20.678  0.00  0.00    +0.000 C 
ATOM      8  C   UNL     1      -0.494  10.138  19.839  0.00  0.00    +0.000 C 
ATOM      9  C   UNL     1      -0.297  10.596  18.387  0.00  0.00    +0.000 C 
ATOM     10  C   UNL     1      -0.919  12.005  18.342  0.00  0.00    +0.000 C 
ATOM     11  C   UNL     1      -1.309  12.388  19.796  0.00  0.00    +0.000 C 
ENDROOT
BRANCH   1  15
ATOM     12  C   UNL     1       3.884   7.730  18.363  0.00  0.00    +0.000 C 
ATOM     13  C   UNL     1       3.324   6.523  18.558  0.00  0.00    +0.000 C 
ATOM     14  C   UNL     1       2.580   6.199  19.777  0.00  0.00    +0.000 C 
ATOM     15  C   UNL     1       1.615   6.964  20.328  0.00  0.00    +0.000 C 
ATOM     16  C   UNL     1       2.936   4.881  20.435  0.00  0.00    +0.000 C 
ATOM     17  C   UNL     1       3.065   3.729  19.425  0.00  0.00    +0.000 C 
ATOM     18  C   UNL     1       3.995   4.087  18.246  0.00  0.00    +0.000 C 
ATOM     19  C   UNL     1       3.438   5.374  17.571  0.00  0.00    +0.000 C 
BRANCH  17  20
ATOM     20  O   UNL     1       1.774   3.341  18.934  0.00  0.00    +0.000 OA
ATOM     21  H   UNL     1       1.860   3.088  17.996  0.00  0.00    +0.000 HD
ENDBRANCH  17  20
BRANCH  19  22
ATOM     22  O   UNL     1       4.158   5.764  16.409  0.00  0.00    +0.000 OA
ATOM     23  H   UNL     1       4.783   5.055  16.164  0.00  0.00    +0.000 HD
ENDBRANCH  19  22
BRANCH  18  24
ATOM     24  C   UNL     1       5.483   4.209  18.688  0.00  0.00    +0.000 C 
BRANCH  24  25
ATOM     25  C   UNL     1       6.465   4.279  17.504  0.00  0.00    +0.000 C 
BRANCH  25  26
ATOM     26  C   UNL     1       7.392   5.490  17.568  0.00  0.00    +0.000 C 
BRANCH  26  27
ATOM     27  O   UNL     1       7.306   6.257  16.376  0.00  0.00    +0.000 OA
ATOM     28  H   UNL     1       8.014   6.923  16.407  0.00  0.00    +0.000 HD
ENDBRANCH  26  27
ENDBRANCH  25  26
ENDBRANCH  24  25
ENDBRANCH  18  24
ENDBRANCH   1  15
BRANCH  11  29
ATOM     29  C   UNL     1      -2.855  12.345  20.093  0.00  0.00    +0.000 C 
ATOM     30  C   UNL     1      -3.768  11.983  18.908  0.00  0.00    +0.000 C 
BRANCH  29  31
ATOM     31  C   UNL     1      -3.328  13.675  20.727  0.00  0.00    +0.000 C 
BRANCH  31  32
ATOM     32  C   UNL     1      -4.664  13.556  21.486  0.00  0.00    +0.000 C 
ATOM     33  O   UNL     1      -4.652  12.382  22.314  0.00  0.00    +0.000 OA
ATOM     34  C   UNL     1      -4.340  12.723  23.596  0.00  0.00    +0.000 C 
ATOM     35  O   UNL     1      -4.132  11.952  24.513  0.00  0.00    +0.000 OA
ATOM     36  C   UNL     1      -4.326  14.205  23.663  0.00  0.00    +0.000 C 
ATOM     37  C   UNL     1      -3.729  14.871  24.656  0.00  0.00    +0.000 C 
ATOM     38  C   UNL     1      -4.991  14.704  22.432  0.00  0.00    +0.000 C 
ATOM     39  C   UNL     1      -4.607  16.090  21.929  0.00  0.00    +0.000 C 
ENDBRANCH  31  32
ENDBRANCH  29  31
ENDBRANCH  11  29
TORSDOF 10
ENDMDL
MODEL 9
REMARK VINA RESULT:      -7.2      2.180      3.743
REMARK  Name = 
REMARK  13 active torsions:
REMARK  status: ('A' for Active; 'I' for Inactive)
REMARK    1  A    between atoms: C_4  and  C_5
REMARK    2  A    between atoms: C_10  and  C_11
REMARK    3  A    between atoms: C_15  and  C_16
REMARK    4  A    between atoms: C_16  and  C_17
REMARK    5  A    between atoms: C_16  and  C_18
REMARK    6  A    between atoms: C_18  and  C_19
REMARK    7  A    between atoms: C_25  and  C_26
REMARK    8  A    between atoms: C_28  and  O_29
REMARK    9  A    between atoms: C_30  and  C_31
REMARK   10  A    between atoms: C_31  and  C_32
REMARK   11  A    between atoms: C_32  and  C_33
REMARK   12  A    between atoms: C_33  and  O_34
REMARK   13  A    between atoms: C_35  and  O_36
REMARK                            x       y       z     vdW  Elec       q    Type
REMARK                         _______ _______ _______ _____ _____    ______ ____
ROOT
ATOM      1  C   UNL     1       1.469   8.087  20.385  0.00  0.00    +0.000 C 
ATOM      2  C   UNL     1       0.630   9.040  20.826  0.00  0.00    +0.000 C 
ATOM      3  C   UNL     1      -0.231   8.933  22.080  0.00  0.00    +0.000 C 
ATOM      4  C   UNL     1      -0.230  10.192  22.960  0.00  0.00    +0.000 C 
ATOM      5  C   UNL     1      -0.492  11.468  22.161  0.00  0.00    +0.000 C 
ATOM      6  C   UNL     1       0.418  11.572  20.923  0.00  0.00    +0.000 C 
ATOM      7  C   UNL     1       1.874  11.820  21.418  0.00  0.00    +0.000 C 
ATOM      8  C   UNL     1       0.350  10.298  20.057  0.00  0.00    +0.000 C 
ATOM      9  C   UNL     1       1.061  10.702  18.758  0.00  0.00    +0.000 C 
ATOM     10  C   UNL     1       0.750  12.202  18.600  0.00  0.00    +0.000 C 
ATOM     11  C   UNL     1       0.011  12.661  19.887  0.00  0.00    +0.000 C 
ENDROOT
BRANCH   1  15
ATOM     12  C   UNL     1       3.718   6.516  18.752  0.00  0.00    +0.000 C 
ATOM     13  C   UNL     1       2.786   5.622  19.128  0.00  0.00    +0.000 C 
ATOM     14  C   UNL     1       2.137   5.681  20.439  0.00  0.00    +0.000 C 
ATOM     15  C   UNL     1       1.595   6.786  20.992  0.00  0.00    +0.000 C 
ATOM     16  C   UNL     1       2.069   4.371  21.199  0.00  0.00    +0.000 C 
ATOM     17  C   UNL     1       1.640   3.191  20.313  0.00  0.00    +0.000 C 
ATOM     18  C   UNL     1       2.478   3.097  19.019  0.00  0.00    +0.000 C 
ATOM     19  C   UNL     1       2.347   4.451  18.265  0.00  0.00    +0.000 C 
BRANCH  17  20
ATOM     20  O   UNL     1       0.246   3.283  19.989  0.00  0.00    +0.000 OA
ATOM     21  H   UNL     1      -0.275   3.001  20.764  0.00  0.00    +0.000 HD
ENDBRANCH  17  20
BRANCH  19  22
ATOM     22  O   UNL     1       3.006   4.467  17.005  0.00  0.00    +0.000 OA
ATOM     23  H   UNL     1       3.095   3.552  16.677  0.00  0.00    +0.000 HD
ENDBRANCH  19  22
BRANCH  18  24
ATOM     24  C   UNL     1       3.952   2.682  19.304  0.00  0.00    +0.000 C 
BRANCH  24  25
ATOM     25  C   UNL     1       4.157   2.098  20.715  0.00  0.00    +0.000 C 
BRANCH  25  26
ATOM     26  C   UNL     1       5.228   1.013  20.762  0.00  0.00    +0.000 C 
BRANCH  26  27
ATOM     27  O   UNL     1       5.909   1.026  22.007  0.00  0.00    +0.000 OA
ATOM     28  H   UNL     1       6.765   0.584  21.877  0.00  0.00    +0.000 HD
ENDBRANCH  26  27
ENDBRANCH  25  26
ENDBRANCH  24  25
ENDBRANCH  18  24
ENDBRANCH   1  15
BRANCH  11  29
ATOM     29  C   UNL     1      -1.534  12.912  19.703  0.00  0.00    +0.000 C 
ATOM     30  C   UNL     1      -2.446  12.416  20.839  0.00  0.00    +0.000 C 
BRANCH  29  31
ATOM     31  C   UNL     1      -2.024  12.338  18.353  0.00  0.00    +0.000 C 
BRANCH  31  32
ATOM     32  C   UNL     1      -3.141  11.286  18.499  0.00  0.00    +0.000 C 
ATOM     33  O   UNL     1      -4.425  11.916  18.355  0.00  0.00    +0.000 OA
ATOM     34  C   UNL     1      -4.887  11.740  17.086  0.00  0.00    +0.000 C 
ATOM     35  O   UNL     1      -5.884  12.248  16.608  0.00  0.00    +0.000 OA
ATOM     36  C   UNL     1      -3.961  10.798  16.410  0.00  0.00    +0.000 C 
ATOM     37  C   UNL     1      -3.910  10.675  15.080  0.00  0.00    +0.000 C 
ATOM     38  C   UNL     1      -3.133  10.165  17.469  0.00  0.00    +0.000 C 
ATOM     39  C   UNL     1      -1.754   9.651  17.079  0.00  0.00    +0.000 C 
ENDBRANCH  31  32
ENDBRANCH  29  31
ENDBRANCH  11  29
TORSDOF 10
ENDMDL
