MODEL 1
REMARK VINA RESULT:      -9.3      0.000      0.000
REMARK  Name = 
REMARK  7 active torsions:
REMARK  status: ('A' for Active; 'I' for Inactive)
REMARK    1  A    between atoms: C_1  and  O_2
REMARK    2  A    between atoms: O_2  and  C_3
REMARK    3  A    between atoms: C_6  and  C_7
REMARK    4  A    between atoms: C_11  and  C_12
REMARK    5  A    between atoms: C_18  and  O_19
REMARK    6  A    between atoms: O_19  and  C_20
REMARK    7  A    between atoms: C_24  and  C_25
REMARK                            x       y       z     vdW  Elec       q    Type
REMARK                         _______ _______ _______ _____ _____    ______ ____
ROOT
ATOM      1  C   UNL     1       6.539   5.244  18.398  0.00  0.00    +0.000 A 
ATOM      2  C   UNL     1       7.633   4.682  17.773  0.00  0.00    +0.000 A 
ATOM      3  N   UNL     1       7.740   4.491  16.441  0.00  0.00    +0.000 NA
ATOM      4  C   UNL     1       6.683   4.868  15.704  0.00  0.00    +0.000 A 
ATOM      5  N   UNL     1       5.579   5.445  16.201  0.00  0.00    +0.000 NA
ATOM      6  C   UNL     1       5.547   5.664  17.531  0.00  0.00    +0.000 A 
ENDROOT
BRANCH   4   7
ATOM      7  C   UNL     1       6.721   4.667  14.244  0.00  0.00    +0.000 A 
ATOM      8  C   UNL     1       7.798   5.118  13.464  0.00  0.00    +0.000 A 
ATOM      9  C   UNL     1       7.809   4.938  12.079  0.00  0.00    +0.000 A 
ATOM     10  C   UNL     1       6.746   4.294  11.446  0.00  0.00    +0.000 A 
ATOM     11  C   UNL     1       5.657   3.828  12.188  0.00  0.00    +0.000 A 
ATOM     12  C   UNL     1       5.658   4.021  13.581  0.00  0.00    +0.000 A 
BRANCH  11  13
ATOM     13  C   UNL     1       4.494   3.125  11.532  0.00  0.00    +0.000 C 
ATOM     14  F   UNL     1       3.439   2.921  12.369  0.00  0.00    +0.000 F 
ATOM     15  F   UNL     1       3.996   3.821  10.472  0.00  0.00    +0.000 F 
ATOM     16  F   UNL     1       4.828   1.897  11.049  0.00  0.00    +0.000 F 
ENDBRANCH  11  13
ENDBRANCH   4   7
BRANCH   1  18
ATOM     17  C   UNL     1       7.896   5.516  20.313  0.00  0.00    +0.000 C 
ATOM     18  O   UNL     1       6.596   5.345  19.754  0.00  0.00    +0.000 OA
ENDBRANCH   1  18
BRANCH   6  19
ATOM     19  O   UNL     1       4.442   6.326  18.044  0.00  0.00    +0.000 OA
BRANCH  19  20
ATOM     20  C   UNL     1       3.482   5.607  18.717  0.00  0.00    +0.000 A 
ATOM     21  C   UNL     1       2.860   6.264  19.780  0.00  0.00    +0.000 A 
ATOM     22  C   UNL     1       1.834   5.639  20.488  0.00  0.00    +0.000 A 
ATOM     23  C   UNL     1       1.414   4.359  20.125  0.00  0.00    +0.000 A 
ATOM     24  C   UNL     1       2.009   3.695  19.041  0.00  0.00    +0.000 A 
ATOM     25  C   UNL     1       3.042   4.337  18.335  0.00  0.00    +0.000 A 
BRANCH  24  26
ATOM     26  C   UNL     1       1.554   2.322  18.615  0.00  0.00    +0.000 C 
ATOM     27  F   UNL     1       2.102   1.908  17.438  0.00  0.00    +0.000 F 
ATOM     28  F   UNL     1       1.875   1.364  19.529  0.00  0.00    +0.000 F 
ATOM     29  F   UNL     1       0.206   2.242  18.447  0.00  0.00    +0.000 F 
ENDBRANCH  24  26
ENDBRANCH  19  20
ENDBRANCH   6  19
TORSDOF 6
ENDMDL
MODEL 2
REMARK VINA RESULT:      -9.1      1.293      1.823
REMARK  Name = 
REMARK  7 active torsions:
REMARK  status: ('A' for Active; 'I' for Inactive)
REMARK    1  A    between atoms: C_1  and  O_2
REMARK    2  A    between atoms: O_2  and  C_3
REMARK    3  A    between atoms: C_6  and  C_7
REMARK    4  A    between atoms: C_11  and  C_12
REMARK    5  A    between atoms: C_18  and  O_19
REMARK    6  A    between atoms: O_19  and  C_20
REMARK    7  A    between atoms: C_24  and  C_25
REMARK                            x       y       z     vdW  Elec       q    Type
REMARK                         _______ _______ _______ _____ _____    ______ ____
ROOT
ATOM      1  C   UNL     1       6.620   5.156  18.472  0.00  0.00    +0.000 A 
ATOM      2  C   UNL     1       7.737   4.676  17.819  0.00  0.00    +0.000 A 
ATOM      3  N   UNL     1       7.837   4.526  16.481  0.00  0.00    +0.000 NA
ATOM      4  C   UNL     1       6.751   4.861  15.767  0.00  0.00    +0.000 A 
ATOM      5  N   UNL     1       5.622   5.359  16.292  0.00  0.00    +0.000 NA
ATOM      6  C   UNL     1       5.594   5.541  17.627  0.00  0.00    +0.000 A 
ENDROOT
BRANCH   4   7
ATOM      7  C   UNL     1       6.782   4.701  14.302  0.00  0.00    +0.000 A 
ATOM      8  C   UNL     1       7.823   5.230  13.522  0.00  0.00    +0.000 A 
ATOM      9  C   UNL     1       7.826   5.088  12.132  0.00  0.00    +0.000 A 
ATOM     10  C   UNL     1       6.792   4.403  11.494  0.00  0.00    +0.000 A 
ATOM     11  C   UNL     1       5.739   3.859  12.236  0.00  0.00    +0.000 A 
ATOM     12  C   UNL     1       5.747   4.015  13.633  0.00  0.00    +0.000 A 
BRANCH  11  13
ATOM     13  C   UNL     1       4.608   3.112  11.573  0.00  0.00    +0.000 C 
ATOM     14  F   UNL     1       4.107   3.745  10.476  0.00  0.00    +0.000 F 
ATOM     15  F   UNL     1       4.983   1.873  11.146  0.00  0.00    +0.000 F 
ATOM     16  F   UNL     1       3.549   2.916  12.405  0.00  0.00    +0.000 F 
ENDBRANCH  11  13
ENDBRANCH   4   7
BRANCH   1  18
ATOM     17  C   UNL     1       7.983   5.458  20.377  0.00  0.00    +0.000 C 
ATOM     18  O   UNL     1       6.689   5.224  19.829  0.00  0.00    +0.000 OA
ENDBRANCH   1  18
BRANCH   6  19
ATOM     19  O   UNL     1       4.460   6.123  18.170  0.00  0.00    +0.000 OA
BRANCH  19  20
ATOM     20  C   UNL     1       3.415   5.320  18.562  0.00  0.00    +0.000 A 
ATOM     21  C   UNL     1       2.458   5.040  17.585  0.00  0.00    +0.000 A 
ATOM     22  C   UNL     1       1.392   4.189  17.870  0.00  0.00    +0.000 A 
ATOM     23  C   UNL     1       1.285   3.601  19.132  0.00  0.00    +0.000 A 
ATOM     24  C   UNL     1       2.252   3.850  20.116  0.00  0.00    +0.000 A 
ATOM     25  C   UNL     1       3.324   4.709  19.816  0.00  0.00    +0.000 A 
BRANCH  24  26
ATOM     26  C   UNL     1       2.171   3.205  21.478  0.00  0.00    +0.000 C 
ATOM     27  F   UNL     1       0.980   2.589  21.719  0.00  0.00    +0.000 F 
ATOM     28  F   UNL     1       3.124   2.248  21.654  0.00  0.00    +0.000 F 
ATOM     29  F   UNL     1       2.342   4.095  22.493  0.00  0.00    +0.000 F 
ENDBRANCH  24  26
ENDBRANCH  19  20
ENDBRANCH   6  19
TORSDOF 6
ENDMDL
MODEL 3
REMARK VINA RESULT:      -8.9      3.426      4.734
REMARK  Name = 
REMARK  7 active torsions:
REMARK  status: ('A' for Active; 'I' for Inactive)
REMARK    1  A    between atoms: C_1  and  O_2
REMARK    2  A    between atoms: O_2  and  C_3
REMARK    3  A    between atoms: C_6  and  C_7
REMARK    4  A    between atoms: C_11  and  C_12
REMARK    5  A    between atoms: C_18  and  O_19
REMARK    6  A    between atoms: O_19  and  C_20
REMARK    7  A    between atoms: C_24  and  C_25
REMARK                            x       y       z     vdW  Elec       q    Type
REMARK                         _______ _______ _______ _____ _____    ______ ____
ROOT
ATOM      1  C   UNL     1       2.017   4.023  18.868  0.00  0.00    +0.000 A 
ATOM      2  C   UNL     1       2.172   3.132  17.825  0.00  0.00    +0.000 A 
ATOM      3  N   UNL     1       3.166   3.186  16.913  0.00  0.00    +0.000 NA
ATOM      4  C   UNL     1       4.037   4.198  17.048  0.00  0.00    +0.000 A 
ATOM      5  N   UNL     1       3.997   5.106  18.034  0.00  0.00    +0.000 NA
ATOM      6  C   UNL     1       3.017   4.975  18.951  0.00  0.00    +0.000 A 
ENDROOT
BRANCH   4   7
ATOM      7  C   UNL     1       5.134   4.332  16.073  0.00  0.00    +0.000 A 
ATOM      8  C   UNL     1       6.360   4.924  16.417  0.00  0.00    +0.000 A 
ATOM      9  C   UNL     1       7.383   5.061  15.475  0.00  0.00    +0.000 A 
ATOM     10  C   UNL     1       7.204   4.600  14.171  0.00  0.00    +0.000 A 
ATOM     11  C   UNL     1       5.998   4.002  13.791  0.00  0.00    +0.000 A 
ATOM     12  C   UNL     1       4.977   3.875  14.748  0.00  0.00    +0.000 A 
BRANCH  11  13
ATOM     13  C   UNL     1       5.777   3.491  12.389  0.00  0.00    +0.000 C 
ATOM     14  F   UNL     1       5.983   2.150  12.260  0.00  0.00    +0.000 F 
ATOM     15  F   UNL     1       4.508   3.714  11.947  0.00  0.00    +0.000 F 
ATOM     16  F   UNL     1       6.599   4.082  11.478  0.00  0.00    +0.000 F 
ENDBRANCH  11  13
ENDBRANCH   4   7
BRANCH   1  18
ATOM     17  C   UNL     1       1.191   3.069  20.865  0.00  0.00    +0.000 C 
ATOM     18  O   UNL     1       0.946   3.827  19.684  0.00  0.00    +0.000 OA
ENDBRANCH   1  18
BRANCH   6  19
ATOM     19  O   UNL     1       3.012   5.864  20.013  0.00  0.00    +0.000 OA
BRANCH  19  20
ATOM     20  C   UNL     1       2.341   7.058  19.887  0.00  0.00    +0.000 A 
ATOM     21  C   UNL     1       2.440   7.686  18.644  0.00  0.00    +0.000 A 
ATOM     22  C   UNL     1       1.749   8.872  18.400  0.00  0.00    +0.000 A 
ATOM     23  C   UNL     1       0.943   9.428  19.394  0.00  0.00    +0.000 A 
ATOM     24  C   UNL     1       0.810   8.796  20.639  0.00  0.00    +0.000 A 
ATOM     25  C   UNL     1       1.511   7.599  20.873  0.00  0.00    +0.000 A 
BRANCH  24  26
ATOM     26  C   UNL     1      -0.076   9.364  21.719  0.00  0.00    +0.000 C 
ATOM     27  F   UNL     1      -0.930   8.451  22.261  0.00  0.00    +0.000 F 
ATOM     28  F   UNL     1       0.640   9.865  22.765  0.00  0.00    +0.000 F 
ATOM     29  F   UNL     1      -0.856  10.387  21.276  0.00  0.00    +0.000 F 
ENDBRANCH  24  26
ENDBRANCH  19  20
ENDBRANCH   6  19
TORSDOF 6
ENDMDL
MODEL 4
REMARK VINA RESULT:      -8.7      3.575      4.851
REMARK  Name = 
REMARK  7 active torsions:
REMARK  status: ('A' for Active; 'I' for Inactive)
REMARK    1  A    between atoms: C_1  and  O_2
REMARK    2  A    between atoms: O_2  and  C_3
REMARK    3  A    between atoms: C_6  and  C_7
REMARK    4  A    between atoms: C_11  and  C_12
REMARK    5  A    between atoms: C_18  and  O_19
REMARK    6  A    between atoms: O_19  and  C_20
REMARK    7  A    between atoms: C_24  and  C_25
REMARK                            x       y       z     vdW  Elec       q    Type
REMARK                         _______ _______ _______ _____ _____    ______ ____
ROOT
ATOM      1  C   UNL     1       2.095   4.281  18.908  0.00  0.00    +0.000 A 
ATOM      2  C   UNL     1       2.297   3.287  17.972  0.00  0.00    +0.000 A 
ATOM      3  N   UNL     1       3.292   3.285  17.060  0.00  0.00    +0.000 NA
ATOM      4  C   UNL     1       4.115   4.346  17.081  0.00  0.00    +0.000 A 
ATOM      5  N   UNL     1       4.027   5.355  17.959  0.00  0.00    +0.000 NA
ATOM      6  C   UNL     1       3.049   5.282  18.884  0.00  0.00    +0.000 A 
ENDROOT
BRANCH   4   7
ATOM      7  C   UNL     1       5.210   4.420  16.098  0.00  0.00    +0.000 A 
ATOM      8  C   UNL     1       6.464   4.958  16.429  0.00  0.00    +0.000 A 
ATOM      9  C   UNL     1       7.486   5.041  15.479  0.00  0.00    +0.000 A 
ATOM     10  C   UNL     1       7.277   4.577  14.181  0.00  0.00    +0.000 A 
ATOM     11  C   UNL     1       6.043   4.032  13.813  0.00  0.00    +0.000 A 
ATOM     12  C   UNL     1       5.023   3.961  14.778  0.00  0.00    +0.000 A 
BRANCH  11  13
ATOM     13  C   UNL     1       5.788   3.521  12.417  0.00  0.00    +0.000 C 
ATOM     14  F   UNL     1       4.540   3.805  11.953  0.00  0.00    +0.000 F 
ATOM     15  F   UNL     1       6.651   4.049  11.504  0.00  0.00    +0.000 F 
ATOM     16  F   UNL     1       5.922   2.169  12.320  0.00  0.00    +0.000 F 
ENDBRANCH  11  13
ENDBRANCH   4   7
BRANCH   1  18
ATOM     17  C   UNL     1       0.995   2.920  20.495  0.00  0.00    +0.000 C 
ATOM     18  O   UNL     1       1.029   4.128  19.740  0.00  0.00    +0.000 OA
ENDBRANCH   1  18
BRANCH   6  19
ATOM     19  O   UNL     1       2.997   6.283  19.841  0.00  0.00    +0.000 OA
BRANCH  19  20
ATOM     20  C   UNL     1       2.315   7.444  19.560  0.00  0.00    +0.000 A 
ATOM     21  C   UNL     1       2.379   7.887  18.238  0.00  0.00    +0.000 A 
ATOM     22  C   UNL     1       1.674   9.023  17.844  0.00  0.00    +0.000 A 
ATOM     23  C   UNL     1       0.889   9.715  18.768  0.00  0.00    +0.000 A 
ATOM     24  C   UNL     1       0.792   9.268  20.094  0.00  0.00    +0.000 A 
ATOM     25  C   UNL     1       1.507   8.120  20.479  0.00  0.00    +0.000 A 
BRANCH  24  26
ATOM     26  C   UNL     1      -0.069   9.984  21.103  0.00  0.00    +0.000 C 
ATOM     27  F   UNL     1      -1.091  10.691  20.543  0.00  0.00    +0.000 F 
ATOM     28  F   UNL     1      -0.654   9.127  21.986  0.00  0.00    +0.000 F 
ATOM     29  F   UNL     1       0.631  10.876  21.856  0.00  0.00    +0.000 F 
ENDBRANCH  24  26
ENDBRANCH  19  20
ENDBRANCH   6  19
TORSDOF 6
ENDMDL
MODEL 5
REMARK VINA RESULT:      -8.6      3.938      8.308
REMARK  Name = 
REMARK  7 active torsions:
REMARK  status: ('A' for Active; 'I' for Inactive)
REMARK    1  A    between atoms: C_1  and  O_2
REMARK    2  A    between atoms: O_2  and  C_3
REMARK    3  A    between atoms: C_6  and  C_7
REMARK    4  A    between atoms: C_11  and  C_12
REMARK    5  A    between atoms: C_18  and  O_19
REMARK    6  A    between atoms: O_19  and  C_20
REMARK    7  A    between atoms: C_24  and  C_25
REMARK                            x       y       z     vdW  Elec       q    Type
REMARK                         _______ _______ _______ _____ _____    ______ ____
ROOT
ATOM      1  C   UNL     1       3.242   3.312  19.798  0.00  0.00    +0.000 A 
ATOM      2  C   UNL     1       1.901   3.610  19.930  0.00  0.00    +0.000 A 
ATOM      3  N   UNL     1       1.394   4.860  19.977  0.00  0.00    +0.000 NA
ATOM      4  C   UNL     1       2.286   5.861  19.906  0.00  0.00    +0.000 A 
ATOM      5  N   UNL     1       3.608   5.690  19.753  0.00  0.00    +0.000 NA
ATOM      6  C   UNL     1       4.055   4.422  19.656  0.00  0.00    +0.000 A 
ENDROOT
BRANCH   4   7
ATOM      7  C   UNL     1       1.806   7.253  19.975  0.00  0.00    +0.000 A 
ATOM      8  C   UNL     1       1.940   8.135  18.891  0.00  0.00    +0.000 A 
ATOM      9  C   UNL     1       1.498   9.458  18.980  0.00  0.00    +0.000 A 
ATOM     10  C   UNL     1       0.903   9.922  20.153  0.00  0.00    +0.000 A 
ATOM     11  C   UNL     1       0.749   9.073  21.253  0.00  0.00    +0.000 A 
ATOM     12  C   UNL     1       1.204   7.747  21.151  0.00  0.00    +0.000 A 
BRANCH  11  13
ATOM     13  C   UNL     1       0.108   9.547  22.534  0.00  0.00    +0.000 C 
ATOM     14  F   UNL     1      -0.273  10.854  22.500  0.00  0.00    +0.000 F 
ATOM     15  F   UNL     1      -1.016   8.842  22.845  0.00  0.00    +0.000 F 
ATOM     16  F   UNL     1       0.933   9.428  23.610  0.00  0.00    +0.000 F 
ENDBRANCH  11  13
ENDBRANCH   4   7
BRANCH   1  18
ATOM     17  C   UNL     1       3.567   1.359  18.509  0.00  0.00    +0.000 C 
ATOM     18  O   UNL     1       3.576   1.993  19.785  0.00  0.00    +0.000 OA
ENDBRANCH   1  18
BRANCH   6  19
ATOM     19  O   UNL     1       5.409   4.237  19.424  0.00  0.00    +0.000 OA
BRANCH  19  20
ATOM     20  C   UNL     1       5.997   4.860  18.349  0.00  0.00    +0.000 A 
ATOM     21  C   UNL     1       6.869   5.908  18.650  0.00  0.00    +0.000 A 
ATOM     22  C   UNL     1       7.557   6.564  17.630  0.00  0.00    +0.000 A 
ATOM     23  C   UNL     1       7.388   6.164  16.304  0.00  0.00    +0.000 A 
ATOM     24  C   UNL     1       6.537   5.096  15.986  0.00  0.00    +0.000 A 
ATOM     25  C   UNL     1       5.849   4.441  17.023  0.00  0.00    +0.000 A 
BRANCH  24  26
ATOM     26  C   UNL     1       6.358   4.630  14.562  0.00  0.00    +0.000 C 
ATOM     27  F   UNL     1       7.325   5.083  13.715  0.00  0.00    +0.000 F 
ATOM     28  F   UNL     1       6.381   3.272  14.456  0.00  0.00    +0.000 F 
ATOM     29  F   UNL     1       5.174   5.028  14.022  0.00  0.00    +0.000 F 
ENDBRANCH  24  26
ENDBRANCH  19  20
ENDBRANCH   6  19
TORSDOF 6
ENDMDL
MODEL 6
REMARK VINA RESULT:      -8.6      1.073      1.652
REMARK  Name = 
REMARK  7 active torsions:
REMARK  status: ('A' for Active; 'I' for Inactive)
REMARK    1  A    between atoms: C_1  and  O_2
REMARK    2  A    between atoms: O_2  and  C_3
REMARK    3  A    between atoms: C_6  and  C_7
REMARK    4  A    between atoms: C_11  and  C_12
REMARK    5  A    between atoms: C_18  and  O_19
REMARK    6  A    between atoms: O_19  and  C_20
REMARK    7  A    between atoms: C_24  and  C_25
REMARK                            x       y       z     vdW  Elec       q    Type
REMARK                         _______ _______ _______ _____ _____    ______ ____
ROOT
ATOM      1  C   UNL     1       6.696   5.106  18.553  0.00  0.00    +0.000 A 
ATOM      2  C   UNL     1       7.806   4.638  17.880  0.00  0.00    +0.000 A 
ATOM      3  N   UNL     1       7.889   4.500  16.540  0.00  0.00    +0.000 NA
ATOM      4  C   UNL     1       6.790   4.833  15.844  0.00  0.00    +0.000 A 
ATOM      5  N   UNL     1       5.666   5.320  16.389  0.00  0.00    +0.000 NA
ATOM      6  C   UNL     1       5.656   5.491  17.726  0.00  0.00    +0.000 A 
ENDROOT
BRANCH   4   7
ATOM      7  C   UNL     1       6.801   4.686  14.377  0.00  0.00    +0.000 A 
ATOM      8  C   UNL     1       7.840   5.208  13.590  0.00  0.00    +0.000 A 
ATOM      9  C   UNL     1       7.825   5.077  12.199  0.00  0.00    +0.000 A 
ATOM     10  C   UNL     1       6.774   4.413  11.567  0.00  0.00    +0.000 A 
ATOM     11  C   UNL     1       5.722   3.877  12.317  0.00  0.00    +0.000 A 
ATOM     12  C   UNL     1       5.749   4.021  13.715  0.00  0.00    +0.000 A 
BRANCH  11  13
ATOM     13  C   UNL     1       4.573   3.151  11.662  0.00  0.00    +0.000 C 
ATOM     14  F   UNL     1       4.908   1.917  11.191  0.00  0.00    +0.000 F 
ATOM     15  F   UNL     1       3.530   2.951  12.514  0.00  0.00    +0.000 F 
ATOM     16  F   UNL     1       4.062   3.829  10.597  0.00  0.00    +0.000 F 
ENDBRANCH  11  13
ENDBRANCH   4   7
BRANCH   1  18
ATOM     17  C   UNL     1       8.078   5.431  20.440  0.00  0.00    +0.000 C 
ATOM     18  O   UNL     1       6.783   5.163  19.910  0.00  0.00    +0.000 OA
ENDBRANCH   1  18
BRANCH   6  19
ATOM     19  O   UNL     1       4.526   6.061  18.290  0.00  0.00    +0.000 OA
BRANCH  19  20
ATOM     20  C   UNL     1       3.429   5.270  18.543  0.00  0.00    +0.000 A 
ATOM     21  C   UNL     1       2.446   5.253  17.552  0.00  0.00    +0.000 A 
ATOM     22  C   UNL     1       1.324   4.438  17.692  0.00  0.00    +0.000 A 
ATOM     23  C   UNL     1       1.187   3.624  18.817  0.00  0.00    +0.000 A 
ATOM     24  C   UNL     1       2.178   3.608  19.809  0.00  0.00    +0.000 A 
ATOM     25  C   UNL     1       3.306   4.434  19.656  0.00  0.00    +0.000 A 
BRANCH  24  26
ATOM     26  C   UNL     1       2.064   2.718  21.021  0.00  0.00    +0.000 C 
ATOM     27  F   UNL     1       3.236   2.569  21.700  0.00  0.00    +0.000 F 
ATOM     28  F   UNL     1       1.169   3.195  21.931  0.00  0.00    +0.000 F 
ATOM     29  F   UNL     1       1.649   1.459  20.713  0.00  0.00    +0.000 F 
ENDBRANCH  24  26
ENDBRANCH  19  20
ENDBRANCH   6  19
TORSDOF 6
ENDMDL
MODEL 7
REMARK VINA RESULT:      -8.6      1.940      7.239
REMARK  Name = 
REMARK  7 active torsions:
REMARK  status: ('A' for Active; 'I' for Inactive)
REMARK    1  A    between atoms: C_1  and  O_2
REMARK    2  A    between atoms: O_2  and  C_3
REMARK    3  A    between atoms: C_6  and  C_7
REMARK    4  A    between atoms: C_11  and  C_12
REMARK    5  A    between atoms: C_18  and  O_19
REMARK    6  A    between atoms: O_19  and  C_20
REMARK    7  A    between atoms: C_24  and  C_25
REMARK                            x       y       z     vdW  Elec       q    Type
REMARK                         _______ _______ _______ _____ _____    ______ ____
ROOT
ATOM      1  C   UNL     1       7.051   6.396  17.040  0.00  0.00    +0.000 A 
ATOM      2  C   UNL     1       6.170   6.702  18.057  0.00  0.00    +0.000 A 
ATOM      3  N   UNL     1       5.196   5.879  18.500  0.00  0.00    +0.000 NA
ATOM      4  C   UNL     1       5.095   4.695  17.876  0.00  0.00    +0.000 A 
ATOM      5  N   UNL     1       5.911   4.283  16.894  0.00  0.00    +0.000 NA
ATOM      6  C   UNL     1       6.901   5.121  16.526  0.00  0.00    +0.000 A 
ENDROOT
BRANCH   4   7
ATOM      7  C   UNL     1       4.040   3.754  18.293  0.00  0.00    +0.000 A 
ATOM      8  C   UNL     1       3.757   2.589  17.563  0.00  0.00    +0.000 A 
ATOM      9  C   UNL     1       2.739   1.718  17.960  0.00  0.00    +0.000 A 
ATOM     10  C   UNL     1       1.989   1.991  19.104  0.00  0.00    +0.000 A 
ATOM     11  C   UNL     1       2.241   3.140  19.860  0.00  0.00    +0.000 A 
ATOM     12  C   UNL     1       3.265   4.009  19.444  0.00  0.00    +0.000 A 
BRANCH  11  13
ATOM     13  C   UNL     1       1.448   3.460  21.102  0.00  0.00    +0.000 C 
ATOM     14  F   UNL     1       2.223   3.778  22.176  0.00  0.00    +0.000 F 
ATOM     15  F   UNL     1       0.608   4.518  20.926  0.00  0.00    +0.000 F 
ATOM     16  F   UNL     1       0.663   2.423  21.505  0.00  0.00    +0.000 F 
ENDBRANCH  11  13
ENDBRANCH   4   7
BRANCH   1  18
ATOM     17  C   UNL     1       7.965   8.518  17.535  0.00  0.00    +0.000 C 
ATOM     18  O   UNL     1       7.960   7.355  16.711  0.00  0.00    +0.000 OA
ENDBRANCH   1  18
BRANCH   6  19
ATOM     19  O   UNL     1       7.792   4.675  15.564  0.00  0.00    +0.000 OA
BRANCH  19  20
ATOM     20  C   UNL     1       7.417   4.693  14.241  0.00  0.00    +0.000 A 
ATOM     21  C   UNL     1       8.228   5.439  13.385  0.00  0.00    +0.000 A 
ATOM     22  C   UNL     1       7.962   5.472  12.017  0.00  0.00    +0.000 A 
ATOM     23  C   UNL     1       6.891   4.745  11.496  0.00  0.00    +0.000 A 
ATOM     24  C   UNL     1       6.082   3.967  12.338  0.00  0.00    +0.000 A 
ATOM     25  C   UNL     1       6.362   3.941  13.716  0.00  0.00    +0.000 A 
BRANCH  24  26
ATOM     26  C   UNL     1       4.936   3.153  11.794  0.00  0.00    +0.000 C 
ATOM     27  F   UNL     1       5.289   1.887  11.434  0.00  0.00    +0.000 F 
ATOM     28  F   UNL     1       3.926   3.012  12.698  0.00  0.00    +0.000 F 
ATOM     29  F   UNL     1       4.371   3.710  10.687  0.00  0.00    +0.000 F 
ENDBRANCH  24  26
ENDBRANCH  19  20
ENDBRANCH   6  19
TORSDOF 6
ENDMDL
MODEL 8
REMARK VINA RESULT:      -8.3      3.457      4.693
REMARK  Name = 
REMARK  7 active torsions:
REMARK  status: ('A' for Active; 'I' for Inactive)
REMARK    1  A    between atoms: C_1  and  O_2
REMARK    2  A    between atoms: O_2  and  C_3
REMARK    3  A    between atoms: C_6  and  C_7
REMARK    4  A    between atoms: C_11  and  C_12
REMARK    5  A    between atoms: C_18  and  O_19
REMARK    6  A    between atoms: O_19  and  C_20
REMARK    7  A    between atoms: C_24  and  C_25
REMARK                            x       y       z     vdW  Elec       q    Type
REMARK                         _______ _______ _______ _____ _____    ______ ____
ROOT
ATOM      1  C   UNL     1       1.966   4.116  18.935  0.00  0.00    +0.000 A 
ATOM      2  C   UNL     1       2.100   3.254  17.867  0.00  0.00    +0.000 A 
ATOM      3  N   UNL     1       3.099   3.308  16.959  0.00  0.00    +0.000 NA
ATOM      4  C   UNL     1       3.996   4.292  17.126  0.00  0.00    +0.000 A 
ATOM      5  N   UNL     1       3.978   5.171  18.139  0.00  0.00    +0.000 NA
ATOM      6  C   UNL     1       2.991   5.038  19.049  0.00  0.00    +0.000 A 
ENDROOT
BRANCH   4   7
ATOM      7  C   UNL     1       5.100   4.425  16.159  0.00  0.00    +0.000 A 
ATOM      8  C   UNL     1       6.316   5.034  16.505  0.00  0.00    +0.000 A 
ATOM      9  C   UNL     1       7.346   5.171  15.570  0.00  0.00    +0.000 A 
ATOM     10  C   UNL     1       7.182   4.691  14.271  0.00  0.00    +0.000 A 
ATOM     11  C   UNL     1       5.986   4.075  13.888  0.00  0.00    +0.000 A 
ATOM     12  C   UNL     1       4.958   3.950  14.838  0.00  0.00    +0.000 A 
BRANCH  11  13
ATOM     13  C   UNL     1       5.782   3.544  12.491  0.00  0.00    +0.000 C 
ATOM     14  F   UNL     1       4.529   3.764  12.003  0.00  0.00    +0.000 F 
ATOM     15  F   UNL     1       6.633   4.109  11.590  0.00  0.00    +0.000 F 
ATOM     16  F   UNL     1       5.983   2.200  12.405  0.00  0.00    +0.000 F 
ENDBRANCH  11  13
ENDBRANCH   4   7
BRANCH   1  18
ATOM     17  C   UNL     1       1.082   3.047  20.847  0.00  0.00    +0.000 C 
ATOM     18  O   UNL     1       0.887   3.925  19.742  0.00  0.00    +0.000 OA
ENDBRANCH   1  18
BRANCH   6  19
ATOM     19  O   UNL     1       3.007   5.895  20.138  0.00  0.00    +0.000 OA
BRANCH  19  20
ATOM     20  C   UNL     1       2.157   6.976  20.154  0.00  0.00    +0.000 A 
ATOM     21  C   UNL     1       1.390   7.135  21.309  0.00  0.00    +0.000 A 
ATOM     22  C   UNL     1       0.541   8.233  21.443  0.00  0.00    +0.000 A 
ATOM     23  C   UNL     1       0.466   9.186  20.426  0.00  0.00    +0.000 A 
ATOM     24  C   UNL     1       1.250   9.056  19.270  0.00  0.00    +0.000 A 
ATOM     25  C   UNL     1       2.103   7.946  19.148  0.00  0.00    +0.000 A 
BRANCH  24  26
ATOM     26  C   UNL     1       1.204  10.087  18.170  0.00  0.00    +0.000 C 
ATOM     27  F   UNL     1       2.210   9.958  17.260  0.00  0.00    +0.000 F 
ATOM     28  F   UNL     1       0.048  10.027  17.452  0.00  0.00    +0.000 F 
ATOM     29  F   UNL     1       1.287  11.362  18.639  0.00  0.00    +0.000 F 
ENDBRANCH  24  26
ENDBRANCH  19  20
ENDBRANCH   6  19
TORSDOF 6
ENDMDL
MODEL 9
REMARK VINA RESULT:      -8.3      5.284      7.022
REMARK  Name = 
REMARK  7 active torsions:
REMARK  status: ('A' for Active; 'I' for Inactive)
REMARK    1  A    between atoms: C_1  and  O_2
REMARK    2  A    between atoms: O_2  and  C_3
REMARK    3  A    between atoms: C_6  and  C_7
REMARK    4  A    between atoms: C_11  and  C_12
REMARK    5  A    between atoms: C_18  and  O_19
REMARK    6  A    between atoms: O_19  and  C_20
REMARK    7  A    between atoms: C_24  and  C_25
REMARK                            x       y       z     vdW  Elec       q    Type
REMARK                         _______ _______ _______ _____ _____    ______ ____
ROOT
ATOM      1  C   UNL     1       1.187   8.655  20.442  0.00  0.00    +0.000 A 
ATOM      2  C   UNL     1       1.469   7.392  20.921  0.00  0.00    +0.000 A 
ATOM      3  N   UNL     1       2.120   6.436  20.224  0.00  0.00    +0.000 NA
ATOM      4  C   UNL     1       2.489   6.765  18.976  0.00  0.00    +0.000 A 
ATOM      5  N   UNL     1       2.289   7.968  18.417  0.00  0.00    +0.000 NA
ATOM      6  C   UNL     1       1.683   8.904  19.176  0.00  0.00    +0.000 A 
ENDROOT
BRANCH   4   7
ATOM      7  C   UNL     1       3.184   5.762  18.149  0.00  0.00    +0.000 A 
ATOM      8  C   UNL     1       2.591   4.532  17.824  0.00  0.00    +0.000 A 
ATOM      9  C   UNL     1       3.271   3.584  17.055  0.00  0.00    +0.000 A 
ATOM     10  C   UNL     1       4.558   3.852  16.588  0.00  0.00    +0.000 A 
ATOM     11  C   UNL     1       5.182   5.066  16.888  0.00  0.00    +0.000 A 
ATOM     12  C   UNL     1       4.487   6.008  17.666  0.00  0.00    +0.000 A 
BRANCH  11  13
ATOM     13  C   UNL     1       6.572   5.384  16.395  0.00  0.00    +0.000 C 
ATOM     14  F   UNL     1       7.015   6.615  16.774  0.00  0.00    +0.000 F 
ATOM     15  F   UNL     1       7.502   4.499  16.851  0.00  0.00    +0.000 F 
ATOM     16  F   UNL     1       6.666   5.357  15.036  0.00  0.00    +0.000 F 
ENDBRANCH  11  13
ENDBRANCH   4   7
BRANCH   1  18
ATOM     17  C   UNL     1       0.832   9.384  22.661  0.00  0.00    +0.000 C 
ATOM     18  O   UNL     1       0.506   9.486  21.278  0.00  0.00    +0.000 OA
ENDBRANCH   1  18
BRANCH   6  19
ATOM     19  O   UNL     1       1.538  10.170  18.633  0.00  0.00    +0.000 OA
BRANCH  19  20
ATOM     20  C   UNL     1       0.275  10.694  18.480  0.00  0.00    +0.000 A 
ATOM     21  C   UNL     1       0.113  12.024  18.870  0.00  0.00    +0.000 A 
ATOM     22  C   UNL     1      -1.115  12.662  18.700  0.00  0.00    +0.000 A 
ATOM     23  C   UNL     1      -2.185  11.974  18.124  0.00  0.00    +0.000 A 
ATOM     24  C   UNL     1      -2.032  10.646  17.701  0.00  0.00    +0.000 A 
ATOM     25  C   UNL     1      -0.787  10.015  17.877  0.00  0.00    +0.000 A 
BRANCH  24  26
ATOM     26  C   UNL     1      -3.166   9.892  17.054  0.00  0.00    +0.000 C 
ATOM     27  F   UNL     1      -4.227  10.681  16.725  0.00  0.00    +0.000 F 
ATOM     28  F   UNL     1      -2.787   9.282  15.895  0.00  0.00    +0.000 F 
ATOM     29  F   UNL     1      -3.666   8.907  17.848  0.00  0.00    +0.000 F 
ENDBRANCH  24  26
ENDBRANCH  19  20
ENDBRANCH   6  19
TORSDOF 6
ENDMDL
