MODEL 1
REMARK VINA RESULT:      -5.7      0.000      0.000
REMARK  Name = 
REMARK  11 active torsions:
REMARK  status: ('A' for Active; 'I' for Inactive)
REMARK    1  A    between atoms: C_1  and  C_2
REMARK    2  A    between atoms: C_2  and  C_3
REMARK    3  A    between atoms: C_3  and  C_4
REMARK    4  A    between atoms: C_3  and  N_7
REMARK    5  A    between atoms: C_4  and  O_5
REMARK    6  A    between atoms: O_5  and  C_6
REMARK    7  A    between atoms: C_10  and  C_11
REMARK    8  A    between atoms: C_11  and  C_12
REMARK    9  A    between atoms: C_12  and  O_14
REMARK   10  A    between atoms: C_16  and  C_17
REMARK   11  A    between atoms: C_24  and  C_25
REMARK                            x       y       z     vdW  Elec       q    Type
REMARK                         _______ _______ _______ _____ _____    ______ ____
ROOT
ATOM      1  N   UNL     1      -2.127  11.939  19.273  0.00  0.00    +0.000 N 
ATOM      2  C   UNL     1      -1.989  10.915  18.339  0.00  0.00    +0.000 C 
ATOM      3  O   UNL     1      -0.905  10.524  17.897  0.00  0.00    +0.000 OA
ATOM      4  C   UNL     1      -3.208  10.118  17.909  0.00  0.00    +0.000 C 
ATOM      5  C   UNL     1      -4.502  10.906  17.846  0.00  0.00    +0.000 C 
ATOM      6  C   UNL     1      -4.726  11.716  19.118  0.00  0.00    +0.000 C 
ATOM      7  C   UNL     1      -3.465  12.565  19.479  0.00  0.00    +0.000 C 
ENDROOT
BRANCH   6   8
ATOM      8  C   UNL     1      -5.931  12.645  18.928  0.00  0.00    +0.000 A 
ATOM      9  C   UNL     1      -6.828  12.890  19.975  0.00  0.00    +0.000 A 
ATOM     10  C   UNL     1      -7.797  13.891  19.855  0.00  0.00    +0.000 A 
ATOM     11  C   UNL     1      -7.876  14.663  18.694  0.00  0.00    +0.000 A 
ATOM     12  C   UNL     1      -7.027  14.391  17.627  0.00  0.00    +0.000 A 
ATOM     13 CL   UNL     1      -7.073  15.364  16.211  0.00  0.00    +0.000 Cl
ATOM     14  C   UNL     1      -6.087  13.371  17.732  0.00  0.00    +0.000 A 
ENDBRANCH   6   8
BRANCH   7  15
ATOM     15  C   UNL     1      -3.631  13.210  20.864  0.00  0.00    +0.000 A 
ATOM     16  C   UNL     1      -3.719  14.601  21.035  0.00  0.00    +0.000 A 
ATOM     17  C   UNL     1      -3.811  15.156  22.317  0.00  0.00    +0.000 A 
ATOM     18  C   UNL     1      -3.842  14.327  23.436  0.00  0.00    +0.000 A 
ATOM     19 CL   UNL     1      -3.975  15.011  25.009  0.00  0.00    +0.000 Cl
ATOM     20  C   UNL     1      -3.761  12.948  23.290  0.00  0.00    +0.000 A 
ATOM     21  C   UNL     1      -3.640  12.396  22.014  0.00  0.00    +0.000 A 
ENDBRANCH   7  15
BRANCH   1  22
ATOM     22  C   UNL     1      -0.926  12.845  19.524  0.00  0.00    +0.000 C 
BRANCH  22  24
ATOM     23  C   UNL     1      -0.077  11.542  21.616  0.00  0.00    +0.000 C 
ATOM     24  C   UNL     1       0.262  12.180  20.275  0.00  0.00    +0.000 C 
ENDBRANCH  22  24
BRANCH  22  25
ATOM     25  C   UNL     1      -0.429  13.538  18.223  0.00  0.00    +0.000 C 
BRANCH  25  26
ATOM     26  O   UNL     1       0.458  14.612  18.529  0.00  0.00    +0.000 OA
ATOM     27  C   UNL     1      -0.244  15.836  18.720  0.00  0.00    +0.000 C 
ENDBRANCH  25  26
ENDBRANCH  22  25
ENDBRANCH   1  22
BRANCH   4  28
ATOM     28  C   UNL     1      -2.900   9.453  16.551  0.00  0.00    +0.000 C 
BRANCH  28  29
ATOM     29  C   UNL     1      -3.188  10.357  15.365  0.00  0.00    +0.000 C 
ATOM     30  O   UNL     1      -4.024  10.089  14.512  0.00  0.00    +0.000 OA
BRANCH  29  31
ATOM     31  O   UNL     1      -2.474  11.498  15.342  0.00  0.00    +0.000 OA
ATOM     32  H   UNL     1      -2.481  11.984  16.199  0.00  0.00    +0.000 HD
ENDBRANCH  29  31
ENDBRANCH  28  29
ENDBRANCH   4  28
TORSDOF 9
ENDMDL
MODEL 2
REMARK VINA RESULT:      -5.6      4.099      6.785
REMARK  Name = 
REMARK  11 active torsions:
REMARK  status: ('A' for Active; 'I' for Inactive)
REMARK    1  A    between atoms: C_1  and  C_2
REMARK    2  A    between atoms: C_2  and  C_3
REMARK    3  A    between atoms: C_3  and  C_4
REMARK    4  A    between atoms: C_3  and  N_7
REMARK    5  A    between atoms: C_4  and  O_5
REMARK    6  A    between atoms: O_5  and  C_6
REMARK    7  A    between atoms: C_10  and  C_11
REMARK    8  A    between atoms: C_11  and  C_12
REMARK    9  A    between atoms: C_12  and  O_14
REMARK   10  A    between atoms: C_16  and  C_17
REMARK   11  A    between atoms: C_24  and  C_25
REMARK                            x       y       z     vdW  Elec       q    Type
REMARK                         _______ _______ _______ _____ _____    ______ ____
ROOT
ATOM      1  N   UNL     1      -1.339  12.641  19.490  0.00  0.00    +0.000 N 
ATOM      2  C   UNL     1      -2.500  12.174  18.877  0.00  0.00    +0.000 C 
ATOM      3  O   UNL     1      -3.615  12.682  19.029  0.00  0.00    +0.000 OA
ATOM      4  C   UNL     1      -2.413  11.057  17.852  0.00  0.00    +0.000 C 
ATOM      5  C   UNL     1      -1.339  10.021  18.119  0.00  0.00    +0.000 C 
ATOM      6  C   UNL     1       0.006  10.674  18.418  0.00  0.00    +0.000 C 
ATOM      7  C   UNL     1      -0.129  11.770  19.523  0.00  0.00    +0.000 C 
ENDROOT
BRANCH   6   8
ATOM      8  C   UNL     1       1.004   9.604  18.877  0.00  0.00    +0.000 A 
ATOM      9  C   UNL     1       0.922   9.041  20.157  0.00  0.00    +0.000 A 
ATOM     10  C   UNL     1       1.702   7.929  20.490  0.00  0.00    +0.000 A 
ATOM     11  C   UNL     1       2.564   7.362  19.548  0.00  0.00    +0.000 A 
ATOM     12  C   UNL     1       2.694   7.947  18.294  0.00  0.00    +0.000 A 
ATOM     13 CL   UNL     1       3.708   7.234  17.105  0.00  0.00    +0.000 Cl
ATOM     14  C   UNL     1       1.945   9.076  17.975  0.00  0.00    +0.000 A 
ENDBRANCH   6   8
BRANCH   7  15
ATOM     15  C   UNL     1       1.185  12.555  19.664  0.00  0.00    +0.000 A 
ATOM     16  C   UNL     1       1.763  12.824  20.914  0.00  0.00    +0.000 A 
ATOM     17  C   UNL     1       2.931  13.593  21.007  0.00  0.00    +0.000 A 
ATOM     18  C   UNL     1       3.542  14.077  19.854  0.00  0.00    +0.000 A 
ATOM     19 CL   UNL     1       4.987  15.004  19.969  0.00  0.00    +0.000 Cl
ATOM     20  C   UNL     1       2.989  13.818  18.606  0.00  0.00    +0.000 A 
ATOM     21  C   UNL     1       1.810  13.077  18.514  0.00  0.00    +0.000 A 
ENDBRANCH   7  15
BRANCH   1  22
ATOM     22  C   UNL     1      -1.488  13.614  20.656  0.00  0.00    +0.000 C 
BRANCH  22  24
ATOM     23  C   UNL     1      -0.268  15.910  20.478  0.00  0.00    +0.000 C 
ATOM     24  C   UNL     1      -1.550  15.116  20.263  0.00  0.00    +0.000 C 
ENDBRANCH  22  24
BRANCH  22  25
ATOM     25  C   UNL     1      -2.681  13.244  21.583  0.00  0.00    +0.000 C 
BRANCH  25  26
ATOM     26  O   UNL     1      -2.232  12.495  22.711  0.00  0.00    +0.000 OA
ATOM     27  C   UNL     1      -3.281  12.278  23.649  0.00  0.00    +0.000 C 
ENDBRANCH  25  26
ENDBRANCH  22  25
ENDBRANCH   1  22
BRANCH   4  28
ATOM     28  C   UNL     1      -3.802  10.394  17.736  0.00  0.00    +0.000 C 
BRANCH  28  29
ATOM     29  C   UNL     1      -4.590  10.865  16.526  0.00  0.00    +0.000 C 
ATOM     30  O   UNL     1      -4.266  10.598  15.377  0.00  0.00    +0.000 OA
BRANCH  29  31
ATOM     31  O   UNL     1      -5.697  11.573  16.818  0.00  0.00    +0.000 OA
ATOM     32  H   UNL     1      -5.550  12.271  17.499  0.00  0.00    +0.000 HD
ENDBRANCH  29  31
ENDBRANCH  28  29
ENDBRANCH   4  28
TORSDOF 9
ENDMDL
MODEL 3
REMARK VINA RESULT:      -5.6      3.304      5.864
REMARK  Name = 
REMARK  11 active torsions:
REMARK  status: ('A' for Active; 'I' for Inactive)
REMARK    1  A    between atoms: C_1  and  C_2
REMARK    2  A    between atoms: C_2  and  C_3
REMARK    3  A    between atoms: C_3  and  C_4
REMARK    4  A    between atoms: C_3  and  N_7
REMARK    5  A    between atoms: C_4  and  O_5
REMARK    6  A    between atoms: O_5  and  C_6
REMARK    7  A    between atoms: C_10  and  C_11
REMARK    8  A    between atoms: C_11  and  C_12
REMARK    9  A    between atoms: C_12  and  O_14
REMARK   10  A    between atoms: C_16  and  C_17
REMARK   11  A    between atoms: C_24  and  C_25
REMARK                            x       y       z     vdW  Elec       q    Type
REMARK                         _______ _______ _______ _____ _____    ______ ____
ROOT
ATOM      1  N   UNL     1      -3.681  12.002  18.806  0.00  0.00    +0.000 N 
ATOM      2  C   UNL     1      -4.196  11.432  17.643  0.00  0.00    +0.000 C 
ATOM      3  O   UNL     1      -5.382  11.498  17.307  0.00  0.00    +0.000 OA
ATOM      4  C   UNL     1      -3.255  10.795  16.635  0.00  0.00    +0.000 C 
ATOM      5  C   UNL     1      -2.044  10.107  17.233  0.00  0.00    +0.000 C 
ATOM      6  C   UNL     1      -1.334  11.001  18.243  0.00  0.00    +0.000 C 
ATOM      7  C   UNL     1      -2.336  11.579  19.292  0.00  0.00    +0.000 C 
ENDROOT
BRANCH   6   8
ATOM      8  C   UNL     1      -0.245  10.197  18.964  0.00  0.00    +0.000 A 
ATOM      9  C   UNL     1      -0.399   9.809  20.301  0.00  0.00    +0.000 A 
ATOM     10  C   UNL     1       0.498   8.907  20.882  0.00  0.00    +0.000 A 
ATOM     11  C   UNL     1       1.552   8.376  20.133  0.00  0.00    +0.000 A 
ATOM     12  C   UNL     1       1.746   8.798  18.823  0.00  0.00    +0.000 A 
ATOM     13 CL   UNL     1       3.003   8.118  17.870  0.00  0.00    +0.000 Cl
ATOM     14  C   UNL     1       0.875   9.723  18.256  0.00  0.00    +0.000 A 
ENDBRANCH   6   8
BRANCH   7  15
ATOM     15  C   UNL     1      -1.646  12.634  20.171  0.00  0.00    +0.000 A 
ATOM     16  C   UNL     1      -0.919  13.703  19.623  0.00  0.00    +0.000 A 
ATOM     17  C   UNL     1      -0.255  14.613  20.455  0.00  0.00    +0.000 A 
ATOM     18  C   UNL     1      -0.330  14.477  21.839  0.00  0.00    +0.000 A 
ATOM     19 CL   UNL     1       0.470  15.606  22.860  0.00  0.00    +0.000 Cl
ATOM     20  C   UNL     1      -1.047  13.429  22.402  0.00  0.00    +0.000 A 
ATOM     21  C   UNL     1      -1.686  12.506  21.573  0.00  0.00    +0.000 A 
ENDBRANCH   7  15
BRANCH   1  22
ATOM     22  C   UNL     1      -4.667  12.445  19.882  0.00  0.00    +0.000 C 
BRANCH  22  24
ATOM     23  C   UNL     1      -4.563  14.866  20.840  0.00  0.00    +0.000 C 
ATOM     24  C   UNL     1      -5.132  13.925  19.787  0.00  0.00    +0.000 C 
ENDBRANCH  22  24
BRANCH  22  25
ATOM     25  C   UNL     1      -5.893  11.494  19.985  0.00  0.00    +0.000 C 
BRANCH  25  26
ATOM     26  O   UNL     1      -7.011  12.169  20.557  0.00  0.00    +0.000 OA
ATOM     27  C   UNL     1      -7.917  11.259  21.174  0.00  0.00    +0.000 C 
ENDBRANCH  25  26
ENDBRANCH  22  25
ENDBRANCH   1  22
BRANCH   4  28
ATOM     28  C   UNL     1      -4.069   9.818  15.761  0.00  0.00    +0.000 C 
BRANCH  28  29
ATOM     29  C   UNL     1      -3.746   9.930  14.281  0.00  0.00    +0.000 C 
ATOM     30  O   UNL     1      -2.615  10.134  13.861  0.00  0.00    +0.000 OA
BRANCH  29  31
ATOM     31  O   UNL     1      -4.799   9.753  13.461  0.00  0.00    +0.000 OA
ATOM     32  H   UNL     1      -4.635   9.095  12.746  0.00  0.00    +0.000 HD
ENDBRANCH  29  31
ENDBRANCH  28  29
ENDBRANCH   4  28
TORSDOF 9
ENDMDL
MODEL 4
REMARK VINA RESULT:      -5.6      5.115      7.384
REMARK  Name = 
REMARK  11 active torsions:
REMARK  status: ('A' for Active; 'I' for Inactive)
REMARK    1  A    between atoms: C_1  and  C_2
REMARK    2  A    between atoms: C_2  and  C_3
REMARK    3  A    between atoms: C_3  and  C_4
REMARK    4  A    between atoms: C_3  and  N_7
REMARK    5  A    between atoms: C_4  and  O_5
REMARK    6  A    between atoms: O_5  and  C_6
REMARK    7  A    between atoms: C_10  and  C_11
REMARK    8  A    between atoms: C_11  and  C_12
REMARK    9  A    between atoms: C_12  and  O_14
REMARK   10  A    between atoms: C_16  and  C_17
REMARK   11  A    between atoms: C_24  and  C_25
REMARK                            x       y       z     vdW  Elec       q    Type
REMARK                         _______ _______ _______ _____ _____    ______ ____
ROOT
ATOM      1  N   UNL     1      -1.807  14.904  22.807  0.00  0.00    +0.000 N 
ATOM      2  C   UNL     1      -3.036  14.643  23.409  0.00  0.00    +0.000 C 
ATOM      3  O   UNL     1      -3.653  15.458  24.101  0.00  0.00    +0.000 OA
ATOM      4  C   UNL     1      -3.757  13.339  23.117  0.00  0.00    +0.000 C 
ATOM      5  C   UNL     1      -2.855  12.140  22.902  0.00  0.00    +0.000 C 
ATOM      6  C   UNL     1      -1.739  12.450  21.910  0.00  0.00    +0.000 C 
ATOM      7  C   UNL     1      -0.990  13.766  22.292  0.00  0.00    +0.000 C 
ENDROOT
BRANCH   6   8
ATOM      8  C   UNL     1      -0.742  11.284  21.880  0.00  0.00    +0.000 A 
ATOM      9  C   UNL     1      -0.526  10.489  23.012  0.00  0.00    +0.000 A 
ATOM     10  C   UNL     1       0.224   9.312  22.914  0.00  0.00    +0.000 A 
ATOM     11  C   UNL     1       0.757   8.913  21.686  0.00  0.00    +0.000 A 
ATOM     12  C   UNL     1       0.594   9.724  20.569  0.00  0.00    +0.000 A 
ATOM     13 CL   UNL     1       1.196   9.225  19.039  0.00  0.00    +0.000 Cl
ATOM     14  C   UNL     1      -0.121  10.913  20.674  0.00  0.00    +0.000 A 
ENDBRANCH   6   8
BRANCH   7  15
ATOM     15  C   UNL     1      -0.013  14.171  21.178  0.00  0.00    +0.000 A 
ATOM     16  C   UNL     1      -0.446  14.466  19.875  0.00  0.00    +0.000 A 
ATOM     17  C   UNL     1       0.479  14.775  18.870  0.00  0.00    +0.000 A 
ATOM     18  C   UNL     1       1.840  14.817  19.163  0.00  0.00    +0.000 A 
ATOM     19 CL   UNL     1       2.974  15.216  17.932  0.00  0.00    +0.000 Cl
ATOM     20  C   UNL     1       2.290  14.532  20.446  0.00  0.00    +0.000 A 
ATOM     21  C   UNL     1       1.371  14.197  21.441  0.00  0.00    +0.000 A 
ENDBRANCH   7  15
BRANCH   1  22
ATOM     22  C   UNL     1      -1.022  16.123  23.280  0.00  0.00    +0.000 C 
BRANCH  22  24
ATOM     23  C   UNL     1      -0.203  17.796  21.458  0.00  0.00    +0.000 C 
ATOM     24  C   UNL     1      -1.275  17.428  22.475  0.00  0.00    +0.000 C 
ENDBRANCH  22  24
BRANCH  22  25
ATOM     25  C   UNL     1      -1.196  16.380  24.804  0.00  0.00    +0.000 C 
BRANCH  25  26
ATOM     26  O   UNL     1      -0.173  15.723  25.549  0.00  0.00    +0.000 OA
ATOM     27  C   UNL     1      -0.102  16.207  26.886  0.00  0.00    +0.000 C 
ENDBRANCH  25  26
ENDBRANCH  22  25
ENDBRANCH   1  22
BRANCH   4  28
ATOM     28  C   UNL     1      -4.764  13.075  24.256  0.00  0.00    +0.000 C 
BRANCH  28  29
ATOM     29  C   UNL     1      -6.190  12.902  23.765  0.00  0.00    +0.000 C 
ATOM     30  O   UNL     1      -6.477  12.246  22.773  0.00  0.00    +0.000 OA
BRANCH  29  31
ATOM     31  O   UNL     1      -7.123  13.502  24.529  0.00  0.00    +0.000 OA
ATOM     32  H   UNL     1      -7.930  13.768  24.028  0.00  0.00    +0.000 HD
ENDBRANCH  29  31
ENDBRANCH  28  29
ENDBRANCH   4  28
TORSDOF 9
ENDMDL
MODEL 5
REMARK VINA RESULT:      -5.5      5.123      7.405
REMARK  Name = 
REMARK  11 active torsions:
REMARK  status: ('A' for Active; 'I' for Inactive)
REMARK    1  A    between atoms: C_1  and  C_2
REMARK    2  A    between atoms: C_2  and  C_3
REMARK    3  A    between atoms: C_3  and  C_4
REMARK    4  A    between atoms: C_3  and  N_7
REMARK    5  A    between atoms: C_4  and  O_5
REMARK    6  A    between atoms: O_5  and  C_6
REMARK    7  A    between atoms: C_10  and  C_11
REMARK    8  A    between atoms: C_11  and  C_12
REMARK    9  A    between atoms: C_12  and  O_14
REMARK   10  A    between atoms: C_16  and  C_17
REMARK   11  A    between atoms: C_24  and  C_25
REMARK                            x       y       z     vdW  Elec       q    Type
REMARK                         _______ _______ _______ _____ _____    ______ ____
ROOT
ATOM      1  N   UNL     1      -2.239  14.876  23.282  0.00  0.00    +0.000 N 
ATOM      2  C   UNL     1      -3.468  14.513  23.828  0.00  0.00    +0.000 C 
ATOM      3  O   UNL     1      -4.126  15.229  24.588  0.00  0.00    +0.000 OA
ATOM      4  C   UNL     1      -4.137  13.224  23.386  0.00  0.00    +0.000 C 
ATOM      5  C   UNL     1      -3.189  12.084  23.066  0.00  0.00    +0.000 C 
ATOM      6  C   UNL     1      -2.069  12.534  22.136  0.00  0.00    +0.000 C 
ATOM      7  C   UNL     1      -1.373  13.827  22.669  0.00  0.00    +0.000 C 
ENDROOT
BRANCH   6   8
ATOM      8  C   UNL     1      -1.031  11.412  22.004  0.00  0.00    +0.000 A 
ATOM      9  C   UNL     1      -0.740  10.567  23.083  0.00  0.00    +0.000 A 
ATOM     10  C   UNL     1       0.049   9.428  22.893  0.00  0.00    +0.000 A 
ATOM     11  C   UNL     1       0.548   9.116  21.626  0.00  0.00    +0.000 A 
ATOM     12  C   UNL     1       0.311   9.977  20.562  0.00  0.00    +0.000 A 
ATOM     13 CL   UNL     1       0.870   9.584  18.985  0.00  0.00    +0.000 Cl
ATOM     14  C   UNL     1      -0.443  11.131  20.758  0.00  0.00    +0.000 A 
ENDBRANCH   6   8
BRANCH   7  15
ATOM     15  C   UNL     1      -0.392  14.380  21.624  0.00  0.00    +0.000 A 
ATOM     16  C   UNL     1       0.985  14.490  21.876  0.00  0.00    +0.000 A 
ATOM     17  C   UNL     1       1.841  15.052  20.920  0.00  0.00    +0.000 A 
ATOM     18  C   UNL     1       1.334  15.485  19.698  0.00  0.00    +0.000 A 
ATOM     19 CL   UNL     1       2.390  16.158  18.518  0.00  0.00    +0.000 Cl
ATOM     20  C   UNL     1      -0.024  15.382  19.426  0.00  0.00    +0.000 A 
ATOM     21  C   UNL     1      -0.882  14.848  20.389  0.00  0.00    +0.000 A 
ENDBRANCH   7  15
BRANCH   1  22
ATOM     22  C   UNL     1      -1.506  16.064  23.897  0.00  0.00    +0.000 C 
BRANCH  22  24
ATOM     23  C   UNL     1      -2.592  17.687  22.170  0.00  0.00    +0.000 C 
ATOM     24  C   UNL     1      -2.135  17.455  23.605  0.00  0.00    +0.000 C 
ENDBRANCH  22  24
BRANCH  22  25
ATOM     25  C   UNL     1      -1.268  15.884  25.423  0.00  0.00    +0.000 C 
BRANCH  25  26
ATOM     26  O   UNL     1      -1.611  17.072  26.133  0.00  0.00    +0.000 OA
ATOM     27  C   UNL     1      -0.589  17.449  27.051  0.00  0.00    +0.000 C 
ENDBRANCH  25  26
ENDBRANCH  22  25
ENDBRANCH   1  22
BRANCH   4  28
ATOM     28  C   UNL     1      -5.154  12.807  24.470  0.00  0.00    +0.000 C 
BRANCH  28  29
ATOM     29  C   UNL     1      -6.574  12.693  23.945  0.00  0.00    +0.000 C 
ATOM     30  O   UNL     1      -7.545  13.116  24.557  0.00  0.00    +0.000 OA
BRANCH  29  31
ATOM     31  O   UNL     1      -6.680  12.117  22.732  0.00  0.00    +0.000 OA
ATOM     32  H   UNL     1      -5.813  11.848  22.347  0.00  0.00    +0.000 HD
ENDBRANCH  29  31
ENDBRANCH  28  29
ENDBRANCH   4  28
TORSDOF 9
ENDMDL
MODEL 6
REMARK VINA RESULT:      -5.5      5.120      7.422
REMARK  Name = 
REMARK  11 active torsions:
REMARK  status: ('A' for Active; 'I' for Inactive)
REMARK    1  A    between atoms: C_1  and  C_2
REMARK    2  A    between atoms: C_2  and  C_3
REMARK    3  A    between atoms: C_3  and  C_4
REMARK    4  A    between atoms: C_3  and  N_7
REMARK    5  A    between atoms: C_4  and  O_5
REMARK    6  A    between atoms: O_5  and  C_6
REMARK    7  A    between atoms: C_10  and  C_11
REMARK    8  A    between atoms: C_11  and  C_12
REMARK    9  A    between atoms: C_12  and  O_14
REMARK   10  A    between atoms: C_16  and  C_17
REMARK   11  A    between atoms: C_24  and  C_25
REMARK                            x       y       z     vdW  Elec       q    Type
REMARK                         _______ _______ _______ _____ _____    ______ ____
ROOT
ATOM      1  N   UNL     1      -1.410  15.097  21.931  0.00  0.00    +0.000 N 
ATOM      2  C   UNL     1      -2.754  15.013  22.288  0.00  0.00    +0.000 C 
ATOM      3  O   UNL     1      -3.406  15.952  22.754  0.00  0.00    +0.000 OA
ATOM      4  C   UNL     1      -3.537  13.749  21.982  0.00  0.00    +0.000 C 
ATOM      5  C   UNL     1      -2.742  12.461  22.077  0.00  0.00    +0.000 C 
ATOM      6  C   UNL     1      -1.427  12.558  21.312  0.00  0.00    +0.000 C 
ATOM      7  C   UNL     1      -0.633  13.843  21.711  0.00  0.00    +0.000 C 
ENDROOT
BRANCH   6   8
ATOM      8  C   UNL     1      -0.573  11.318  21.603  0.00  0.00    +0.000 A 
ATOM      9  C   UNL     1      -0.626  10.679  22.848  0.00  0.00    +0.000 A 
ATOM     10  C   UNL     1      -0.005   9.440  23.033  0.00  0.00    +0.000 A 
ATOM     11  C   UNL     1       0.668   8.822  21.976  0.00  0.00    +0.000 A 
ATOM     12  C   UNL     1       0.774   9.473  20.752  0.00  0.00    +0.000 A 
ATOM     13 CL   UNL     1       1.551   8.707  19.425  0.00  0.00    +0.000 Cl
ATOM     14  C   UNL     1       0.187  10.723  20.579  0.00  0.00    +0.000 A 
ENDBRANCH   6   8
BRANCH   7  15
ATOM     15  C   UNL     1       0.582  14.032  20.789  0.00  0.00    +0.000 A 
ATOM     16  C   UNL     1       0.449  14.184  19.400  0.00  0.00    +0.000 A 
ATOM     17  C   UNL     1       1.582  14.296  18.584  0.00  0.00    +0.000 A 
ATOM     18  C   UNL     1       2.854  14.280  19.151  0.00  0.00    +0.000 A 
ATOM     19 CL   UNL     1       4.244  14.437  18.149  0.00  0.00    +0.000 Cl
ATOM     20  C   UNL     1       3.009  14.135  20.523  0.00  0.00    +0.000 A 
ATOM     21  C   UNL     1       1.881  13.995  21.333  0.00  0.00    +0.000 A 
ENDBRANCH   7  15
BRANCH   1  22
ATOM     22  C   UNL     1      -0.609  16.294  22.435  0.00  0.00    +0.000 C 
BRANCH  22  24
ATOM     23  C   UNL     1       0.505  17.768  20.598  0.00  0.00    +0.000 C 
ATOM     24  C   UNL     1      -0.674  17.561  21.539  0.00  0.00    +0.000 C 
ENDBRANCH  22  24
BRANCH  22  25
ATOM     25  C   UNL     1      -0.950  16.651  23.911  0.00  0.00    +0.000 C 
BRANCH  25  26
ATOM     26  O   UNL     1      -0.388  15.694  24.806  0.00  0.00    +0.000 OA
ATOM     27  C   UNL     1      -0.989  15.765  26.096  0.00  0.00    +0.000 C 
ENDBRANCH  25  26
ENDBRANCH  22  25
ENDBRANCH   1  22
BRANCH   4  28
ATOM     28  C   UNL     1      -4.771  13.705  22.908  0.00  0.00    +0.000 C 
BRANCH  28  29
ATOM     29  C   UNL     1      -4.480  13.080  24.261  0.00  0.00    +0.000 C 
ATOM     30  O   UNL     1      -4.788  11.929  24.542  0.00  0.00    +0.000 OA
BRANCH  29  31
ATOM     31  O   UNL     1      -3.824  13.882  25.121  0.00  0.00    +0.000 OA
ATOM     32  H   UNL     1      -3.510  13.416  25.932  0.00  0.00    +0.000 HD
ENDBRANCH  29  31
ENDBRANCH  28  29
ENDBRANCH   4  28
TORSDOF 9
ENDMDL
MODEL 7
REMARK VINA RESULT:      -5.5     10.134     12.964
REMARK  Name = 
REMARK  11 active torsions:
REMARK  status: ('A' for Active; 'I' for Inactive)
REMARK    1  A    between atoms: C_1  and  C_2
REMARK    2  A    between atoms: C_2  and  C_3
REMARK    3  A    between atoms: C_3  and  C_4
REMARK    4  A    between atoms: C_3  and  N_7
REMARK    5  A    between atoms: C_4  and  O_5
REMARK    6  A    between atoms: O_5  and  C_6
REMARK    7  A    between atoms: C_10  and  C_11
REMARK    8  A    between atoms: C_11  and  C_12
REMARK    9  A    between atoms: C_12  and  O_14
REMARK   10  A    between atoms: C_16  and  C_17
REMARK   11  A    between atoms: C_24  and  C_25
REMARK                            x       y       z     vdW  Elec       q    Type
REMARK                         _______ _______ _______ _____ _____    ______ ____
ROOT
ATOM      1  N   UNL     1       9.092  12.662  20.998  0.00  0.00    +0.000 N 
ATOM      2  C   UNL     1       8.561  11.956  22.075  0.00  0.00    +0.000 C 
ATOM      3  O   UNL     1       8.885  10.802  22.372  0.00  0.00    +0.000 OA
ATOM      4  C   UNL     1       7.621  12.651  23.043  0.00  0.00    +0.000 C 
ATOM      5  C   UNL     1       6.714  13.695  22.421  0.00  0.00    +0.000 C 
ATOM      6  C   UNL     1       7.496  14.660  21.538  0.00  0.00    +0.000 C 
ATOM      7  C   UNL     1       8.398  13.893  20.519  0.00  0.00    +0.000 C 
ENDROOT
BRANCH   6   8
ATOM      8  C   UNL     1       6.518  15.564  20.776  0.00  0.00    +0.000 A 
ATOM      9  C   UNL     1       6.569  16.957  20.909  0.00  0.00    +0.000 A 
ATOM     10  C   UNL     1       5.816  17.775  20.059  0.00  0.00    +0.000 A 
ATOM     11  C   UNL     1       5.014  17.212  19.064  0.00  0.00    +0.000 A 
ATOM     12  C   UNL     1       4.914  15.830  18.960  0.00  0.00    +0.000 A 
ATOM     13 CL   UNL     1       3.975  15.118  17.709  0.00  0.00    +0.000 Cl
ATOM     14  C   UNL     1       5.635  15.015  19.829  0.00  0.00    +0.000 A 
ENDBRANCH   6   8
BRANCH   7  15
ATOM     15  C   UNL     1       9.327  14.870  19.782  0.00  0.00    +0.000 A 
ATOM     16  C   UNL     1      10.359  15.559  20.439  0.00  0.00    +0.000 A 
ATOM     17  C   UNL     1      11.149  16.486  19.747  0.00  0.00    +0.000 A 
ATOM     18  C   UNL     1      10.932  16.713  18.390  0.00  0.00    +0.000 A 
ATOM     19 CL   UNL     1      11.917  17.837  17.538  0.00  0.00    +0.000 Cl
ATOM     20  C   UNL     1       9.920  16.039  17.720  0.00  0.00    +0.000 A 
ATOM     21  C   UNL     1       9.114  15.137  18.415  0.00  0.00    +0.000 A 
ENDBRANCH   7  15
BRANCH   1  22
ATOM     22  C   UNL     1       9.863  11.881  19.939  0.00  0.00    +0.000 C 
BRANCH  22  24
ATOM     23  C   UNL     1      12.270  11.715  18.955  0.00  0.00    +0.000 C 
ATOM     24  C   UNL     1      11.389  11.742  20.197  0.00  0.00    +0.000 C 
ENDBRANCH  22  24
BRANCH  22  25
ATOM     25  C   UNL     1       9.229  10.489  19.657  0.00  0.00    +0.000 C 
BRANCH  25  26
ATOM     26  O   UNL     1       9.017  10.303  18.259  0.00  0.00    +0.000 OA
ATOM     27  C   UNL     1       8.238   9.140  17.995  0.00  0.00    +0.000 C 
ENDBRANCH  25  26
ENDBRANCH  22  25
ENDBRANCH   1  22
BRANCH   4  28
ATOM     28  C   UNL     1       6.797  11.574  23.780  0.00  0.00    +0.000 C 
BRANCH  28  29
ATOM     29  C   UNL     1       6.550  11.906  25.241  0.00  0.00    +0.000 C 
ATOM     30  O   UNL     1       7.442  11.930  26.078  0.00  0.00    +0.000 OA
BRANCH  29  31
ATOM     31  O   UNL     1       5.271  12.207  25.539  0.00  0.00    +0.000 OA
ATOM     32  H   UNL     1       4.978  11.854  26.412  0.00  0.00    +0.000 HD
ENDBRANCH  29  31
ENDBRANCH  28  29
ENDBRANCH   4  28
TORSDOF 9
ENDMDL
MODEL 8
REMARK VINA RESULT:      -5.5      3.962      6.445
REMARK  Name = 
REMARK  11 active torsions:
REMARK  status: ('A' for Active; 'I' for Inactive)
REMARK    1  A    between atoms: C_1  and  C_2
REMARK    2  A    between atoms: C_2  and  C_3
REMARK    3  A    between atoms: C_3  and  C_4
REMARK    4  A    between atoms: C_3  and  N_7
REMARK    5  A    between atoms: C_4  and  O_5
REMARK    6  A    between atoms: O_5  and  C_6
REMARK    7  A    between atoms: C_10  and  C_11
REMARK    8  A    between atoms: C_11  and  C_12
REMARK    9  A    between atoms: C_12  and  O_14
REMARK   10  A    between atoms: C_16  and  C_17
REMARK   11  A    between atoms: C_24  and  C_25
REMARK                            x       y       z     vdW  Elec       q    Type
REMARK                         _______ _______ _______ _____ _____    ______ ____
ROOT
ATOM      1  N   UNL     1      -1.608  12.913  19.747  0.00  0.00    +0.000 N 
ATOM      2  C   UNL     1      -2.827  12.428  19.278  0.00  0.00    +0.000 C 
ATOM      3  O   UNL     1      -3.917  12.961  19.508  0.00  0.00    +0.000 OA
ATOM      4  C   UNL     1      -2.852  11.253  18.318  0.00  0.00    +0.000 C 
ATOM      5  C   UNL     1      -1.766  10.218  18.540  0.00  0.00    +0.000 C 
ATOM      6  C   UNL     1      -0.393  10.867  18.667  0.00  0.00    +0.000 C 
ATOM      7  C   UNL     1      -0.408  12.027  19.713  0.00  0.00    +0.000 C 
ENDROOT
BRANCH   6   8
ATOM      8  C   UNL     1       0.636   9.811  19.090  0.00  0.00    +0.000 A 
ATOM      9  C   UNL     1       0.601   9.240  20.368  0.00  0.00    +0.000 A 
ATOM     10  C   UNL     1       1.408   8.138  20.671  0.00  0.00    +0.000 A 
ATOM     11  C   UNL     1       2.250   7.590  19.700  0.00  0.00    +0.000 A 
ATOM     12  C   UNL     1       2.333   8.184  18.446  0.00  0.00    +0.000 A 
ATOM     13 CL   UNL     1       3.322   7.494  17.222  0.00  0.00    +0.000 Cl
ATOM     14  C   UNL     1       1.557   9.303  18.156  0.00  0.00    +0.000 A 
ENDBRANCH   6   8
BRANCH   7  15
ATOM     15  C   UNL     1       0.920  12.799  19.678  0.00  0.00    +0.000 A 
ATOM     16  C   UNL     1       1.775  12.865  20.790  0.00  0.00    +0.000 A 
ATOM     17  C   UNL     1       2.950  13.626  20.740  0.00  0.00    +0.000 A 
ATOM     18  C   UNL     1       3.292  14.307  19.574  0.00  0.00    +0.000 A 
ATOM     19 CL   UNL     1       4.746  15.225  19.508  0.00  0.00    +0.000 Cl
ATOM     20  C   UNL     1       2.463  14.251  18.461  0.00  0.00    +0.000 A 
ATOM     21  C   UNL     1       1.278  13.516  18.519  0.00  0.00    +0.000 A 
ENDBRANCH   7  15
BRANCH   1  22
ATOM     22  C   UNL     1      -1.632  13.954  20.861  0.00  0.00    +0.000 C 
BRANCH  22  24
ATOM     23  C   UNL     1      -2.003  12.879  23.205  0.00  0.00    +0.000 C 
ATOM     24  C   UNL     1      -1.023  13.492  22.214  0.00  0.00    +0.000 C 
ENDBRANCH  22  24
BRANCH  22  25
ATOM     25  C   UNL     1      -1.007  15.308  20.416  0.00  0.00    +0.000 C 
BRANCH  25  26
ATOM     26  O   UNL     1      -0.109  15.801  21.408  0.00  0.00    +0.000 OA
ATOM     27  C   UNL     1       0.832  16.717  20.857  0.00  0.00    +0.000 C 
ENDBRANCH  25  26
ENDBRANCH  22  25
ENDBRANCH   1  22
BRANCH   4  28
ATOM     28  C   UNL     1      -4.251  10.606  18.378  0.00  0.00    +0.000 C 
BRANCH  28  29
ATOM     29  C   UNL     1      -5.196  11.124  17.308  0.00  0.00    +0.000 C 
ATOM     30  O   UNL     1      -6.306  11.572  17.561  0.00  0.00    +0.000 OA
BRANCH  29  31
ATOM     31  O   UNL     1      -4.703  11.084  16.055  0.00  0.00    +0.000 OA
ATOM     32  H   UNL     1      -4.932  11.877  15.517  0.00  0.00    +0.000 HD
ENDBRANCH  29  31
ENDBRANCH  28  29
ENDBRANCH   4  28
TORSDOF 9
ENDMDL
MODEL 9
REMARK VINA RESULT:      -5.4      2.646      5.587
REMARK  Name = 
REMARK  11 active torsions:
REMARK  status: ('A' for Active; 'I' for Inactive)
REMARK    1  A    between atoms: C_1  and  C_2
REMARK    2  A    between atoms: C_2  and  C_3
REMARK    3  A    between atoms: C_3  and  C_4
REMARK    4  A    between atoms: C_3  and  N_7
REMARK    5  A    between atoms: C_4  and  O_5
REMARK    6  A    between atoms: O_5  and  C_6
REMARK    7  A    between atoms: C_10  and  C_11
REMARK    8  A    between atoms: C_11  and  C_12
REMARK    9  A    between atoms: C_12  and  O_14
REMARK   10  A    between atoms: C_16  and  C_17
REMARK   11  A    between atoms: C_24  and  C_25
REMARK                            x       y       z     vdW  Elec       q    Type
REMARK                         _______ _______ _______ _____ _____    ______ ____
ROOT
ATOM      1  N   UNL     1      -5.173  12.185  19.644  0.00  0.00    +0.000 N 
ATOM      2  C   UNL     1      -5.392  11.779  18.330  0.00  0.00    +0.000 C 
ATOM      3  O   UNL     1      -6.500  11.480  17.874  0.00  0.00    +0.000 OA
ATOM      4  C   UNL     1      -4.251  11.817  17.329  0.00  0.00    +0.000 C 
ATOM      5  C   UNL     1      -2.883  11.504  17.902  0.00  0.00    +0.000 C 
ATOM      6  C   UNL     1      -2.607  12.311  19.165  0.00  0.00    +0.000 C 
ATOM      7  C   UNL     1      -3.783  12.187  20.186  0.00  0.00    +0.000 C 
ENDROOT
BRANCH   6   8
ATOM      8  C   UNL     1      -1.310  11.816  19.817  0.00  0.00    +0.000 A 
ATOM      9  C   UNL     1      -0.297  12.712  20.181  0.00  0.00    +0.000 A 
ATOM     10  C   UNL     1       0.784  12.278  20.956  0.00  0.00    +0.000 A 
ATOM     11  C   UNL     1       0.861  10.949  21.381  0.00  0.00    +0.000 A 
ATOM     12  C   UNL     1      -0.111  10.040  20.978  0.00  0.00    +0.000 A 
ATOM     13 CL   UNL     1      -0.063   8.415  21.534  0.00  0.00    +0.000 Cl
ATOM     14  C   UNL     1      -1.167  10.464  20.177  0.00  0.00    +0.000 A 
ENDBRANCH   6   8
BRANCH   7  15
ATOM     15  C   UNL     1      -3.585  13.163  21.356  0.00  0.00    +0.000 A 
ATOM     16  C   UNL     1      -3.559  14.554  21.171  0.00  0.00    +0.000 A 
ATOM     17  C   UNL     1      -3.318  15.411  22.253  0.00  0.00    +0.000 A 
ATOM     18  C   UNL     1      -3.126  14.888  23.529  0.00  0.00    +0.000 A 
ATOM     19 CL   UNL     1      -2.850  15.943  24.859  0.00  0.00    +0.000 Cl
ATOM     20  C   UNL     1      -3.152  13.515  23.734  0.00  0.00    +0.000 A 
ATOM     21  C   UNL     1      -3.364  12.659  22.653  0.00  0.00    +0.000 A 
ENDBRANCH   7  15
BRANCH   1  22
ATOM     22  C   UNL     1      -6.281  11.940  20.663  0.00  0.00    +0.000 C 
BRANCH  22  24
ATOM     23  C   UNL     1      -7.087  13.447  22.630  0.00  0.00    +0.000 C 
ATOM     24  C   UNL     1      -7.049  13.209  21.127  0.00  0.00    +0.000 C 
ENDBRANCH  22  24
BRANCH  22  25
ATOM     25  C   UNL     1      -7.278  10.841  20.196  0.00  0.00    +0.000 C 
BRANCH  25  26
ATOM     26  O   UNL     1      -7.396   9.814  21.179  0.00  0.00    +0.000 OA
ATOM     27  C   UNL     1      -7.566   8.532  20.581  0.00  0.00    +0.000 C 
ENDBRANCH  25  26
ENDBRANCH  22  25
ENDBRANCH   1  22
BRANCH   4  28
ATOM     28  C   UNL     1      -4.593  10.864  16.165  0.00  0.00    +0.000 C 
BRANCH  28  29
ATOM     29  C   UNL     1      -3.368  10.376  15.412  0.00  0.00    +0.000 C 
ATOM     30  O   UNL     1      -2.847  11.012  14.506  0.00  0.00    +0.000 OA
BRANCH  29  31
ATOM     31  O   UNL     1      -2.875   9.199  15.843  0.00  0.00    +0.000 OA
ATOM     32  H   UNL     1      -3.448   8.428  15.621  0.00  0.00    +0.000 HD
ENDBRANCH  29  31
ENDBRANCH  28  29
ENDBRANCH   4  28
TORSDOF 9
ENDMDL
