MODEL 1
REMARK VINA RESULT:      -7.3      0.000      0.000
REMARK  Name = 
REMARK  5 active torsions:
REMARK  status: ('A' for Active; 'I' for Inactive)
REMARK    1  A    between atoms: C_1  and  C_2
REMARK    2  A    between atoms: C_7  and  N_8
REMARK    3  A    between atoms: C_9  and  C_11
REMARK    4  A    between atoms: C_11  and  C_12
REMARK    5  A    between atoms: C_12  and  N_13
REMARK                            x       y       z     vdW  Elec       q    Type
REMARK                         _______ _______ _______ _____ _____    ______ ____
ROOT
ATOM      1  C   UNL     1       2.690   3.948  21.406  0.00  0.00    +0.000 C 
ENDROOT
BRANCH   1   3
ATOM      2  N   UNL     1       2.289   6.193  20.585  0.00  0.00    +0.000 N 
ATOM      3  C   UNL     1       1.737   4.945  20.789  0.00  0.00    +0.000 C 
ATOM      4  O   UNL     1       0.569   4.669  20.531  0.00  0.00    +0.000 OA
ATOM      5  H   UNL     1       3.258   6.349  20.826  0.00  0.00    +0.000 HD
BRANCH   2  12
ATOM      6  C   UNL     1       2.710   7.202  17.752  0.00  0.00    +0.000 C 
ATOM      7  C   UNL     1       2.313   8.069  18.952  0.00  0.00    +0.000 C 
ATOM      8  C   UNL     1       1.503   9.270  18.437  0.00  0.00    +0.000 C 
ATOM      9  C   UNL     1       1.095  10.203  19.568  0.00  0.00    +0.000 C 
ATOM     10  C   UNL     1       0.310   9.459  20.641  0.00  0.00    +0.000 C 
ATOM     11  C   UNL     1       1.087   8.255  21.167  0.00  0.00    +0.000 C 
ATOM     12  C   UNL     1       1.516   7.301  20.035  0.00  0.00    +0.000 C 
ENDBRANCH   2  12
ENDBRANCH   1   3
BRANCH   1  13
ATOM     13  C   UNL     1       2.696   2.658  20.588  0.00  0.00    +0.000 C 
BRANCH  13  14
ATOM     14  N   UNL     1       2.842   2.891  19.169  0.00  0.00    +0.000 N 
ATOM     15  C   UNL     1       1.905   2.632  18.184  0.00  0.00    +0.000 A 
ATOM     16  O   UNL     1       0.813   2.121  18.348  0.00  0.00    +0.000 OA
ATOM     17  O   UNL     1       2.378   3.056  16.930  0.00  0.00    +0.000 OA
ATOM     18  C   UNL     1       3.618   3.593  17.236  0.00  0.00    +0.000 A 
ATOM     19  C   UNL     1       4.476   4.204  16.348  0.00  0.00    +0.000 A 
ATOM     20  C   UNL     1       5.674   4.716  16.858  0.00  0.00    +0.000 A 
ATOM     21  C   UNL     1       5.994   4.583  18.223  0.00  0.00    +0.000 A 
ATOM     22  C   UNL     1       5.115   3.946  19.101  0.00  0.00    +0.000 A 
ATOM     23  C   UNL     1       3.927   3.487  18.577  0.00  0.00    +0.000 A 
ENDBRANCH  13  14
ENDBRANCH   1  13
TORSDOF 4
ENDMDL
MODEL 2
REMARK VINA RESULT:      -7.0      3.711      7.013
REMARK  Name = 
REMARK  5 active torsions:
REMARK  status: ('A' for Active; 'I' for Inactive)
REMARK    1  A    between atoms: C_1  and  C_2
REMARK    2  A    between atoms: C_7  and  N_8
REMARK    3  A    between atoms: C_9  and  C_11
REMARK    4  A    between atoms: C_11  and  C_12
REMARK    5  A    between atoms: C_12  and  N_13
REMARK                            x       y       z     vdW  Elec       q    Type
REMARK                         _______ _______ _______ _____ _____    ______ ____
ROOT
ATOM      1  C   UNL     1       6.975   6.682  17.223  0.00  0.00    +0.000 C 
ENDROOT
BRANCH   1   3
ATOM      2  N   UNL     1       6.625   5.630  15.068  0.00  0.00    +0.000 N 
ATOM      3  C   UNL     1       7.258   5.528  16.288  0.00  0.00    +0.000 C 
ATOM      4  O   UNL     1       7.962   4.575  16.611  0.00  0.00    +0.000 OA
ATOM      5  H   UNL     1       6.056   6.443  14.872  0.00  0.00    +0.000 HD
BRANCH   2  12
ATOM      6  C   UNL     1       8.690   5.789  12.847  0.00  0.00    +0.000 C 
ATOM      7  C   UNL     1       7.294   5.170  12.716  0.00  0.00    +0.000 C 
ATOM      8  C   UNL     1       7.346   4.076  11.638  0.00  0.00    +0.000 C 
ATOM      9  C   UNL     1       5.985   3.431  11.421  0.00  0.00    +0.000 C 
ATOM     10  C   UNL     1       5.432   2.862  12.722  0.00  0.00    +0.000 C 
ATOM     11  C   UNL     1       5.375   3.925  13.816  0.00  0.00    +0.000 C 
ATOM     12  C   UNL     1       6.743   4.597  14.045  0.00  0.00    +0.000 C 
ENDBRANCH   2  12
ENDBRANCH   1   3
BRANCH   1  13
ATOM     13  C   UNL     1       5.549   6.576  17.762  0.00  0.00    +0.000 C 
BRANCH  13  14
ATOM     14  N   UNL     1       5.293   5.326  18.438  0.00  0.00    +0.000 N 
ATOM     15  C   UNL     1       6.025   4.777  19.476  0.00  0.00    +0.000 A 
ATOM     16  O   UNL     1       7.039   5.241  19.964  0.00  0.00    +0.000 OA
ATOM     17  O   UNL     1       5.429   3.585  19.925  0.00  0.00    +0.000 OA
ATOM     18  C   UNL     1       4.309   3.481  19.117  0.00  0.00    +0.000 A 
ATOM     19  C   UNL     1       3.344   2.500  19.195  0.00  0.00    +0.000 A 
ATOM     20  C   UNL     1       2.264   2.587  18.310  0.00  0.00    +0.000 A 
ATOM     21  C   UNL     1       2.189   3.625  17.361  0.00  0.00    +0.000 A 
ATOM     22  C   UNL     1       3.186   4.599  17.291  0.00  0.00    +0.000 A 
ATOM     23  C   UNL     1       4.216   4.509  18.201  0.00  0.00    +0.000 A 
ENDBRANCH  13  14
ENDBRANCH   1  13
TORSDOF 4
ENDMDL
MODEL 3
REMARK VINA RESULT:      -7.0      1.064      1.458
REMARK  Name = 
REMARK  5 active torsions:
REMARK  status: ('A' for Active; 'I' for Inactive)
REMARK    1  A    between atoms: C_1  and  C_2
REMARK    2  A    between atoms: C_7  and  N_8
REMARK    3  A    between atoms: C_9  and  C_11
REMARK    4  A    between atoms: C_11  and  C_12
REMARK    5  A    between atoms: C_12  and  N_13
REMARK                            x       y       z     vdW  Elec       q    Type
REMARK                         _______ _______ _______ _____ _____    ______ ____
ROOT
ATOM      1  C   UNL     1       3.313   4.129  20.817  0.00  0.00    +0.000 C 
ENDROOT
BRANCH   1   3
ATOM      2  N   UNL     1       2.558   6.374  20.304  0.00  0.00    +0.000 N 
ATOM      3  C   UNL     1       2.193   5.047  20.383  0.00  0.00    +0.000 C 
ATOM      4  O   UNL     1       1.056   4.640  20.159  0.00  0.00    +0.000 OA
ATOM      5  H   UNL     1       3.514   6.637  20.508  0.00  0.00    +0.000 HD
BRANCH   2  12
ATOM      6  C   UNL     1       2.596   7.710  17.577  0.00  0.00    +0.000 C 
ATOM      7  C   UNL     1       2.202   8.391  18.892  0.00  0.00    +0.000 C 
ATOM      8  C   UNL     1       1.206   9.519  18.577  0.00  0.00    +0.000 C 
ATOM      9  C   UNL     1       0.787  10.271  19.832  0.00  0.00    +0.000 C 
ATOM     10  C   UNL     1       0.200   9.324  20.871  0.00  0.00    +0.000 C 
ATOM     11  C   UNL     1       1.165   8.189  21.201  0.00  0.00    +0.000 C 
ATOM     12  C   UNL     1       1.607   7.419  19.941  0.00  0.00    +0.000 C 
ENDBRANCH   2  12
ENDBRANCH   1   3
BRANCH   1  13
ATOM     13  C   UNL     1       3.641   3.143  19.697  0.00  0.00    +0.000 C 
BRANCH  13  14
ATOM     14  N   UNL     1       4.069   3.792  18.480  0.00  0.00    +0.000 N 
ATOM     15  C   UNL     1       3.411   3.793  17.263  0.00  0.00    +0.000 A 
ATOM     16  O   UNL     1       2.378   3.204  17.004  0.00  0.00    +0.000 OA
ATOM     17  O   UNL     1       4.097   4.592  16.331  0.00  0.00    +0.000 OA
ATOM     18  C   UNL     1       5.166   5.073  17.069  0.00  0.00    +0.000 A 
ATOM     19  C   UNL     1       6.121   5.961  16.625  0.00  0.00    +0.000 A 
ATOM     20  C   UNL     1       7.107   6.355  17.536  0.00  0.00    +0.000 A 
ATOM     21  C   UNL     1       7.130   5.839  18.846  0.00  0.00    +0.000 A 
ATOM     22  C   UNL     1       6.160   4.928  19.269  0.00  0.00    +0.000 A 
ATOM     23  C   UNL     1       5.180   4.589  18.362  0.00  0.00    +0.000 A 
ENDBRANCH  13  14
ENDBRANCH   1  13
TORSDOF 4
ENDMDL
MODEL 4
REMARK VINA RESULT:      -6.9      2.812      6.924
REMARK  Name = 
REMARK  5 active torsions:
REMARK  status: ('A' for Active; 'I' for Inactive)
REMARK    1  A    between atoms: C_1  and  C_2
REMARK    2  A    between atoms: C_7  and  N_8
REMARK    3  A    between atoms: C_9  and  C_11
REMARK    4  A    between atoms: C_11  and  C_12
REMARK    5  A    between atoms: C_12  and  N_13
REMARK                            x       y       z     vdW  Elec       q    Type
REMARK                         _______ _______ _______ _____ _____    ______ ____
ROOT
ATOM      1  C   UNL     1       2.965   8.275  17.855  0.00  0.00    +0.000 C 
ENDROOT
BRANCH   1   3
ATOM      2  N   UNL     1       2.291   6.275  19.047  0.00  0.00    +0.000 N 
ATOM      3  C   UNL     1       3.279   6.859  18.283  0.00  0.00    +0.000 C 
ATOM      4  O   UNL     1       4.336   6.303  17.999  0.00  0.00    +0.000 OA
ATOM      5  H   UNL     1       1.446   6.795  19.245  0.00  0.00    +0.000 HD
BRANCH   2  12
ATOM      6  C   UNL     1       1.791   3.804  17.355  0.00  0.00    +0.000 C 
ATOM      7  C   UNL     1       1.499   3.924  18.854  0.00  0.00    +0.000 C 
ATOM      8  C   UNL     1       1.611   2.527  19.486  0.00  0.00    +0.000 C 
ATOM      9  C   UNL     1       1.302   2.554  20.976  0.00  0.00    +0.000 C 
ATOM     10  C   UNL     1       2.207   3.537  21.708  0.00  0.00    +0.000 C 
ATOM     11  C   UNL     1       2.123   4.934  21.099  0.00  0.00    +0.000 C 
ATOM     12  C   UNL     1       2.425   4.927  19.587  0.00  0.00    +0.000 C 
ENDBRANCH   2  12
ENDBRANCH   1   3
BRANCH   1  13
ATOM     13  C   UNL     1       1.496   8.588  18.130  0.00  0.00    +0.000 C 
BRANCH  13  14
ATOM     14  N   UNL     1       1.314   9.704  19.029  0.00  0.00    +0.000 N 
ATOM     15  C   UNL     1       1.627  11.029  18.782  0.00  0.00    +0.000 A 
ATOM     16  O   UNL     1       2.151  11.468  17.775  0.00  0.00    +0.000 OA
ATOM     17  O   UNL     1       1.242  11.838  19.866  0.00  0.00    +0.000 OA
ATOM     18  C   UNL     1       0.672  10.927  20.740  0.00  0.00    +0.000 A 
ATOM     19  C   UNL     1       0.079  11.226  21.947  0.00  0.00    +0.000 A 
ATOM     20  C   UNL     1      -0.473  10.166  22.674  0.00  0.00    +0.000 A 
ATOM     21  C   UNL     1      -0.397   8.843  22.194  0.00  0.00    +0.000 A 
ATOM     22  C   UNL     1       0.222   8.562  20.975  0.00  0.00    +0.000 A 
ATOM     23  C   UNL     1       0.721   9.632  20.264  0.00  0.00    +0.000 A 
ENDBRANCH  13  14
ENDBRANCH   1  13
TORSDOF 4
ENDMDL
MODEL 5
REMARK VINA RESULT:      -6.9      2.416      4.035
REMARK  Name = 
REMARK  5 active torsions:
REMARK  status: ('A' for Active; 'I' for Inactive)
REMARK    1  A    between atoms: C_1  and  C_2
REMARK    2  A    between atoms: C_7  and  N_8
REMARK    3  A    between atoms: C_9  and  C_11
REMARK    4  A    between atoms: C_11  and  C_12
REMARK    5  A    between atoms: C_12  and  N_13
REMARK                            x       y       z     vdW  Elec       q    Type
REMARK                         _______ _______ _______ _____ _____    ______ ____
ROOT
ATOM      1  C   UNL     1       2.734   7.925  17.712  0.00  0.00    +0.000 C 
ENDROOT
BRANCH   1   3
ATOM      2  N   UNL     1       1.026   9.571  18.212  0.00  0.00    +0.000 N 
ATOM      3  C   UNL     1       1.778   8.531  18.715  0.00  0.00    +0.000 C 
ATOM      4  O   UNL     1       1.713   8.146  19.879  0.00  0.00    +0.000 OA
ATOM      5  H   UNL     1       1.137   9.838  17.242  0.00  0.00    +0.000 HD
BRANCH   2  12
ATOM      6  C   UNL     1      -1.890   9.880  17.424  0.00  0.00    +0.000 C 
ATOM      7  C   UNL     1      -1.063  10.922  18.183  0.00  0.00    +0.000 C 
ATOM      8  C   UNL     1      -2.012  11.749  19.066  0.00  0.00    +0.000 C 
ATOM      9  C   UNL     1      -1.270  12.834  19.832  0.00  0.00    +0.000 C 
ATOM     10  C   UNL     1      -0.148  12.243  20.676  0.00  0.00    +0.000 C 
ATOM     11  C   UNL     1       0.809  11.410  19.827  0.00  0.00    +0.000 C 
ATOM     12  C   UNL     1       0.075  10.310  19.036  0.00  0.00    +0.000 C 
ENDBRANCH   2  12
ENDBRANCH   1   3
BRANCH   1  13
ATOM     13  C   UNL     1       3.653   6.924  18.408  0.00  0.00    +0.000 C 
BRANCH  13  14
ATOM     14  N   UNL     1       3.553   5.591  17.863  0.00  0.00    +0.000 N 
ATOM     15  C   UNL     1       4.334   5.042  16.861  0.00  0.00    +0.000 A 
ATOM     16  O   UNL     1       5.211   5.612  16.240  0.00  0.00    +0.000 OA
ATOM     17  O   UNL     1       3.988   3.695  16.647  0.00  0.00    +0.000 OA
ATOM     18  C   UNL     1       2.991   3.483  17.584  0.00  0.00    +0.000 A 
ATOM     19  C   UNL     1       2.349   2.288  17.826  0.00  0.00    +0.000 A 
ATOM     20  C   UNL     1       1.388   2.267  18.843  0.00  0.00    +0.000 A 
ATOM     21  C   UNL     1       1.077   3.433  19.568  0.00  0.00    +0.000 A 
ATOM     22  C   UNL     1       1.730   4.636  19.295  0.00  0.00    +0.000 A 
ATOM     23  C   UNL     1       2.698   4.617  18.316  0.00  0.00    +0.000 A 
ENDBRANCH  13  14
ENDBRANCH   1  13
TORSDOF 4
ENDMDL
MODEL 6
REMARK VINA RESULT:      -6.9      2.746      4.366
REMARK  Name = 
REMARK  5 active torsions:
REMARK  status: ('A' for Active; 'I' for Inactive)
REMARK    1  A    between atoms: C_1  and  C_2
REMARK    2  A    between atoms: C_7  and  N_8
REMARK    3  A    between atoms: C_9  and  C_11
REMARK    4  A    between atoms: C_11  and  C_12
REMARK    5  A    between atoms: C_12  and  N_13
REMARK                            x       y       z     vdW  Elec       q    Type
REMARK                         _______ _______ _______ _____ _____    ______ ____
ROOT
ATOM      1  C   UNL     1       2.492   7.576  18.915  0.00  0.00    +0.000 C 
ENDROOT
BRANCH   1   3
ATOM      2  N   UNL     1       0.781   9.273  19.178  0.00  0.00    +0.000 N 
ATOM      3  C   UNL     1       1.820   8.825  18.390  0.00  0.00    +0.000 C 
ATOM      4  O   UNL     1       2.156   9.362  17.338  0.00  0.00    +0.000 OA
ATOM      5  H   UNL     1       0.558   8.778  20.031  0.00  0.00    +0.000 HD
BRANCH   2  12
ATOM      6  C   UNL     1       0.524  11.677  21.016  0.00  0.00    +0.000 C 
ATOM      7  C   UNL     1      -0.568  11.162  20.072  0.00  0.00    +0.000 C 
ATOM      8  C   UNL     1      -1.457  12.348  19.664  0.00  0.00    +0.000 C 
ATOM      9  C   UNL     1      -2.593  11.915  18.748  0.00  0.00    +0.000 C 
ATOM     10  C   UNL     1      -2.061  11.204  17.510  0.00  0.00    +0.000 C 
ATOM     11  C   UNL     1      -1.168  10.024  17.884  0.00  0.00    +0.000 C 
ATOM     12  C   UNL     1      -0.015  10.441  18.818  0.00  0.00    +0.000 C 
ENDBRANCH   2  12
ENDBRANCH   1   3
BRANCH   1  13
ATOM     13  C   UNL     1       3.203   6.850  17.775  0.00  0.00    +0.000 C 
BRANCH  13  14
ATOM     14  N   UNL     1       3.714   5.555  18.163  0.00  0.00    +0.000 N 
ATOM     15  C   UNL     1       5.020   5.243  18.494  0.00  0.00    +0.000 A 
ATOM     16  O   UNL     1       5.969   6.004  18.470  0.00  0.00    +0.000 OA
ATOM     17  O   UNL     1       5.122   3.896  18.886  0.00  0.00    +0.000 OA
ATOM     18  C   UNL     1       3.814   3.451  18.791  0.00  0.00    +0.000 A 
ATOM     19  C   UNL     1       3.361   2.193  19.126  0.00  0.00    +0.000 A 
ATOM     20  C   UNL     1       1.991   1.944  18.992  0.00  0.00    +0.000 A 
ATOM     21  C   UNL     1       1.120   2.939  18.506  0.00  0.00    +0.000 A 
ATOM     22  C   UNL     1       1.604   4.201  18.158  0.00  0.00    +0.000 A 
ATOM     23  C   UNL     1       2.950   4.428  18.339  0.00  0.00    +0.000 A 
ENDBRANCH  13  14
ENDBRANCH   1  13
TORSDOF 4
ENDMDL
MODEL 7
REMARK VINA RESULT:      -6.8      2.659      4.421
REMARK  Name = 
REMARK  5 active torsions:
REMARK  status: ('A' for Active; 'I' for Inactive)
REMARK    1  A    between atoms: C_1  and  C_2
REMARK    2  A    between atoms: C_7  and  N_8
REMARK    3  A    between atoms: C_9  and  C_11
REMARK    4  A    between atoms: C_11  and  C_12
REMARK    5  A    between atoms: C_12  and  N_13
REMARK                            x       y       z     vdW  Elec       q    Type
REMARK                         _______ _______ _______ _____ _____    ______ ____
ROOT
ATOM      1  C   UNL     1       2.460   7.713  18.939  0.00  0.00    +0.000 C 
ENDROOT
BRANCH   1   3
ATOM      2  N   UNL     1       0.685   9.349  19.160  0.00  0.00    +0.000 N 
ATOM      3  C   UNL     1       1.756   8.936  18.396  0.00  0.00    +0.000 C 
ATOM      4  O   UNL     1       2.095   9.481  17.349  0.00  0.00    +0.000 OA
ATOM      5  H   UNL     1       0.461   8.848  20.010  0.00  0.00    +0.000 HD
BRANCH   2  12
ATOM      6  C   UNL     1       0.270  11.726  21.004  0.00  0.00    +0.000 C 
ATOM      7  C   UNL     1      -0.768  11.176  20.019  0.00  0.00    +0.000 C 
ATOM      8  C   UNL     1      -1.688  12.330  19.587  0.00  0.00    +0.000 C 
ATOM      9  C   UNL     1      -2.773  11.859  18.630  0.00  0.00    +0.000 C 
ATOM     10  C   UNL     1      -2.171  11.180  17.406  0.00  0.00    +0.000 C 
ATOM     11  C   UNL     1      -1.246  10.033  17.804  0.00  0.00    +0.000 C 
ATOM     12  C   UNL     1      -0.144  10.488  18.781  0.00  0.00    +0.000 C 
ENDBRANCH   2  12
ENDBRANCH   1   3
BRANCH   1  13
ATOM     13  C   UNL     1       2.279   6.539  17.978  0.00  0.00    +0.000 C 
BRANCH  13  14
ATOM     14  N   UNL     1       2.996   5.355  18.391  0.00  0.00    +0.000 N 
ATOM     15  C   UNL     1       4.222   4.920  17.922  0.00  0.00    +0.000 A 
ATOM     16  O   UNL     1       4.883   5.444  17.045  0.00  0.00    +0.000 OA
ATOM     17  O   UNL     1       4.635   3.766  18.611  0.00  0.00    +0.000 OA
ATOM     18  C   UNL     1       3.605   3.567  19.516  0.00  0.00    +0.000 A 
ATOM     19  C   UNL     1       3.553   2.583  20.478  0.00  0.00    +0.000 A 
ATOM     20  C   UNL     1       2.439   2.566  21.325  0.00  0.00    +0.000 A 
ATOM     21  C   UNL     1       1.402   3.508  21.173  0.00  0.00    +0.000 A 
ATOM     22  C   UNL     1       1.469   4.487  20.181  0.00  0.00    +0.000 A 
ATOM     23  C   UNL     1       2.597   4.502  19.389  0.00  0.00    +0.000 A 
ENDBRANCH  13  14
ENDBRANCH   1  13
TORSDOF 4
ENDMDL
MODEL 8
REMARK VINA RESULT:      -6.8      2.274      3.095
REMARK  Name = 
REMARK  5 active torsions:
REMARK  status: ('A' for Active; 'I' for Inactive)
REMARK    1  A    between atoms: C_1  and  C_2
REMARK    2  A    between atoms: C_7  and  N_8
REMARK    3  A    between atoms: C_9  and  C_11
REMARK    4  A    between atoms: C_11  and  C_12
REMARK    5  A    between atoms: C_12  and  N_13
REMARK                            x       y       z     vdW  Elec       q    Type
REMARK                         _______ _______ _______ _____ _____    ______ ____
ROOT
ATOM      1  C   UNL     1       3.996   4.459  20.008  0.00  0.00    +0.000 C 
ENDROOT
BRANCH   1   3
ATOM      2  N   UNL     1       2.802   6.567  20.099  0.00  0.00    +0.000 N 
ATOM      3  C   UNL     1       2.807   5.289  19.579  0.00  0.00    +0.000 C 
ATOM      4  O   UNL     1       1.916   4.843  18.863  0.00  0.00    +0.000 OA
ATOM      5  H   UNL     1       3.569   6.865  20.687  0.00  0.00    +0.000 HD
BRANCH   2  12
ATOM      6  C   UNL     1       2.600   8.092  17.480  0.00  0.00    +0.000 C 
ATOM      7  C   UNL     1       2.159   8.620  18.850  0.00  0.00    +0.000 C 
ATOM      8  C   UNL     1       1.022   9.632  18.638  0.00  0.00    +0.000 C 
ATOM      9  C   UNL     1       0.547  10.232  19.953  0.00  0.00    +0.000 C 
ATOM     10  C   UNL     1       0.110   9.146  20.928  0.00  0.00    +0.000 C 
ATOM     11  C   UNL     1       1.218   8.120  21.154  0.00  0.00    +0.000 C 
ATOM     12  C   UNL     1       1.719   7.506  19.832  0.00  0.00    +0.000 C 
ENDBRANCH   2  12
ENDBRANCH   1   3
BRANCH   1  13
ATOM     13  C   UNL     1       4.548   3.684  18.814  0.00  0.00    +0.000 C 
BRANCH  13  14
ATOM     14  N   UNL     1       5.613   4.380  18.131  0.00  0.00    +0.000 N 
ATOM     15  C   UNL     1       6.681   5.040  18.714  0.00  0.00    +0.000 A 
ATOM     16  O   UNL     1       6.875   5.180  19.907  0.00  0.00    +0.000 OA
ATOM     17  O   UNL     1       7.553   5.536  17.729  0.00  0.00    +0.000 OA
ATOM     18  C   UNL     1       6.955   5.114  16.552  0.00  0.00    +0.000 A 
ATOM     19  C   UNL     1       7.453   5.299  15.281  0.00  0.00    +0.000 A 
ATOM     20  C   UNL     1       6.717   4.767  14.217  0.00  0.00    +0.000 A 
ATOM     21  C   UNL     1       5.501   4.094  14.444  0.00  0.00    +0.000 A 
ATOM     22  C   UNL     1       5.009   3.932  15.740  0.00  0.00    +0.000 A 
ATOM     23  C   UNL     1       5.776   4.432  16.770  0.00  0.00    +0.000 A 
ENDBRANCH  13  14
ENDBRANCH   1  13
TORSDOF 4
ENDMDL
MODEL 9
REMARK VINA RESULT:      -6.8      1.983      3.866
REMARK  Name = 
REMARK  5 active torsions:
REMARK  status: ('A' for Active; 'I' for Inactive)
REMARK    1  A    between atoms: C_1  and  C_2
REMARK    2  A    between atoms: C_7  and  N_8
REMARK    3  A    between atoms: C_9  and  C_11
REMARK    4  A    between atoms: C_11  and  C_12
REMARK    5  A    between atoms: C_12  and  N_13
REMARK                            x       y       z     vdW  Elec       q    Type
REMARK                         _______ _______ _______ _____ _____    ______ ____
ROOT
ATOM      1  C   UNL     1       3.232   7.921  17.601  0.00  0.00    +0.000 C 
ENDROOT
BRANCH   1   3
ATOM      2  N   UNL     1       1.982   8.687  19.531  0.00  0.00    +0.000 N 
ATOM      3  C   UNL     1       1.951   8.493  18.166  0.00  0.00    +0.000 C 
ATOM      4  O   UNL     1       0.968   8.724  17.469  0.00  0.00    +0.000 OA
ATOM      5  H   UNL     1       2.827   8.469  20.043  0.00  0.00    +0.000 HD
BRANCH   2  12
ATOM      6  C   UNL     1       1.184  11.616  19.460  0.00  0.00    +0.000 C 
ATOM      7  C   UNL     1       1.012  10.680  20.661  0.00  0.00    +0.000 C 
ATOM      8  C   UNL     1      -0.185  11.169  21.492  0.00  0.00    +0.000 C 
ATOM      9  C   UNL     1      -0.405  10.309  22.728  0.00  0.00    +0.000 C 
ATOM     10  C   UNL     1      -0.587   8.843  22.354  0.00  0.00    +0.000 C 
ATOM     11  C   UNL     1       0.585   8.330  21.521  0.00  0.00    +0.000 C 
ATOM     12  C   UNL     1       0.829   9.193  20.268  0.00  0.00    +0.000 C 
ENDBRANCH   2  12
ENDBRANCH   1   3
BRANCH   1  13
ATOM     13  C   UNL     1       3.786   6.855  18.543  0.00  0.00    +0.000 C 
BRANCH  13  14
ATOM     14  N   UNL     1       3.406   5.514  18.165  0.00  0.00    +0.000 N 
ATOM     15  C   UNL     1       3.941   4.757  17.138  0.00  0.00    +0.000 A 
ATOM     16  O   UNL     1       4.797   5.116  16.351  0.00  0.00    +0.000 OA
ATOM     17  O   UNL     1       3.368   3.473  17.119  0.00  0.00    +0.000 OA
ATOM     18  C   UNL     1       2.495   3.513  18.194  0.00  0.00    +0.000 A 
ATOM     19  C   UNL     1       1.720   2.467  18.645  0.00  0.00    +0.000 A 
ATOM     20  C   UNL     1       0.924   2.695  19.773  0.00  0.00    +0.000 A 
ATOM     21  C   UNL     1       0.902   3.956  20.400  0.00  0.00    +0.000 A 
ATOM     22  C   UNL     1       1.685   5.006  19.915  0.00  0.00    +0.000 A 
ATOM     23  C   UNL     1       2.487   4.739  18.828  0.00  0.00    +0.000 A 
ENDBRANCH  13  14
ENDBRANCH   1  13
TORSDOF 4
ENDMDL
