MODEL 1
REMARK VINA RESULT:      -7.5      0.000      0.000
REMARK  Name = 
REMARK  8 active torsions:
REMARK  status: ('A' for Active; 'I' for Inactive)
REMARK    1  A    between atoms: C_1  and  O_2
REMARK    2  A    between atoms: O_2  and  C_3
REMARK    3  A    between atoms: C_9  and  N_10
REMARK    4  A    between atoms: C_13  and  O_14
REMARK    5  A    between atoms: O_14  and  C_15
REMARK    6  A    between atoms: C_19  and  C_20
REMARK    7  A    between atoms: C_20  and  N_21
REMARK    8  A    between atoms: C_22  and  C_24
REMARK                            x       y       z     vdW  Elec       q    Type
REMARK                         _______ _______ _______ _____ _____    ______ ____
ROOT
ATOM      1  C   UNL     1       5.348  15.381  18.073  0.00  0.00    +0.000 A 
ATOM      2  C   UNL     1       6.280  14.446  17.606  0.00  0.00    +0.000 A 
ATOM      3  C   UNL     1       7.593  14.428  18.040  0.00  0.00    +0.000 A 
ATOM      4  N   UNL     1       8.383  13.462  17.569  0.00  0.00    +0.000 NA
ATOM      5  C   UNL     1       9.675  13.423  17.963  0.00  0.00    +0.000 A 
ATOM      6  C   UNL     1      10.228  14.342  18.859  0.00  0.00    +0.000 A 
ATOM      7  C   UNL     1       9.367  15.307  19.417  0.00  0.00    +0.000 A 
ATOM      8  C   UNL     1       8.029  15.398  18.952  0.00  0.00    +0.000 A 
ATOM      9  C   UNL     1       7.104  16.383  19.375  0.00  0.00    +0.000 A 
ATOM     10  C   UNL     1       5.769  16.384  18.957  0.00  0.00    +0.000 A 
ATOM     11  C   UNL     1      11.679  14.217  19.250  0.00  0.00    +0.000 C 
ATOM     12  C   UNL     1      11.929  12.991  20.127  0.00  0.00    +0.000 C 
ATOM     13  C   UNL     1      12.107  11.708  19.313  0.00  0.00    +0.000 C 
ATOM     14  C   UNL     1      10.873  11.234  18.519  0.00  0.00    +0.000 C 
ATOM     15  C   UNL     1      10.457  12.245  17.433  0.00  0.00    +0.000 C 
ENDROOT
BRANCH   7  16
ATOM     16  N   UNL     1       9.885  16.313  20.273  0.00  0.00    +0.000 N 
ATOM     17  H   UNL     1       9.460  17.227  20.138  0.00  0.00    +0.000 HD
ATOM     18  H   UNL     1      10.887  16.405  20.244  0.00  0.00    +0.000 HD
ENDBRANCH   7  16
BRANCH   1  20
ATOM     19  C   UNL     1       3.220  14.397  18.338  0.00  0.00    +0.000 C 
ATOM     20  O   UNL     1       4.033  15.365  17.671  0.00  0.00    +0.000 OA
ENDBRANCH   1  20
BRANCH  10  21
ATOM     21  O   UNL     1       4.847  17.308  19.384  0.00  0.00    +0.000 OA
ATOM     22  C   UNL     1       5.012  17.817  20.707  0.00  0.00    +0.000 C 
ENDBRANCH  10  21
BRANCH  14  23
ATOM     23  C   UNL     1       9.684  10.843  19.418  0.00  0.00    +0.000 C 
BRANCH  23  24
ATOM     24  N   UNL     1       9.182   9.521  19.116  0.00  0.00    +0.000 N 
ATOM     25  C   UNL     1       8.265   9.284  18.114  0.00  0.00    +0.000 C 
ATOM     26  O   UNL     1       7.815  10.176  17.402  0.00  0.00    +0.000 OA
ATOM     27  H   UNL     1       9.544   8.714  19.609  0.00  0.00    +0.000 HD
BRANCH  25  28
ATOM     28  C   UNL     1       7.889   7.893  17.984  0.00  0.00    +0.000 A 
ATOM     29  C   UNL     1       8.155   6.804  18.791  0.00  0.00    +0.000 A 
ATOM     30  C   UNL     1       7.551   5.683  18.177  0.00  0.00    +0.000 A 
ATOM     31  C   UNL     1       6.954   6.150  17.029  0.00  0.00    +0.000 A 
ATOM     32  O   UNL     1       7.149   7.487  16.899  0.00  0.00    +0.000 OA
ENDBRANCH  25  28
ENDBRANCH  23  24
ENDBRANCH  14  23
TORSDOF 6
ENDMDL
MODEL 2
REMARK VINA RESULT:      -6.5      1.289      1.457
REMARK  Name = 
REMARK  8 active torsions:
REMARK  status: ('A' for Active; 'I' for Inactive)
REMARK    1  A    between atoms: C_1  and  O_2
REMARK    2  A    between atoms: O_2  and  C_3
REMARK    3  A    between atoms: C_9  and  N_10
REMARK    4  A    between atoms: C_13  and  O_14
REMARK    5  A    between atoms: O_14  and  C_15
REMARK    6  A    between atoms: C_19  and  C_20
REMARK    7  A    between atoms: C_20  and  N_21
REMARK    8  A    between atoms: C_22  and  C_24
REMARK                            x       y       z     vdW  Elec       q    Type
REMARK                         _______ _______ _______ _____ _____    ______ ____
ROOT
ATOM      1  C   UNL     1       5.713  15.817  20.384  0.00  0.00    +0.000 A 
ATOM      2  C   UNL     1       6.359  14.972  19.473  0.00  0.00    +0.000 A 
ATOM      3  C   UNL     1       7.722  14.742  19.513  0.00  0.00    +0.000 A 
ATOM      4  N   UNL     1       8.227  13.879  18.631  0.00  0.00    +0.000 NA
ATOM      5  C   UNL     1       9.557  13.641  18.634  0.00  0.00    +0.000 A 
ATOM      6  C   UNL     1      10.438  14.248  19.534  0.00  0.00    +0.000 A 
ATOM      7  C   UNL     1       9.887  15.094  20.517  0.00  0.00    +0.000 A 
ATOM      8  C   UNL     1       8.502  15.402  20.472  0.00  0.00    +0.000 A 
ATOM      9  C   UNL     1       7.859  16.307  21.351  0.00  0.00    +0.000 A 
ATOM     10  C   UNL     1       6.477  16.517  21.327  0.00  0.00    +0.000 A 
ATOM     11  C   UNL     1      11.908  13.918  19.471  0.00  0.00    +0.000 C 
ATOM     12  C   UNL     1      12.191  12.489  19.933  0.00  0.00    +0.000 C 
ATOM     13  C   UNL     1      11.979  11.456  18.824  0.00  0.00    +0.000 C 
ATOM     14  C   UNL     1      10.533  11.301  18.311  0.00  0.00    +0.000 C 
ATOM     15  C   UNL     1      10.010  12.591  17.649  0.00  0.00    +0.000 C 
ENDROOT
BRANCH   7  16
ATOM     16  N   UNL     1      10.737  15.797  21.409  0.00  0.00    +0.000 N 
ATOM     17  H   UNL     1      10.420  15.782  22.375  0.00  0.00    +0.000 HD
ATOM     18  H   UNL     1      10.927  16.748  21.136  0.00  0.00    +0.000 HD
ENDBRANCH   7  16
BRANCH   1  20
ATOM     19  C   UNL     1       3.718  15.652  19.134  0.00  0.00    +0.000 C 
ATOM     20  O   UNL     1       4.351  16.005  20.366  0.00  0.00    +0.000 OA
ENDBRANCH   1  20
BRANCH  10  21
ATOM     21  O   UNL     1       5.829  17.362  22.195  0.00  0.00    +0.000 OA
ATOM     22  C   UNL     1       6.210  17.289  23.569  0.00  0.00    +0.000 C 
ENDBRANCH  10  21
BRANCH  14  23
ATOM     23  C   UNL     1       9.560  10.776  19.384  0.00  0.00    +0.000 C 
BRANCH  23  24
ATOM     24  N   UNL     1       9.077   9.447  19.081  0.00  0.00    +0.000 N 
ATOM     25  C   UNL     1       8.205   9.190  18.045  0.00  0.00    +0.000 C 
ATOM     26  O   UNL     1       7.782  10.068  17.301  0.00  0.00    +0.000 OA
ATOM     27  H   UNL     1       9.422   8.650  19.602  0.00  0.00    +0.000 HD
BRANCH  25  28
ATOM     28  C   UNL     1       7.843   7.794  17.921  0.00  0.00    +0.000 A 
ATOM     29  C   UNL     1       8.101   6.715  18.743  0.00  0.00    +0.000 A 
ATOM     30  C   UNL     1       7.517   5.584  18.128  0.00  0.00    +0.000 A 
ATOM     31  C   UNL     1       6.938   6.036  16.964  0.00  0.00    +0.000 A 
ATOM     32  O   UNL     1       7.126   7.373  16.826  0.00  0.00    +0.000 OA
ENDBRANCH  25  28
ENDBRANCH  23  24
ENDBRANCH  14  23
TORSDOF 6
ENDMDL
MODEL 3
REMARK VINA RESULT:      -6.4      8.728     12.540
REMARK  Name = 
REMARK  8 active torsions:
REMARK  status: ('A' for Active; 'I' for Inactive)
REMARK    1  A    between atoms: C_1  and  O_2
REMARK    2  A    between atoms: O_2  and  C_3
REMARK    3  A    between atoms: C_9  and  N_10
REMARK    4  A    between atoms: C_13  and  O_14
REMARK    5  A    between atoms: O_14  and  C_15
REMARK    6  A    between atoms: C_19  and  C_20
REMARK    7  A    between atoms: C_20  and  N_21
REMARK    8  A    between atoms: C_22  and  C_24
REMARK                            x       y       z     vdW  Elec       q    Type
REMARK                         _______ _______ _______ _____ _____    ______ ____
ROOT
ATOM      1  C   UNL     1       0.307  11.031  19.515  0.00  0.00    +0.000 A 
ATOM      2  C   UNL     1      -0.716  10.956  20.467  0.00  0.00    +0.000 A 
ATOM      3  C   UNL     1      -0.929  11.948  21.407  0.00  0.00    +0.000 A 
ATOM      4  N   UNL     1      -1.965  11.799  22.235  0.00  0.00    +0.000 NA
ATOM      5  C   UNL     1      -2.193  12.744  23.174  0.00  0.00    +0.000 A 
ATOM      6  C   UNL     1      -1.402  13.887  23.314  0.00  0.00    +0.000 A 
ATOM      7  C   UNL     1      -0.362  14.079  22.383  0.00  0.00    +0.000 A 
ATOM      8  C   UNL     1      -0.073  13.056  21.442  0.00  0.00    +0.000 A 
ATOM      9  C   UNL     1       1.002  13.101  20.522  0.00  0.00    +0.000 A 
ATOM     10  C   UNL     1       1.199  12.112  19.553  0.00  0.00    +0.000 A 
ATOM     11  C   UNL     1      -1.735  14.894  24.386  0.00  0.00    +0.000 C 
ATOM     12  C   UNL     1      -3.027  15.649  24.075  0.00  0.00    +0.000 C 
ATOM     13  C   UNL     1      -4.279  14.879  24.502  0.00  0.00    +0.000 C 
ATOM     14  C   UNL     1      -4.546  13.555  23.758  0.00  0.00    +0.000 C 
ATOM     15  C   UNL     1      -3.433  12.517  24.003  0.00  0.00    +0.000 C 
ENDROOT
BRANCH   7  16
ATOM     16  N   UNL     1       0.522  15.180  22.520  0.00  0.00    +0.000 N 
ATOM     17  H   UNL     1       1.273  15.192  21.834  0.00  0.00    +0.000 HD
ATOM     18  H   UNL     1       0.912  15.285  23.442  0.00  0.00    +0.000 HD
ENDBRANCH   7  16
BRANCH   1  20
ATOM     19  C   UNL     1      -0.646   9.855  17.705  0.00  0.00    +0.000 C 
ATOM     20  O   UNL     1       0.485  10.063  18.554  0.00  0.00    +0.000 OA
ENDBRANCH   1  20
BRANCH  10  21
ATOM     21  O   UNL     1       2.213  12.156  18.628  0.00  0.00    +0.000 OA
ATOM     22  C   UNL     1       2.537  13.437  18.089  0.00  0.00    +0.000 C 
ENDBRANCH  10  21
BRANCH  14  23
ATOM     23  C   UNL     1      -4.823  13.748  22.254  0.00  0.00    +0.000 C 
BRANCH  23  24
ATOM     24  N   UNL     1      -5.307  12.537  21.628  0.00  0.00    +0.000 N 
ATOM     25  C   UNL     1      -6.609  12.388  21.203  0.00  0.00    +0.000 C 
ATOM     26  O   UNL     1      -7.450  13.274  21.317  0.00  0.00    +0.000 OA
ATOM     27  H   UNL     1      -4.669  11.775  21.434  0.00  0.00    +0.000 HD
BRANCH  25  28
ATOM     28  C   UNL     1      -6.885  11.097  20.610  0.00  0.00    +0.000 A 
ATOM     29  C   UNL     1      -6.628  10.608  19.345  0.00  0.00    +0.000 A 
ATOM     30  C   UNL     1      -7.121   9.284  19.310  0.00  0.00    +0.000 A 
ATOM     31  C   UNL     1      -7.654   9.041  20.555  0.00  0.00    +0.000 A 
ATOM     32  O   UNL     1      -7.517  10.129  21.354  0.00  0.00    +0.000 OA
ENDBRANCH  25  28
ENDBRANCH  23  24
ENDBRANCH  14  23
TORSDOF 6
ENDMDL
MODEL 4
REMARK VINA RESULT:      -6.3      9.360     13.172
REMARK  Name = 
REMARK  8 active torsions:
REMARK  status: ('A' for Active; 'I' for Inactive)
REMARK    1  A    between atoms: C_1  and  O_2
REMARK    2  A    between atoms: O_2  and  C_3
REMARK    3  A    between atoms: C_9  and  N_10
REMARK    4  A    between atoms: C_13  and  O_14
REMARK    5  A    between atoms: O_14  and  C_15
REMARK    6  A    between atoms: C_19  and  C_20
REMARK    7  A    between atoms: C_20  and  N_21
REMARK    8  A    between atoms: C_22  and  C_24
REMARK                            x       y       z     vdW  Elec       q    Type
REMARK                         _______ _______ _______ _____ _____    ______ ____
ROOT
ATOM      1  C   UNL     1       0.151  11.391  20.933  0.00  0.00    +0.000 A 
ATOM      2  C   UNL     1      -1.023  11.310  21.692  0.00  0.00    +0.000 A 
ATOM      3  C   UNL     1      -1.544  12.397  22.370  0.00  0.00    +0.000 A 
ATOM      4  N   UNL     1      -2.696  12.222  23.020  0.00  0.00    +0.000 NA
ATOM      5  C   UNL     1      -3.226  13.260  23.704  0.00  0.00    +0.000 A 
ATOM      6  C   UNL     1      -2.631  14.525  23.752  0.00  0.00    +0.000 A 
ATOM      7  C   UNL     1      -1.461  14.725  22.995  0.00  0.00    +0.000 A 
ATOM      8  C   UNL     1      -0.862  13.620  22.335  0.00  0.00    +0.000 A 
ATOM      9  C   UNL     1       0.360  13.685  21.622  0.00  0.00    +0.000 A 
ATOM     10  C   UNL     1       0.871  12.593  20.913  0.00  0.00    +0.000 A 
ATOM     11  C   UNL     1      -3.298  15.628  24.534  0.00  0.00    +0.000 C 
ATOM     12  C   UNL     1      -4.589  16.101  23.865  0.00  0.00    +0.000 C 
ATOM     13  C   UNL     1      -5.790  15.219  24.212  0.00  0.00    +0.000 C 
ATOM     14  C   UNL     1      -5.732  13.764  23.705  0.00  0.00    +0.000 C 
ATOM     15  C   UNL     1      -4.566  12.976  24.335  0.00  0.00    +0.000 C 
ENDROOT
BRANCH   7  16
ATOM     16  N   UNL     1      -0.771  15.962  23.063  0.00  0.00    +0.000 N 
ATOM     17  H   UNL     1      -1.294  16.746  22.681  0.00  0.00    +0.000 HD
ATOM     18  H   UNL     1       0.149  15.946  22.655  0.00  0.00    +0.000 HD
ENDBRANCH   7  16
BRANCH   1  20
ATOM     19  C   UNL     1       0.053  10.144  18.932  0.00  0.00    +0.000 C 
ATOM     20  O   UNL     1       0.639  10.318  20.224  0.00  0.00    +0.000 OA
ENDBRANCH   1  20
BRANCH  10  21
ATOM     21  O   UNL     1       2.034  12.646  20.185  0.00  0.00    +0.000 OA
ATOM     22  C   UNL     1       2.069  13.565  19.093  0.00  0.00    +0.000 C 
ENDBRANCH  10  21
BRANCH  14  23
ATOM     23  C   UNL     1      -5.727  13.655  22.168  0.00  0.00    +0.000 C 
BRANCH  23  24
ATOM     24  N   UNL     1      -6.037  12.317  21.714  0.00  0.00    +0.000 N 
ATOM     25  C   UNL     1      -6.984  12.060  20.746  0.00  0.00    +0.000 C 
ATOM     26  O   UNL     1      -7.627  12.947  20.195  0.00  0.00    +0.000 OA
ATOM     27  H   UNL     1      -5.512  11.526  22.067  0.00  0.00    +0.000 HD
BRANCH  25  28
ATOM     28  C   UNL     1      -7.143  10.654  20.445  0.00  0.00    +0.000 A 
ATOM     29  C   UNL     1      -6.869   9.938  19.296  0.00  0.00    +0.000 A 
ATOM     30  C   UNL     1      -7.227   8.595  19.557  0.00  0.00    +0.000 A 
ATOM     31  C   UNL     1      -7.702   8.568  20.848  0.00  0.00    +0.000 A 
ATOM     32  O   UNL     1      -7.656   9.807  21.399  0.00  0.00    +0.000 OA
ENDBRANCH  25  28
ENDBRANCH  23  24
ENDBRANCH  14  23
TORSDOF 6
ENDMDL
MODEL 5
REMARK VINA RESULT:      -6.2      5.364     10.289
REMARK  Name = 
REMARK  8 active torsions:
REMARK  status: ('A' for Active; 'I' for Inactive)
REMARK    1  A    between atoms: C_1  and  O_2
REMARK    2  A    between atoms: O_2  and  C_3
REMARK    3  A    between atoms: C_9  and  N_10
REMARK    4  A    between atoms: C_13  and  O_14
REMARK    5  A    between atoms: O_14  and  C_15
REMARK    6  A    between atoms: C_19  and  C_20
REMARK    7  A    between atoms: C_20  and  N_21
REMARK    8  A    between atoms: C_22  and  C_24
REMARK                            x       y       z     vdW  Elec       q    Type
REMARK                         _______ _______ _______ _____ _____    ______ ____
ROOT
ATOM      1  C   UNL     1       4.511   6.966  17.194  0.00  0.00    +0.000 A 
ATOM      2  C   UNL     1       3.487   7.920  17.244  0.00  0.00    +0.000 A 
ATOM      3  C   UNL     1       2.597   7.999  18.300  0.00  0.00    +0.000 A 
ATOM      4  N   UNL     1       1.693   8.979  18.271  0.00  0.00    +0.000 NA
ATOM      5  C   UNL     1       0.800   9.076  19.280  0.00  0.00    +0.000 A 
ATOM      6  C   UNL     1       0.785   8.203  20.372  0.00  0.00    +0.000 A 
ATOM      7  C   UNL     1       1.794   7.223  20.438  0.00  0.00    +0.000 A 
ATOM      8  C   UNL     1       2.689   7.071  19.346  0.00  0.00    +0.000 A 
ATOM      9  C   UNL     1       3.682   6.066  19.264  0.00  0.00    +0.000 A 
ATOM     10  C   UNL     1       4.600   6.005  18.210  0.00  0.00    +0.000 A 
ATOM     11  C   UNL     1      -0.244   8.391  21.458  0.00  0.00    +0.000 C 
ATOM     12  C   UNL     1       0.022   9.650  22.283  0.00  0.00    +0.000 C 
ATOM     13  C   UNL     1      -0.536  10.915  21.627  0.00  0.00    +0.000 C 
ATOM     14  C   UNL     1       0.106  11.321  20.285  0.00  0.00    +0.000 C 
ATOM     15  C   UNL     1      -0.125  10.265  19.187  0.00  0.00    +0.000 C 
ENDROOT
BRANCH   7  16
ATOM     16  N   UNL     1       1.786   6.262  21.481  0.00  0.00    +0.000 N 
ATOM     17  H   UNL     1       2.328   6.536  22.297  0.00  0.00    +0.000 HD
ATOM     18  H   UNL     1       2.065   5.338  21.193  0.00  0.00    +0.000 HD
ENDBRANCH   7  16
BRANCH   1  20
ATOM     19  C   UNL     1       5.252   5.822  15.268  0.00  0.00    +0.000 C 
ATOM     20  O   UNL     1       5.420   6.923  16.164  0.00  0.00    +0.000 OA
ENDBRANCH   1  20
BRANCH  10  21
ATOM     21  O   UNL     1       5.594   5.060  18.132  0.00  0.00    +0.000 OA
ATOM     22  C   UNL     1       6.758   5.283  18.927  0.00  0.00    +0.000 C 
ENDBRANCH  10  21
BRANCH  14  23
ATOM     23  C   UNL     1       1.596  11.694  20.412  0.00  0.00    +0.000 C 
BRANCH  23  24
ATOM     24  N   UNL     1       1.878  13.009  19.878  0.00  0.00    +0.000 N 
ATOM     25  C   UNL     1       2.444  13.201  18.636  0.00  0.00    +0.000 C 
ATOM     26  O   UNL     1       2.742  12.273  17.891  0.00  0.00    +0.000 OA
ATOM     27  H   UNL     1       1.608  13.836  20.394  0.00  0.00    +0.000 HD
BRANCH  25  28
ATOM     28  C   UNL     1       2.648  14.593  18.297  0.00  0.00    +0.000 A 
ATOM     29  C   UNL     1       3.643  15.210  17.565  0.00  0.00    +0.000 A 
ATOM     30  C   UNL     1       3.349  16.593  17.560  0.00  0.00    +0.000 A 
ATOM     31  C   UNL     1       2.194  16.742  18.291  0.00  0.00    +0.000 A 
ATOM     32  O   UNL     1       1.756  15.539  18.743  0.00  0.00    +0.000 OA
ENDBRANCH  25  28
ENDBRANCH  23  24
ENDBRANCH  14  23
TORSDOF 6
ENDMDL
MODEL 6
REMARK VINA RESULT:      -6.2      8.633     13.396
REMARK  Name = 
REMARK  8 active torsions:
REMARK  status: ('A' for Active; 'I' for Inactive)
REMARK    1  A    between atoms: C_1  and  O_2
REMARK    2  A    between atoms: O_2  and  C_3
REMARK    3  A    between atoms: C_9  and  N_10
REMARK    4  A    between atoms: C_13  and  O_14
REMARK    5  A    between atoms: O_14  and  C_15
REMARK    6  A    between atoms: C_19  and  C_20
REMARK    7  A    between atoms: C_20  and  N_21
REMARK    8  A    between atoms: C_22  and  C_24
REMARK                            x       y       z     vdW  Elec       q    Type
REMARK                         _______ _______ _______ _____ _____    ______ ____
ROOT
ATOM      1  C   UNL     1       0.284  12.131  19.945  0.00  0.00    +0.000 A 
ATOM      2  C   UNL     1      -0.918  12.823  20.135  0.00  0.00    +0.000 A 
ATOM      3  C   UNL     1      -2.114  12.395  19.587  0.00  0.00    +0.000 A 
ATOM      4  N   UNL     1      -3.210  13.100  19.873  0.00  0.00    +0.000 NA
ATOM      5  C   UNL     1      -4.392  12.717  19.343  0.00  0.00    +0.000 A 
ATOM      6  C   UNL     1      -4.530  11.600  18.515  0.00  0.00    +0.000 A 
ATOM      7  C   UNL     1      -3.386  10.812  18.285  0.00  0.00    +0.000 A 
ATOM      8  C   UNL     1      -2.129  11.250  18.779  0.00  0.00    +0.000 A 
ATOM      9  C   UNL     1      -0.902  10.588  18.533  0.00  0.00    +0.000 A 
ATOM     10  C   UNL     1       0.302  11.005  19.111  0.00  0.00    +0.000 A 
ATOM     11  C   UNL     1      -5.891  11.241  17.973  0.00  0.00    +0.000 C 
ATOM     12  C   UNL     1      -6.822  10.724  19.070  0.00  0.00    +0.000 C 
ATOM     13  C   UNL     1      -7.502  11.852  19.848  0.00  0.00    +0.000 C 
ATOM     14  C   UNL     1      -6.571  12.758  20.679  0.00  0.00    +0.000 C 
ATOM     15  C   UNL     1      -5.577  13.536  19.794  0.00  0.00    +0.000 C 
ENDROOT
BRANCH   7  16
ATOM     16  N   UNL     1      -3.446   9.711  17.393  0.00  0.00    +0.000 N 
ATOM     17  H   UNL     1      -4.125   9.002  17.660  0.00  0.00    +0.000 HD
ATOM     18  H   UNL     1      -2.557   9.270  17.219  0.00  0.00    +0.000 HD
ENDBRANCH   7  16
BRANCH   1  20
ATOM     19  C   UNL     1       1.427  13.857  21.079  0.00  0.00    +0.000 C 
ATOM     20  O   UNL     1       1.461  12.537  20.531  0.00  0.00    +0.000 OA
ENDBRANCH   1  20
BRANCH  10  21
ATOM     21  O   UNL     1       1.496  10.355  18.916  0.00  0.00    +0.000 OA
ATOM     22  C   UNL     1       1.499   9.286  17.970  0.00  0.00    +0.000 C 
ENDBRANCH  10  21
BRANCH  14  23
ATOM     23  C   UNL     1      -5.854  12.011  21.820  0.00  0.00    +0.000 C 
BRANCH  23  24
ATOM     24  N   UNL     1      -4.768  12.784  22.382  0.00  0.00    +0.000 N 
ATOM     25  C   UNL     1      -4.453  12.758  23.724  0.00  0.00    +0.000 C 
ATOM     26  O   UNL     1      -5.064  12.071  24.536  0.00  0.00    +0.000 OA
ATOM     27  H   UNL     1      -4.168  13.331  21.778  0.00  0.00    +0.000 HD
BRANCH  25  28
ATOM     28  C   UNL     1      -3.337  13.609  24.078  0.00  0.00    +0.000 A 
ATOM     29  C   UNL     1      -2.079  13.729  23.522  0.00  0.00    +0.000 A 
ATOM     30  C   UNL     1      -1.393  14.710  24.274  0.00  0.00    +0.000 A 
ATOM     31  C   UNL     1      -2.270  15.131  25.246  0.00  0.00    +0.000 A 
ATOM     32  O   UNL     1      -3.453  14.475  25.139  0.00  0.00    +0.000 OA
ENDBRANCH  25  28
ENDBRANCH  23  24
ENDBRANCH  14  23
TORSDOF 6
ENDMDL
MODEL 7
REMARK VINA RESULT:      -6.2      5.067     10.233
REMARK  Name = 
REMARK  8 active torsions:
REMARK  status: ('A' for Active; 'I' for Inactive)
REMARK    1  A    between atoms: C_1  and  O_2
REMARK    2  A    between atoms: O_2  and  C_3
REMARK    3  A    between atoms: C_9  and  N_10
REMARK    4  A    between atoms: C_13  and  O_14
REMARK    5  A    between atoms: O_14  and  C_15
REMARK    6  A    between atoms: C_19  and  C_20
REMARK    7  A    between atoms: C_20  and  N_21
REMARK    8  A    between atoms: C_22  and  C_24
REMARK                            x       y       z     vdW  Elec       q    Type
REMARK                         _______ _______ _______ _____ _____    ______ ____
ROOT
ATOM      1  C   UNL     1       2.746   6.935  18.403  0.00  0.00    +0.000 A 
ATOM      2  C   UNL     1       2.208   8.152  17.968  0.00  0.00    +0.000 A 
ATOM      3  C   UNL     1       1.529   9.009  18.816  0.00  0.00    +0.000 A 
ATOM      4  N   UNL     1       1.103  10.167  18.309  0.00  0.00    +0.000 NA
ATOM      5  C   UNL     1       0.425  11.021  19.106  0.00  0.00    +0.000 A 
ATOM      6  C   UNL     1       0.158  10.758  20.453  0.00  0.00    +0.000 A 
ATOM      7  C   UNL     1       0.683   9.572  21.003  0.00  0.00    +0.000 A 
ATOM      8  C   UNL     1       1.333   8.639  20.152  0.00  0.00    +0.000 A 
ATOM      9  C   UNL     1       1.819   7.379  20.577  0.00  0.00    +0.000 A 
ATOM     10  C   UNL     1       2.530   6.526  19.726  0.00  0.00    +0.000 A 
ATOM     11  C   UNL     1      -0.600  11.772  21.271  0.00  0.00    +0.000 C 
ATOM     12  C   UNL     1       0.231  13.029  21.532  0.00  0.00    +0.000 C 
ATOM     13  C   UNL     1       0.177  14.023  20.370  0.00  0.00    +0.000 C 
ATOM     14  C   UNL     1       0.801  13.548  19.042  0.00  0.00    +0.000 C 
ATOM     15  C   UNL     1       0.059  12.332  18.455  0.00  0.00    +0.000 C 
ENDROOT
BRANCH   7  16
ATOM     16  N   UNL     1       0.382   9.214  22.342  0.00  0.00    +0.000 N 
ATOM     17  H   UNL     1       1.171   9.299  22.977  0.00  0.00    +0.000 HD
ATOM     18  H   UNL     1      -0.028   8.299  22.443  0.00  0.00    +0.000 HD
ENDBRANCH   7  16
BRANCH   1  20
ATOM     19  C   UNL     1       4.715   6.641  17.137  0.00  0.00    +0.000 C 
ATOM     20  O   UNL     1       3.459   6.110  17.565  0.00  0.00    +0.000 OA
ENDBRANCH   1  20
BRANCH  10  21
ATOM     21  O   UNL     1       3.042   5.317  20.128  0.00  0.00    +0.000 OA
ATOM     22  C   UNL     1       2.205   4.506  20.952  0.00  0.00    +0.000 C 
ENDBRANCH  10  21
BRANCH  14  23
ATOM     23  C   UNL     1       2.318  13.298  19.139  0.00  0.00    +0.000 C 
BRANCH  23  24
ATOM     24  N   UNL     1       3.030  14.447  19.653  0.00  0.00    +0.000 N 
ATOM     25  C   UNL     1       3.703  15.332  18.837  0.00  0.00    +0.000 C 
ATOM     26  O   UNL     1       3.740  15.212  17.617  0.00  0.00    +0.000 OA
ATOM     27  H   UNL     1       3.002  14.662  20.642  0.00  0.00    +0.000 HD
BRANCH  25  28
ATOM     28  C   UNL     1       4.354  16.407  19.554  0.00  0.00    +0.000 A 
ATOM     29  C   UNL     1       3.932  17.162  20.632  0.00  0.00    +0.000 A 
ATOM     30  C   UNL     1       4.968  18.081  20.916  0.00  0.00    +0.000 A 
ATOM     31  C   UNL     1       5.961  17.837  19.995  0.00  0.00    +0.000 A 
ATOM     32  O   UNL     1       5.604  16.825  19.165  0.00  0.00    +0.000 OA
ENDBRANCH  25  28
ENDBRANCH  23  24
ENDBRANCH  14  23
TORSDOF 6
ENDMDL
MODEL 8
REMARK VINA RESULT:      -6.2      8.578     10.220
REMARK  Name = 
REMARK  8 active torsions:
REMARK  status: ('A' for Active; 'I' for Inactive)
REMARK    1  A    between atoms: C_1  and  O_2
REMARK    2  A    between atoms: O_2  and  C_3
REMARK    3  A    between atoms: C_9  and  N_10
REMARK    4  A    between atoms: C_13  and  O_14
REMARK    5  A    between atoms: O_14  and  C_15
REMARK    6  A    between atoms: C_19  and  C_20
REMARK    7  A    between atoms: C_20  and  N_21
REMARK    8  A    between atoms: C_22  and  C_24
REMARK                            x       y       z     vdW  Elec       q    Type
REMARK                         _______ _______ _______ _____ _____    ______ ____
ROOT
ATOM      1  C   UNL     1      -3.440  11.257  16.627  0.00  0.00    +0.000 A 
ATOM      2  C   UNL     1      -2.172  10.998  17.163  0.00  0.00    +0.000 A 
ATOM      3  C   UNL     1      -1.880  11.186  18.501  0.00  0.00    +0.000 A 
ATOM      4  N   UNL     1      -0.655  10.858  18.916  0.00  0.00    +0.000 NA
ATOM      5  C   UNL     1      -0.332  11.043  20.215  0.00  0.00    +0.000 A 
ATOM      6  C   UNL     1      -1.230  11.549  21.159  0.00  0.00    +0.000 A 
ATOM      7  C   UNL     1      -2.546  11.814  20.733  0.00  0.00    +0.000 A 
ATOM      8  C   UNL     1      -2.868  11.691  19.356  0.00  0.00    +0.000 A 
ATOM      9  C   UNL     1      -4.130  12.016  18.802  0.00  0.00    +0.000 A 
ATOM     10  C   UNL     1      -4.434  11.798  17.454  0.00  0.00    +0.000 A 
ATOM     11  C   UNL     1      -0.785  11.714  22.591  0.00  0.00    +0.000 C 
ATOM     12  C   UNL     1      -0.590  10.367  23.286  0.00  0.00    +0.000 C 
ATOM     13  C   UNL     1       0.781   9.749  23.001  0.00  0.00    +0.000 C 
ATOM     14  C   UNL     1       1.052   9.349  21.537  0.00  0.00    +0.000 C 
ATOM     15  C   UNL     1       1.049  10.566  20.592  0.00  0.00    +0.000 C 
ENDROOT
BRANCH   7  16
ATOM     16  N   UNL     1      -3.479  12.400  21.626  0.00  0.00    +0.000 N 
ATOM     17  H   UNL     1      -4.404  11.979  21.588  0.00  0.00    +0.000 HD
ATOM     18  H   UNL     1      -3.565  13.399  21.536  0.00  0.00    +0.000 HD
ENDBRANCH   7  16
BRANCH   1  20
ATOM     19  C   UNL     1      -2.865  10.096  14.656  0.00  0.00    +0.000 C 
ATOM     20  O   UNL     1      -3.736  11.024  15.305  0.00  0.00    +0.000 OA
ENDBRANCH   1  20
BRANCH  10  21
ATOM     21  O   UNL     1      -5.663  12.071  16.906  0.00  0.00    +0.000 OA
ATOM     22  C   UNL     1      -6.794  11.946  17.767  0.00  0.00    +0.000 C 
ENDBRANCH  10  21
BRANCH  14  23
ATOM     23  C   UNL     1       0.120   8.231  21.029  0.00  0.00    +0.000 C 
BRANCH  23  24
ATOM     24  N   UNL     1       0.774   6.941  21.012  0.00  0.00    +0.000 N 
ATOM     25  C   UNL     1       1.771   6.623  20.116  0.00  0.00    +0.000 C 
ATOM     26  O   UNL     1       2.182   7.414  19.273  0.00  0.00    +0.000 OA
ATOM     27  H   UNL     1       0.544   6.246  21.711  0.00  0.00    +0.000 HD
BRANCH  25  28
ATOM     28  C   UNL     1       2.284   5.278  20.265  0.00  0.00    +0.000 A 
ATOM     29  C   UNL     1       1.837   4.220  21.032  0.00  0.00    +0.000 A 
ATOM     30  C   UNL     1       2.724   3.144  20.799  0.00  0.00    +0.000 A 
ATOM     31  C   UNL     1       3.664   3.608  19.907  0.00  0.00    +0.000 A 
ATOM     32  O   UNL     1       3.409   4.898  19.573  0.00  0.00    +0.000 OA
ENDBRANCH  25  28
ENDBRANCH  23  24
ENDBRANCH  14  23
TORSDOF 6
ENDMDL
MODEL 9
REMARK VINA RESULT:      -6.2      8.173     11.245
REMARK  Name = 
REMARK  8 active torsions:
REMARK  status: ('A' for Active; 'I' for Inactive)
REMARK    1  A    between atoms: C_1  and  O_2
REMARK    2  A    between atoms: O_2  and  C_3
REMARK    3  A    between atoms: C_9  and  N_10
REMARK    4  A    between atoms: C_13  and  O_14
REMARK    5  A    between atoms: O_14  and  C_15
REMARK    6  A    between atoms: C_19  and  C_20
REMARK    7  A    between atoms: C_20  and  N_21
REMARK    8  A    between atoms: C_22  and  C_24
REMARK                            x       y       z     vdW  Elec       q    Type
REMARK                         _______ _______ _______ _____ _____    ______ ____
ROOT
ATOM      1  C   UNL     1      -5.405  12.732  21.363  0.00  0.00    +0.000 A 
ATOM      2  C   UNL     1      -4.458  13.225  20.458  0.00  0.00    +0.000 A 
ATOM      3  C   UNL     1      -3.213  13.675  20.859  0.00  0.00    +0.000 A 
ATOM      4  N   UNL     1      -2.367  14.075  19.909  0.00  0.00    +0.000 NA
ATOM      5  C   UNL     1      -1.148  14.534  20.267  0.00  0.00    +0.000 A 
ATOM      6  C   UNL     1      -0.717  14.595  21.596  0.00  0.00    +0.000 A 
ATOM      7  C   UNL     1      -1.582  14.093  22.587  0.00  0.00    +0.000 A 
ATOM      8  C   UNL     1      -2.890  13.678  22.223  0.00  0.00    +0.000 A 
ATOM      9  C   UNL     1      -3.872  13.242  23.144  0.00  0.00    +0.000 A 
ATOM     10  C   UNL     1      -5.120  12.760  22.735  0.00  0.00    +0.000 A 
ATOM     11  C   UNL     1       0.665  15.114  21.904  0.00  0.00    +0.000 C 
ATOM     12  C   UNL     1       1.754  14.144  21.444  0.00  0.00    +0.000 C 
ATOM     13  C   UNL     1       2.097  14.302  19.961  0.00  0.00    +0.000 C 
ATOM     14  C   UNL     1       0.973  13.951  18.965  0.00  0.00    +0.000 C 
ATOM     15  C   UNL     1      -0.244  14.885  19.111  0.00  0.00    +0.000 C 
ENDROOT
BRANCH   7  16
ATOM     16  N   UNL     1      -1.232  14.197  23.957  0.00  0.00    +0.000 N 
ATOM     17  H   UNL     1      -1.822  13.645  24.575  0.00  0.00    +0.000 HD
ATOM     18  H   UNL     1      -1.185  15.143  24.301  0.00  0.00    +0.000 HD
ENDBRANCH   7  16
BRANCH   1  20
ATOM     19  C   UNL     1      -6.549  11.236  19.941  0.00  0.00    +0.000 C 
ATOM     20  O   UNL     1      -6.623  12.243  20.952  0.00  0.00    +0.000 OA
ENDBRANCH   1  20
BRANCH  10  21
ATOM     21  O   UNL     1      -6.072  12.297  23.610  0.00  0.00    +0.000 OA
ATOM     22  C   UNL     1      -6.960  13.266  24.167  0.00  0.00    +0.000 C 
ENDBRANCH  10  21
BRANCH  14  23
ATOM     23  C   UNL     1       0.561  12.467  19.010  0.00  0.00    +0.000 C 
BRANCH  23  24
ATOM     24  N   UNL     1      -0.557  12.184  18.137  0.00  0.00    +0.000 N 
ATOM     25  C   UNL     1      -1.327  11.047  18.260  0.00  0.00    +0.000 C 
ATOM     26  O   UNL     1      -1.125  10.198  19.121  0.00  0.00    +0.000 OA
ATOM     27  H   UNL     1      -0.839  12.858  17.437  0.00  0.00    +0.000 HD
BRANCH  25  28
ATOM     28  C   UNL     1      -2.391  10.955  17.282  0.00  0.00    +0.000 A 
ATOM     29  C   UNL     1      -2.445  10.310  16.062  0.00  0.00    +0.000 A 
ATOM     30  C   UNL     1      -3.728  10.561  15.525  0.00  0.00    +0.000 A 
ATOM     31  C   UNL     1      -4.382  11.347  16.445  0.00  0.00    +0.000 A 
ATOM     32  O   UNL     1      -3.586  11.592  17.516  0.00  0.00    +0.000 OA
ENDBRANCH  25  28
ENDBRANCH  23  24
ENDBRANCH  14  23
TORSDOF 6
ENDMDL
