MODEL 1
REMARK VINA RESULT:      -6.1      0.000      0.000
REMARK  Name = 
REMARK  13 active torsions:
REMARK  status: ('A' for Active; 'I' for Inactive)
REMARK    1  A    between atoms: C_1  and  C_2
REMARK    2  A    between atoms: C_2  and  C_3
REMARK    3  A    between atoms: C_3  and  O_4
REMARK    4  A    between atoms: O_4  and  C_5
REMARK    5  A    between atoms: C_5  and  C_7
REMARK    6  A    between atoms: C_7  and  O_8
REMARK    7  A    between atoms: O_8  and  C_9
REMARK    8  A    between atoms: C_9  and  C_11
REMARK    9  A    between atoms: C_11  and  C_12
REMARK   10  A    between atoms: C_13  and  C_14
REMARK   11  A    between atoms: C_26  and  C_27
REMARK   12  A    between atoms: C_30  and  O_31
REMARK   13  A    between atoms: C_33  and  C_34
REMARK                            x       y       z     vdW  Elec       q    Type
REMARK                         _______ _______ _______ _____ _____    ______ ____
ROOT
ATOM      1  C   UNL     1       0.745  11.182  19.459  0.00  0.00    +0.000 C 
ATOM      2  C   UNL     1       1.464  12.149  20.444  0.00  0.00    +0.000 C 
ATOM      3  C   UNL     1       1.985  13.518  19.946  0.00  0.00    +0.000 C 
ATOM      4  C   UNL     1       0.282  12.434  21.378  0.00  0.00    +0.000 C 
ATOM      5  C   UNL     1      -0.926  12.607  20.392  0.00  0.00    +0.000 C 
ATOM      6  C   UNL     1      -2.284  12.086  20.925  0.00  0.00    +0.000 C 
ATOM      7  C   UNL     1      -2.568  12.854  22.223  0.00  0.00    +0.000 C 
ATOM      8  C   UNL     1      -4.007  12.649  22.578  0.00  0.00    +0.000 C 
ATOM      9  C   UNL     1      -4.844  13.259  21.486  0.00  0.00    +0.000 C 
ATOM     10  C   UNL     1      -5.784  14.166  21.796  0.00  0.00    +0.000 C 
ATOM     11  C   UNL     1      -7.076  13.788  21.183  0.00  0.00    +0.000 C 
ATOM     12  O   UNL     1      -7.917  14.607  20.855  0.00  0.00    +0.000 OA
ATOM     13  C   UNL     1      -7.242  12.278  21.048  0.00  0.00    +0.000 C 
ATOM     14  C   UNL     1      -6.152  11.552  20.632  0.00  0.00    +0.000 C 
ATOM     15  C   UNL     1      -4.945  12.419  20.196  0.00  0.00    +0.000 C 
ATOM     16  C   UNL     1      -5.577  12.926  18.837  0.00  0.00    +0.000 C 
ATOM     17  C   UNL     1      -3.368  12.297  19.811  0.00  0.00    +0.000 C 
ATOM     18  F   UNL     1      -3.076  13.619  19.387  0.00  0.00    +0.000 F 
ATOM     19  C   UNL     1      -3.038  11.461  18.545  0.00  0.00    +0.000 C 
ATOM     20  C   UNL     1      -1.583  11.014  18.410  0.00  0.00    +0.000 C 
ATOM     21  C   UNL     1      -0.516  11.973  19.011  0.00  0.00    +0.000 C 
ATOM     22  C   UNL     1      -0.287  13.094  17.957  0.00  0.00    +0.000 C 
ENDROOT
BRANCH   1  23
ATOM     23  C   UNL     1       1.551  10.479  18.355  0.00  0.00    +0.000 C 
ATOM     24  O   UNL     1       2.361  11.057  17.633  0.00  0.00    +0.000 OA
BRANCH  23  25
ATOM     25  O   UNL     1       1.290   9.148  18.279  0.00  0.00    +0.000 OA
BRANCH  25  26
ATOM     26  C   UNL     1       2.401   8.346  17.848  0.00  0.00    +0.000 C 
BRANCH  26  28
ATOM     27  C   UNL     1       2.635   6.508  19.507  0.00  0.00    +0.000 C 
ATOM     28  C   UNL     1       2.220   6.849  18.080  0.00  0.00    +0.000 C 
ENDBRANCH  26  28
ENDBRANCH  25  26
ENDBRANCH  23  25
ENDBRANCH   1  23
BRANCH  19  29
ATOM     29  O   UNL     1      -3.323  12.212  17.354  0.00  0.00    +0.000 OA
ATOM     30  H   UNL     1      -2.694  11.891  16.672  0.00  0.00    +0.000 HD
ENDBRANCH  19  29
BRANCH   1  31
ATOM     31  O   UNL     1       0.122  10.036  20.252  0.00  0.00    +0.000 OA
BRANCH  31  32
ATOM     32  C   UNL     1       0.648   9.332  21.275  0.00  0.00    +0.000 C 
ATOM     33  O   UNL     1       1.838   9.105  21.464  0.00  0.00    +0.000 OA
BRANCH  32  34
ATOM     34  C   UNL     1      -0.501   8.950  22.224  0.00  0.00    +0.000 C 
ATOM     35  C   UNL     1      -0.722   9.831  23.447  0.00  0.00    +0.000 C 
ENDBRANCH  32  34
ENDBRANCH  31  32
ENDBRANCH   1  31
TORSDOF 8
ENDMDL
MODEL 2
REMARK VINA RESULT:      -6.1      1.413      1.844
REMARK  Name = 
REMARK  13 active torsions:
REMARK  status: ('A' for Active; 'I' for Inactive)
REMARK    1  A    between atoms: C_1  and  C_2
REMARK    2  A    between atoms: C_2  and  C_3
REMARK    3  A    between atoms: C_3  and  O_4
REMARK    4  A    between atoms: O_4  and  C_5
REMARK    5  A    between atoms: C_5  and  C_7
REMARK    6  A    between atoms: C_7  and  O_8
REMARK    7  A    between atoms: O_8  and  C_9
REMARK    8  A    between atoms: C_9  and  C_11
REMARK    9  A    between atoms: C_11  and  C_12
REMARK   10  A    between atoms: C_13  and  C_14
REMARK   11  A    between atoms: C_26  and  C_27
REMARK   12  A    between atoms: C_30  and  O_31
REMARK   13  A    between atoms: C_33  and  C_34
REMARK                            x       y       z     vdW  Elec       q    Type
REMARK                         _______ _______ _______ _____ _____    ______ ____
ROOT
ATOM      1  C   UNL     1       0.376  11.112  19.481  0.00  0.00    +0.000 C 
ATOM      2  C   UNL     1       1.579  12.002  19.911  0.00  0.00    +0.000 C 
ATOM      3  C   UNL     1       2.056  13.155  18.998  0.00  0.00    +0.000 C 
ATOM      4  C   UNL     1       0.947  12.646  21.151  0.00  0.00    +0.000 C 
ATOM      5  C   UNL     1      -0.516  12.968  20.686  0.00  0.00    +0.000 C 
ATOM      6  C   UNL     1      -1.597  12.825  21.786  0.00  0.00    +0.000 C 
ATOM      7  C   UNL     1      -1.197  13.780  22.919  0.00  0.00    +0.000 C 
ATOM      8  C   UNL     1      -2.375  13.940  23.829  0.00  0.00    +0.000 C 
ATOM      9  C   UNL     1      -3.481  14.593  23.042  0.00  0.00    +0.000 C 
ATOM     10  C   UNL     1      -4.055  15.715  23.505  0.00  0.00    +0.000 C 
ATOM     11  C   UNL     1      -5.526  15.565  23.516  0.00  0.00    +0.000 C 
ATOM     12  O   UNL     1      -6.287  16.507  23.381  0.00  0.00    +0.000 OA
ATOM     13  C   UNL     1      -5.967  14.123  23.749  0.00  0.00    +0.000 C 
ATOM     14  C   UNL     1      -5.274  13.131  23.098  0.00  0.00    +0.000 C 
ATOM     15  C   UNL     1      -4.234  13.655  22.077  0.00  0.00    +0.000 C 
ATOM     16  C   UNL     1      -5.281  14.131  20.991  0.00  0.00    +0.000 C 
ATOM     17  C   UNL     1      -2.996  13.144  21.151  0.00  0.00    +0.000 C 
ATOM     18  F   UNL     1      -2.701  14.311  20.401  0.00  0.00    +0.000 F 
ATOM     19  C   UNL     1      -3.353  12.116  20.042  0.00  0.00    +0.000 C 
ATOM     20  C   UNL     1      -2.172  11.345  19.452  0.00  0.00    +0.000 C 
ATOM     21  C   UNL     1      -0.817  12.107  19.404  0.00  0.00    +0.000 C 
ATOM     22  C   UNL     1      -0.869  13.022  18.147  0.00  0.00    +0.000 C 
ENDROOT
BRANCH   1  23
ATOM     23  C   UNL     1       0.535  10.127  18.312  0.00  0.00    +0.000 C 
ATOM     24  O   UNL     1      -0.408   9.706  17.646  0.00  0.00    +0.000 OA
BRANCH  23  25
ATOM     25  O   UNL     1       1.830   9.792  18.079  0.00  0.00    +0.000 OA
BRANCH  25  26
ATOM     26  C   UNL     1       2.011   8.528  17.423  0.00  0.00    +0.000 C 
BRANCH  26  28
ATOM     27  C   UNL     1       2.878   6.385  18.340  0.00  0.00    +0.000 C 
ATOM     28  C   UNL     1       3.267   7.774  17.848  0.00  0.00    +0.000 C 
ENDBRANCH  26  28
ENDBRANCH  25  26
ENDBRANCH  23  25
ENDBRANCH   1  23
BRANCH  19  29
ATOM     29  O   UNL     1      -3.981  12.772  18.929  0.00  0.00    +0.000 OA
ATOM     30  H   UNL     1      -4.580  12.108  18.524  0.00  0.00    +0.000 HD
ENDBRANCH  19  29
BRANCH   1  31
ATOM     31  O   UNL     1      -0.036  10.231  20.657  0.00  0.00    +0.000 OA
BRANCH  31  32
ATOM     32  C   UNL     1       0.681   9.284  21.296  0.00  0.00    +0.000 C 
ATOM     33  O   UNL     1       1.387   8.431  20.771  0.00  0.00    +0.000 OA
BRANCH  32  34
ATOM     34  C   UNL     1       0.539   9.526  22.808  0.00  0.00    +0.000 C 
ATOM     35  C   UNL     1      -0.823   9.976  23.321  0.00  0.00    +0.000 C 
ENDBRANCH  32  34
ENDBRANCH  31  32
ENDBRANCH   1  31
TORSDOF 8
ENDMDL
MODEL 3
REMARK VINA RESULT:      -6.0      2.347      3.542
REMARK  Name = 
REMARK  13 active torsions:
REMARK  status: ('A' for Active; 'I' for Inactive)
REMARK    1  A    between atoms: C_1  and  C_2
REMARK    2  A    between atoms: C_2  and  C_3
REMARK    3  A    between atoms: C_3  and  O_4
REMARK    4  A    between atoms: O_4  and  C_5
REMARK    5  A    between atoms: C_5  and  C_7
REMARK    6  A    between atoms: C_7  and  O_8
REMARK    7  A    between atoms: O_8  and  C_9
REMARK    8  A    between atoms: C_9  and  C_11
REMARK    9  A    between atoms: C_11  and  C_12
REMARK   10  A    between atoms: C_13  and  C_14
REMARK   11  A    between atoms: C_26  and  C_27
REMARK   12  A    between atoms: C_30  and  O_31
REMARK   13  A    between atoms: C_33  and  C_34
REMARK                            x       y       z     vdW  Elec       q    Type
REMARK                         _______ _______ _______ _____ _____    ______ ____
ROOT
ATOM      1  C   UNL     1       0.479  11.403  19.480  0.00  0.00    +0.000 C 
ATOM      2  C   UNL     1       1.828  12.173  19.390  0.00  0.00    +0.000 C 
ATOM      3  C   UNL     1       2.129  13.069  18.165  0.00  0.00    +0.000 C 
ATOM      4  C   UNL     1       1.631  13.108  20.589  0.00  0.00    +0.000 C 
ATOM      5  C   UNL     1       0.130  13.549  20.463  0.00  0.00    +0.000 C 
ATOM      6  C   UNL     1      -0.605  13.756  21.809  0.00  0.00    +0.000 C 
ATOM      7  C   UNL     1       0.181  14.828  22.577  0.00  0.00    +0.000 C 
ATOM      8  C   UNL     1      -0.674  15.312  23.706  0.00  0.00    +0.000 C 
ATOM      9  C   UNL     1      -1.894  15.966  23.115  0.00  0.00    +0.000 C 
ATOM     10  C   UNL     1      -2.212  17.222  23.467  0.00  0.00    +0.000 C 
ATOM     11  C   UNL     1      -3.628  17.287  23.890  0.00  0.00    +0.000 C 
ATOM     12  O   UNL     1      -4.309  18.289  23.764  0.00  0.00    +0.000 OA
ATOM     13  C   UNL     1      -4.112  15.986  24.523  0.00  0.00    +0.000 C 
ATOM     14  C   UNL     1      -3.721  14.808  23.936  0.00  0.00    +0.000 C 
ATOM     15  C   UNL     1      -2.969  14.990  22.594  0.00  0.00    +0.000 C 
ATOM     16  C   UNL     1      -4.233  15.413  21.742  0.00  0.00    +0.000 C 
ATOM     17  C   UNL     1      -2.092  14.154  21.507  0.00  0.00    +0.000 C 
ATOM     18  F   UNL     1      -1.918  15.118  20.480  0.00  0.00    +0.000 F 
ATOM     19  C   UNL     1      -2.836  13.009  20.767  0.00  0.00    +0.000 C 
ATOM     20  C   UNL     1      -1.943  11.987  20.064  0.00  0.00    +0.000 C 
ATOM     21  C   UNL     1      -0.594  12.527  19.510  0.00  0.00    +0.000 C 
ATOM     22  C   UNL     1      -0.917  13.206  18.147  0.00  0.00    +0.000 C 
ENDROOT
BRANCH   1  23
ATOM     23  C   UNL     1       0.214  10.215  18.540  0.00  0.00    +0.000 C 
ATOM     24  O   UNL     1       1.101   9.617  17.936  0.00  0.00    +0.000 OA
BRANCH  23  25
ATOM     25  O   UNL     1      -1.101   9.885  18.468  0.00  0.00    +0.000 OA
BRANCH  25  26
ATOM     26  C   UNL     1      -1.608   9.740  17.132  0.00  0.00    +0.000 C 
BRANCH  26  28
ATOM     27  C   UNL     1      -3.148  10.832  15.513  0.00  0.00    +0.000 C 
ATOM     28  C   UNL     1      -3.016  10.292  16.932  0.00  0.00    +0.000 C 
ENDBRANCH  26  28
ENDBRANCH  25  26
ENDBRANCH  23  25
ENDBRANCH   1  23
BRANCH  19  29
ATOM     29  O   UNL     1      -3.692  13.542  19.743  0.00  0.00    +0.000 OA
ATOM     30  H   UNL     1      -4.528  13.030  19.792  0.00  0.00    +0.000 HD
ENDBRANCH  19  29
BRANCH   1  31
ATOM     31  O   UNL     1       0.338  10.809  20.879  0.00  0.00    +0.000 OA
BRANCH  31  32
ATOM     32  C   UNL     1       0.606   9.554  21.296  0.00  0.00    +0.000 C 
ATOM     33  O   UNL     1       1.559   8.864  20.953  0.00  0.00    +0.000 OA
BRANCH  32  34
ATOM     34  C   UNL     1      -0.438   9.179  22.361  0.00  0.00    +0.000 C 
ATOM     35  C   UNL     1      -0.993  10.304  23.226  0.00  0.00    +0.000 C 
ENDBRANCH  32  34
ENDBRANCH  31  32
ENDBRANCH   1  31
TORSDOF 8
ENDMDL
MODEL 4
REMARK VINA RESULT:      -5.9      2.152      2.856
REMARK  Name = 
REMARK  13 active torsions:
REMARK  status: ('A' for Active; 'I' for Inactive)
REMARK    1  A    between atoms: C_1  and  C_2
REMARK    2  A    between atoms: C_2  and  C_3
REMARK    3  A    between atoms: C_3  and  O_4
REMARK    4  A    between atoms: O_4  and  C_5
REMARK    5  A    between atoms: C_5  and  C_7
REMARK    6  A    between atoms: C_7  and  O_8
REMARK    7  A    between atoms: O_8  and  C_9
REMARK    8  A    between atoms: C_9  and  C_11
REMARK    9  A    between atoms: C_11  and  C_12
REMARK   10  A    between atoms: C_13  and  C_14
REMARK   11  A    between atoms: C_26  and  C_27
REMARK   12  A    between atoms: C_30  and  O_31
REMARK   13  A    between atoms: C_33  and  C_34
REMARK                            x       y       z     vdW  Elec       q    Type
REMARK                         _______ _______ _______ _____ _____    ______ ____
ROOT
ATOM      1  C   UNL     1       0.735  11.553  19.628  0.00  0.00    +0.000 C 
ATOM      2  C   UNL     1       2.028  12.419  19.595  0.00  0.00    +0.000 C 
ATOM      3  C   UNL     1       2.326  13.322  18.374  0.00  0.00    +0.000 C 
ATOM      4  C   UNL     1       1.702  13.349  20.770  0.00  0.00    +0.000 C 
ATOM      5  C   UNL     1       0.182  13.678  20.561  0.00  0.00    +0.000 C 
ATOM      6  C   UNL     1      -0.635  13.845  21.866  0.00  0.00    +0.000 C 
ATOM      7  C   UNL     1       0.031  14.979  22.657  0.00  0.00    +0.000 C 
ATOM      8  C   UNL     1      -0.914  15.410  23.735  0.00  0.00    +0.000 C 
ATOM      9  C   UNL     1      -2.146  15.967  23.073  0.00  0.00    +0.000 C 
ATOM     10  C   UNL     1      -2.573  17.200  23.392  0.00  0.00    +0.000 C 
ATOM     11  C   UNL     1      -4.009  17.166  23.741  0.00  0.00    +0.000 C 
ATOM     12  O   UNL     1      -4.754  18.114  23.568  0.00  0.00    +0.000 OA
ATOM     13  C   UNL     1      -4.430  15.840  24.367  0.00  0.00    +0.000 C 
ATOM     14  C   UNL     1      -3.925  14.687  23.817  0.00  0.00    +0.000 C 
ATOM     15  C   UNL     1      -3.120  14.910  22.513  0.00  0.00    +0.000 C 
ATOM     16  C   UNL     1      -4.365  15.231  21.592  0.00  0.00    +0.000 C 
ATOM     17  C   UNL     1      -2.129  14.129  21.483  0.00  0.00    +0.000 C 
ATOM     18  F   UNL     1      -1.974  15.093  20.453  0.00  0.00    +0.000 F 
ATOM     19  C   UNL     1      -2.750  12.926  20.722  0.00  0.00    +0.000 C 
ATOM     20  C   UNL     1      -1.750  11.965  20.080  0.00  0.00    +0.000 C 
ATOM     21  C   UNL     1      -0.417  12.596  19.587  0.00  0.00    +0.000 C 
ATOM     22  C   UNL     1      -0.718  13.236  18.201  0.00  0.00    +0.000 C 
ENDROOT
BRANCH   1  23
ATOM     23  C   UNL     1       0.606  10.340  18.692  0.00  0.00    +0.000 C 
ATOM     24  O   UNL     1      -0.470   9.829  18.388  0.00  0.00    +0.000 OA
BRANCH  23  25
ATOM     25  O   UNL     1       1.804   9.910  18.220  0.00  0.00    +0.000 OA
BRANCH  25  26
ATOM     26  C   UNL     1       1.794   8.573  17.696  0.00  0.00    +0.000 C 
BRANCH  26  28
ATOM     27  C   UNL     1       2.864   6.405  18.282  0.00  0.00    +0.000 C 
ATOM     28  C   UNL     1       3.124   7.838  17.827  0.00  0.00    +0.000 C 
ENDBRANCH  26  28
ENDBRANCH  25  26
ENDBRANCH  23  25
ENDBRANCH   1  23
BRANCH  19  29
ATOM     29  O   UNL     1      -3.588  13.384  19.649  0.00  0.00    +0.000 OA
ATOM     30  H   UNL     1      -3.159  13.082  18.819  0.00  0.00    +0.000 HD
ENDBRANCH  19  29
BRANCH   1  31
ATOM     31  O   UNL     1       0.566  10.965  21.026  0.00  0.00    +0.000 OA
BRANCH  31  32
ATOM     32  C   UNL     1       0.793   9.703  21.446  0.00  0.00    +0.000 C 
ATOM     33  O   UNL     1       1.781   9.022  21.194  0.00  0.00    +0.000 OA
BRANCH  32  34
ATOM     34  C   UNL     1      -0.357   9.305  22.386  0.00  0.00    +0.000 C 
ATOM     35  C   UNL     1      -1.014  10.414  23.197  0.00  0.00    +0.000 C 
ENDBRANCH  32  34
ENDBRANCH  31  32
ENDBRANCH   1  31
TORSDOF 8
ENDMDL
MODEL 5
REMARK VINA RESULT:      -5.7      1.889      2.936
REMARK  Name = 
REMARK  13 active torsions:
REMARK  status: ('A' for Active; 'I' for Inactive)
REMARK    1  A    between atoms: C_1  and  C_2
REMARK    2  A    between atoms: C_2  and  C_3
REMARK    3  A    between atoms: C_3  and  O_4
REMARK    4  A    between atoms: O_4  and  C_5
REMARK    5  A    between atoms: C_5  and  C_7
REMARK    6  A    between atoms: C_7  and  O_8
REMARK    7  A    between atoms: O_8  and  C_9
REMARK    8  A    between atoms: C_9  and  C_11
REMARK    9  A    between atoms: C_11  and  C_12
REMARK   10  A    between atoms: C_13  and  C_14
REMARK   11  A    between atoms: C_26  and  C_27
REMARK   12  A    between atoms: C_30  and  O_31
REMARK   13  A    between atoms: C_33  and  C_34
REMARK                            x       y       z     vdW  Elec       q    Type
REMARK                         _______ _______ _______ _____ _____    ______ ____
ROOT
ATOM      1  C   UNL     1      -0.321  11.754  20.484  0.00  0.00    +0.000 C 
ATOM      2  C   UNL     1       0.803  12.636  21.105  0.00  0.00    +0.000 C 
ATOM      3  C   UNL     1       1.400  13.813  20.299  0.00  0.00    +0.000 C 
ATOM      4  C   UNL     1      -0.006  13.247  22.256  0.00  0.00    +0.000 C 
ATOM      5  C   UNL     1      -1.389  13.578  21.592  0.00  0.00    +0.000 C 
ATOM      6  C   UNL     1      -2.616  13.405  22.520  0.00  0.00    +0.000 C 
ATOM      7  C   UNL     1      -2.390  14.331  23.723  0.00  0.00    +0.000 C 
ATOM      8  C   UNL     1      -3.688  14.466  24.455  0.00  0.00    +0.000 C 
ATOM      9  C   UNL     1      -4.672  15.136  23.533  0.00  0.00    +0.000 C 
ATOM     10  C   UNL     1      -5.314  16.244  23.935  0.00  0.00    +0.000 C 
ATOM     11  C   UNL     1      -6.770  16.091  23.730  0.00  0.00    +0.000 C 
ATOM     12  O   UNL     1      -7.509  17.034  23.510  0.00  0.00    +0.000 OA
ATOM     13  C   UNL     1      -7.232  14.643  23.861  0.00  0.00    +0.000 C 
ATOM     14  C   UNL     1      -6.446  13.669  23.294  0.00  0.00    +0.000 C 
ATOM     15  C   UNL     1      -5.273  14.220  22.446  0.00  0.00    +0.000 C 
ATOM     16  C   UNL     1      -6.154  14.721  21.232  0.00  0.00    +0.000 C 
ATOM     17  C   UNL     1      -3.911  13.735  21.698  0.00  0.00    +0.000 C 
ATOM     18  F   UNL     1      -3.518  14.922  21.026  0.00  0.00    +0.000 F 
ATOM     19  C   UNL     1      -4.097  12.735  20.524  0.00  0.00    +0.000 C 
ATOM     20  C   UNL     1      -2.839  11.982  20.092  0.00  0.00    +0.000 C 
ATOM     21  C   UNL     1      -1.495  12.748  20.260  0.00  0.00    +0.000 C 
ATOM     22  C   UNL     1      -1.371  13.694  19.031  0.00  0.00    +0.000 C 
ENDROOT
BRANCH   1  23
ATOM     23  C   UNL     1       0.012  10.799  19.326  0.00  0.00    +0.000 C 
ATOM     24  O   UNL     1       1.144  10.653  18.870  0.00  0.00    +0.000 OA
BRANCH  23  25
ATOM     25  O   UNL     1      -1.074  10.118  18.878  0.00  0.00    +0.000 OA
BRANCH  25  26
ATOM     26  C   UNL     1      -1.089   9.885  17.461  0.00  0.00    +0.000 C 
BRANCH  26  28
ATOM     27  C   UNL     1      -2.890  11.262  16.437  0.00  0.00    +0.000 C 
ATOM     28  C   UNL     1      -2.485   9.850  16.846  0.00  0.00    +0.000 C 
ENDBRANCH  26  28
ENDBRANCH  25  26
ENDBRANCH  23  25
ENDBRANCH   1  23
BRANCH  19  29
ATOM     29  O   UNL     1      -4.561  13.417  19.348  0.00  0.00    +0.000 OA
ATOM     30  H   UNL     1      -5.509  13.620  19.506  0.00  0.00    +0.000 HD
ENDBRANCH  19  29
BRANCH   1  31
ATOM     31  O   UNL     1      -0.893  10.843  21.566  0.00  0.00    +0.000 OA
BRANCH  31  32
ATOM     32  C   UNL     1      -0.248   9.962  22.358  0.00  0.00    +0.000 C 
ATOM     33  O   UNL     1       0.198  10.185  23.478  0.00  0.00    +0.000 OA
BRANCH  32  34
ATOM     34  C   UNL     1      -0.262   8.596  21.653  0.00  0.00    +0.000 C 
ATOM     35  C   UNL     1       1.082   7.999  21.256  0.00  0.00    +0.000 C 
ENDBRANCH  32  34
ENDBRANCH  31  32
ENDBRANCH   1  31
TORSDOF 8
ENDMDL
MODEL 6
REMARK VINA RESULT:      -5.7      1.779      2.393
REMARK  Name = 
REMARK  13 active torsions:
REMARK  status: ('A' for Active; 'I' for Inactive)
REMARK    1  A    between atoms: C_1  and  C_2
REMARK    2  A    between atoms: C_2  and  C_3
REMARK    3  A    between atoms: C_3  and  O_4
REMARK    4  A    between atoms: O_4  and  C_5
REMARK    5  A    between atoms: C_5  and  C_7
REMARK    6  A    between atoms: C_7  and  O_8
REMARK    7  A    between atoms: O_8  and  C_9
REMARK    8  A    between atoms: C_9  and  C_11
REMARK    9  A    between atoms: C_11  and  C_12
REMARK   10  A    between atoms: C_13  and  C_14
REMARK   11  A    between atoms: C_26  and  C_27
REMARK   12  A    between atoms: C_30  and  O_31
REMARK   13  A    between atoms: C_33  and  C_34
REMARK                            x       y       z     vdW  Elec       q    Type
REMARK                         _______ _______ _______ _____ _____    ______ ____
ROOT
ATOM      1  C   UNL     1       0.511  11.324  19.710  0.00  0.00    +0.000 C 
ATOM      2  C   UNL     1       1.759  12.229  19.928  0.00  0.00    +0.000 C 
ATOM      3  C   UNL     1       2.185  13.239  18.836  0.00  0.00    +0.000 C 
ATOM      4  C   UNL     1       1.235  13.048  21.114  0.00  0.00    +0.000 C 
ATOM      5  C   UNL     1      -0.254  13.347  20.719  0.00  0.00    +0.000 C 
ATOM      6  C   UNL     1      -1.250  13.380  21.904  0.00  0.00    +0.000 C 
ATOM      7  C   UNL     1      -0.747  14.464  22.867  0.00  0.00    +0.000 C 
ATOM      8  C   UNL     1      -1.849  14.776  23.831  0.00  0.00    +0.000 C 
ATOM      9  C   UNL     1      -3.000  15.349  23.047  0.00  0.00    +0.000 C 
ATOM     10  C   UNL     1      -3.517  16.538  23.397  0.00  0.00    +0.000 C 
ATOM     11  C   UNL     1      -4.985  16.431  23.536  0.00  0.00    +0.000 C 
ATOM     12  O   UNL     1      -5.738  17.368  23.334  0.00  0.00    +0.000 OA
ATOM     13  C   UNL     1      -5.433  15.046  23.992  0.00  0.00    +0.000 C 
ATOM     14  C   UNL     1      -4.810  13.958  23.430  0.00  0.00    +0.000 C 
ATOM     15  C   UNL     1      -3.842  14.313  22.274  0.00  0.00    +0.000 C 
ATOM     16  C   UNL     1      -4.960  14.671  21.214  0.00  0.00    +0.000 C 
ATOM     17  C   UNL     1      -2.687  13.650  21.337  0.00  0.00    +0.000 C 
ATOM     18  F   UNL     1      -2.430  14.700  20.418  0.00  0.00    +0.000 F 
ATOM     19  C   UNL     1      -3.145  12.496  20.405  0.00  0.00    +0.000 C 
ATOM     20  C   UNL     1      -2.027  11.622  19.837  0.00  0.00    +0.000 C 
ATOM     21  C   UNL     1      -0.666  12.332  19.589  0.00  0.00    +0.000 C 
ATOM     22  C   UNL     1      -0.799  13.075  18.228  0.00  0.00    +0.000 C 
ENDROOT
BRANCH   1  23
ATOM     23  C   UNL     1       0.563  10.190  18.674  0.00  0.00    +0.000 C 
ATOM     24  O   UNL     1      -0.432   9.742  18.107  0.00  0.00    +0.000 OA
BRANCH  23  25
ATOM     25  O   UNL     1       1.826   9.752  18.436  0.00  0.00    +0.000 OA
BRANCH  25  26
ATOM     26  C   UNL     1       1.903   8.524  17.694  0.00  0.00    +0.000 C 
BRANCH  26  28
ATOM     27  C   UNL     1       2.998   6.309  17.970  0.00  0.00    +0.000 C 
ATOM     28  C   UNL     1       3.242   7.805  17.810  0.00  0.00    +0.000 C 
ENDBRANCH  26  28
ENDBRANCH  25  26
ENDBRANCH  23  25
ENDBRANCH   1  23
BRANCH  19  29
ATOM     29  O   UNL     1      -3.845  13.016  19.263  0.00  0.00    +0.000 OA
ATOM     30  H   UNL     1      -4.214  13.883  19.540  0.00  0.00    +0.000 HD
ENDBRANCH  19  29
BRANCH   1  31
ATOM     31  O   UNL     1       0.174  10.617  21.020  0.00  0.00    +0.000 OA
BRANCH  31  32
ATOM     32  C   UNL     1       0.873   9.665  21.671  0.00  0.00    +0.000 C 
ATOM     33  O   UNL     1       1.796   9.851  22.457  0.00  0.00    +0.000 OA
BRANCH  32  34
ATOM     34  C   UNL     1       0.241   8.304  21.336  0.00  0.00    +0.000 C 
ATOM     35  C   UNL     1       1.185   7.148  21.030  0.00  0.00    +0.000 C 
ENDBRANCH  32  34
ENDBRANCH  31  32
ENDBRANCH   1  31
TORSDOF 8
ENDMDL
MODEL 7
REMARK VINA RESULT:      -5.6      2.892      7.555
REMARK  Name = 
REMARK  13 active torsions:
REMARK  status: ('A' for Active; 'I' for Inactive)
REMARK    1  A    between atoms: C_1  and  C_2
REMARK    2  A    between atoms: C_2  and  C_3
REMARK    3  A    between atoms: C_3  and  O_4
REMARK    4  A    between atoms: O_4  and  C_5
REMARK    5  A    between atoms: C_5  and  C_7
REMARK    6  A    between atoms: C_7  and  O_8
REMARK    7  A    between atoms: O_8  and  C_9
REMARK    8  A    between atoms: C_9  and  C_11
REMARK    9  A    between atoms: C_11  and  C_12
REMARK   10  A    between atoms: C_13  and  C_14
REMARK   11  A    between atoms: C_26  and  C_27
REMARK   12  A    between atoms: C_30  and  O_31
REMARK   13  A    between atoms: C_33  and  C_34
REMARK                            x       y       z     vdW  Elec       q    Type
REMARK                         _______ _______ _______ _____ _____    ______ ____
ROOT
ATOM      1  C   UNL     1      -4.132  14.538  22.673  0.00  0.00    +0.000 C 
ATOM      2  C   UNL     1      -4.982  15.010  21.457  0.00  0.00    +0.000 C 
ATOM      3  C   UNL     1      -4.655  16.350  20.756  0.00  0.00    +0.000 C 
ATOM      4  C   UNL     1      -4.607  13.891  20.477  0.00  0.00    +0.000 C 
ATOM      5  C   UNL     1      -3.065  13.709  20.706  0.00  0.00    +0.000 C 
ATOM      6  C   UNL     1      -2.551  12.255  20.569  0.00  0.00    +0.000 C 
ATOM      7  C   UNL     1      -2.917  11.794  19.151  0.00  0.00    +0.000 C 
ATOM      8  C   UNL     1      -2.142  10.548  18.854  0.00  0.00    +0.000 C 
ATOM      9  C   UNL     1      -0.678  10.902  18.863  0.00  0.00    +0.000 C 
ATOM     10  C   UNL     1       0.085  10.606  17.799  0.00  0.00    +0.000 C 
ATOM     11  C   UNL     1       1.297   9.877  18.231  0.00  0.00    +0.000 C 
ATOM     12  O   UNL     1       2.353   9.936  17.627  0.00  0.00    +0.000 OA
ATOM     13  C   UNL     1       1.059   9.029  19.477  0.00  0.00    +0.000 C 
ATOM     14  C   UNL     1       0.304   9.576  20.486  0.00  0.00    +0.000 C 
ATOM     15  C   UNL     1      -0.057  11.066  20.266  0.00  0.00    +0.000 C 
ATOM     16  C   UNL     1       1.390  11.640  20.549  0.00  0.00    +0.000 C 
ATOM     17  C   UNL     1      -1.011  12.243  20.864  0.00  0.00    +0.000 C 
ATOM     18  F   UNL     1      -0.576  13.368  20.116  0.00  0.00    +0.000 F 
ATOM     19  C   UNL     1      -0.718  12.680  22.325  0.00  0.00    +0.000 C 
ATOM     20  C   UNL     1      -1.832  13.470  23.013  0.00  0.00    +0.000 C 
ATOM     21  C   UNL     1      -2.702  14.368  22.088  0.00  0.00    +0.000 C 
ATOM     22  C   UNL     1      -1.892  15.678  21.858  0.00  0.00    +0.000 C 
ENDROOT
BRANCH   1  23
ATOM     23  C   UNL     1      -4.249  15.275  24.017  0.00  0.00    +0.000 C 
ATOM     24  O   UNL     1      -5.114  16.115  24.258  0.00  0.00    +0.000 OA
BRANCH  23  25
ATOM     25  O   UNL     1      -3.311  14.882  24.916  0.00  0.00    +0.000 OA
BRANCH  25  26
ATOM     26  C   UNL     1      -2.653  15.959  25.603  0.00  0.00    +0.000 C 
BRANCH  26  28
ATOM     27  C   UNL     1      -0.496  16.275  26.799  0.00  0.00    +0.000 C 
ATOM     28  C   UNL     1      -1.136  15.966  25.450  0.00  0.00    +0.000 C 
ENDBRANCH  26  28
ENDBRANCH  25  26
ENDBRANCH  23  25
ENDBRANCH   1  23
BRANCH  19  29
ATOM     29  O   UNL     1       0.442  13.525  22.377  0.00  0.00    +0.000 OA
ATOM     30  H   UNL     1       1.206  12.955  22.137  0.00  0.00    +0.000 HD
ENDBRANCH  19  29
BRANCH   1  31
ATOM     31  O   UNL     1      -4.499  13.095  23.007  0.00  0.00    +0.000 OA
BRANCH  31  32
ATOM     32  C   UNL     1      -5.385  12.636  23.915  0.00  0.00    +0.000 C 
ATOM     33  O   UNL     1      -5.116  12.131  24.999  0.00  0.00    +0.000 OA
BRANCH  32  34
ATOM     34  C   UNL     1      -6.798  12.952  23.396  0.00  0.00    +0.000 C 
ATOM     35  C   UNL     1      -7.726  13.729  24.321  0.00  0.00    +0.000 C 
ENDBRANCH  32  34
ENDBRANCH  31  32
ENDBRANCH   1  31
TORSDOF 8
ENDMDL
MODEL 8
REMARK VINA RESULT:      -5.6      2.735      7.964
REMARK  Name = 
REMARK  13 active torsions:
REMARK  status: ('A' for Active; 'I' for Inactive)
REMARK    1  A    between atoms: C_1  and  C_2
REMARK    2  A    between atoms: C_2  and  C_3
REMARK    3  A    between atoms: C_3  and  O_4
REMARK    4  A    between atoms: O_4  and  C_5
REMARK    5  A    between atoms: C_5  and  C_7
REMARK    6  A    between atoms: C_7  and  O_8
REMARK    7  A    between atoms: O_8  and  C_9
REMARK    8  A    between atoms: C_9  and  C_11
REMARK    9  A    between atoms: C_11  and  C_12
REMARK   10  A    between atoms: C_13  and  C_14
REMARK   11  A    between atoms: C_26  and  C_27
REMARK   12  A    between atoms: C_30  and  O_31
REMARK   13  A    between atoms: C_33  and  C_34
REMARK                            x       y       z     vdW  Elec       q    Type
REMARK                         _______ _______ _______ _____ _____    ______ ____
ROOT
ATOM      1  C   UNL     1      -4.242  14.555  22.746  0.00  0.00    +0.000 C 
ATOM      2  C   UNL     1      -5.080  15.056  21.533  0.00  0.00    +0.000 C 
ATOM      3  C   UNL     1      -4.742  16.408  20.862  0.00  0.00    +0.000 C 
ATOM      4  C   UNL     1      -4.705  13.955  20.534  0.00  0.00    +0.000 C 
ATOM      5  C   UNL     1      -3.166  13.760  20.770  0.00  0.00    +0.000 C 
ATOM      6  C   UNL     1      -2.659  12.306  20.607  0.00  0.00    +0.000 C 
ATOM      7  C   UNL     1      -3.018  11.875  19.177  0.00  0.00    +0.000 C 
ATOM      8  C   UNL     1      -2.248  10.632  18.860  0.00  0.00    +0.000 C 
ATOM      9  C   UNL     1      -0.782  10.977  18.886  0.00  0.00    +0.000 C 
ATOM     10  C   UNL     1      -0.014  10.698  17.822  0.00  0.00    +0.000 C 
ATOM     11  C   UNL     1       1.191   9.953  18.247  0.00  0.00    +0.000 C 
ATOM     12  O   UNL     1       2.252  10.018  17.652  0.00  0.00    +0.000 OA
ATOM     13  C   UNL     1       0.941   9.082  19.474  0.00  0.00    +0.000 C 
ATOM     14  C   UNL     1       0.182   9.613  20.488  0.00  0.00    +0.000 C 
ATOM     15  C   UNL     1      -0.170  11.109  20.296  0.00  0.00    +0.000 C 
ATOM     16  C   UNL     1       1.278  11.669  20.600  0.00  0.00    +0.000 C 
ATOM     17  C   UNL     1      -1.121  12.279  20.911  0.00  0.00    +0.000 C 
ATOM     18  F   UNL     1      -0.675  13.416  20.190  0.00  0.00    +0.000 F 
ATOM     19  C   UNL     1      -0.836  12.685  22.383  0.00  0.00    +0.000 C 
ATOM     20  C   UNL     1      -1.950  13.467  23.079  0.00  0.00    +0.000 C 
ATOM     21  C   UNL     1      -2.808  14.389  22.167  0.00  0.00    +0.000 C 
ATOM     22  C   UNL     1      -1.990  15.698  21.968  0.00  0.00    +0.000 C 
ENDROOT
BRANCH   1  23
ATOM     23  C   UNL     1      -4.364  15.266  24.103  0.00  0.00    +0.000 C 
ATOM     24  O   UNL     1      -3.521  15.179  24.993  0.00  0.00    +0.000 OA
BRANCH  23  25
ATOM     25  O   UNL     1      -5.491  16.017  24.204  0.00  0.00    +0.000 OA
BRANCH  25  26
ATOM     26  C   UNL     1      -5.276  17.354  24.684  0.00  0.00    +0.000 C 
BRANCH  26  28
ATOM     27  C   UNL     1      -7.291  17.832  23.306  0.00  0.00    +0.000 C 
ATOM     28  C   UNL     1      -6.018  18.429  23.897  0.00  0.00    +0.000 C 
ENDBRANCH  26  28
ENDBRANCH  25  26
ENDBRANCH  23  25
ENDBRANCH   1  23
BRANCH  19  29
ATOM     29  O   UNL     1       0.329  13.522  22.460  0.00  0.00    +0.000 OA
ATOM     30  H   UNL     1       0.894  13.140  23.166  0.00  0.00    +0.000 HD
ENDBRANCH  19  29
BRANCH   1  31
ATOM     31  O   UNL     1      -4.619  13.108  23.048  0.00  0.00    +0.000 OA
BRANCH  31  32
ATOM     32  C   UNL     1      -5.516  12.635  23.938  0.00  0.00    +0.000 C 
ATOM     33  O   UNL     1      -5.260  12.056  24.988  0.00  0.00    +0.000 OA
BRANCH  32  34
ATOM     34  C   UNL     1      -6.918  13.043  23.456  0.00  0.00    +0.000 C 
ATOM     35  C   UNL     1      -7.879  11.925  23.070  0.00  0.00    +0.000 C 
ENDBRANCH  32  34
ENDBRANCH  31  32
ENDBRANCH   1  31
TORSDOF 8
ENDMDL
MODEL 9
REMARK VINA RESULT:      -5.5      7.128     11.734
REMARK  Name = 
REMARK  13 active torsions:
REMARK  status: ('A' for Active; 'I' for Inactive)
REMARK    1  A    between atoms: C_1  and  C_2
REMARK    2  A    between atoms: C_2  and  C_3
REMARK    3  A    between atoms: C_3  and  O_4
REMARK    4  A    between atoms: O_4  and  C_5
REMARK    5  A    between atoms: C_5  and  C_7
REMARK    6  A    between atoms: C_7  and  O_8
REMARK    7  A    between atoms: O_8  and  C_9
REMARK    8  A    between atoms: C_9  and  C_11
REMARK    9  A    between atoms: C_11  and  C_12
REMARK   10  A    between atoms: C_13  and  C_14
REMARK   11  A    between atoms: C_26  and  C_27
REMARK   12  A    between atoms: C_30  and  O_31
REMARK   13  A    between atoms: C_33  and  C_34
REMARK                            x       y       z     vdW  Elec       q    Type
REMARK                         _______ _______ _______ _____ _____    ______ ____
ROOT
ATOM      1  C   UNL     1       5.500  15.415  23.101  0.00  0.00    +0.000 C 
ATOM      2  C   UNL     1       5.348  16.868  22.563  0.00  0.00    +0.000 C 
ATOM      3  C   UNL     1       6.213  18.007  23.152  0.00  0.00    +0.000 C 
ATOM      4  C   UNL     1       5.843  16.627  21.131  0.00  0.00    +0.000 C 
ATOM      5  C   UNL     1       7.075  15.676  21.328  0.00  0.00    +0.000 C 
ATOM      6  C   UNL     1       7.275  14.625  20.209  0.00  0.00    +0.000 C 
ATOM      7  C   UNL     1       7.434  15.407  18.897  0.00  0.00    +0.000 C 
ATOM      8  C   UNL     1       7.976  14.472  17.862  0.00  0.00    +0.000 C 
ATOM      9  C   UNL     1       9.345  14.031  18.309  0.00  0.00    +0.000 C 
ATOM     10  C   UNL     1      10.395  14.184  17.486  0.00  0.00    +0.000 C 
ATOM     11  C   UNL     1      11.134  12.909  17.365  0.00  0.00    +0.000 C 
ATOM     12  O   UNL     1      12.332  12.859  17.143  0.00  0.00    +0.000 OA
ATOM     13  C   UNL     1      10.230  11.689  17.510  0.00  0.00    +0.000 C 
ATOM     14  C   UNL     1       9.264  11.725  18.486  0.00  0.00    +0.000 C 
ATOM     15  C   UNL     1       9.354  12.959  19.418  0.00  0.00    +0.000 C 
ATOM     16  C   UNL     1      10.643  12.488  20.206  0.00  0.00    +0.000 C 
ATOM     17  C   UNL     1       8.516  13.739  20.575  0.00  0.00    +0.000 C 
ATOM     18  F   UNL     1       9.450  14.725  20.986  0.00  0.00    +0.000 F 
ATOM     19  C   UNL     1       8.269  12.947  21.888  0.00  0.00    +0.000 C 
ATOM     20  C   UNL     1       7.169  13.500  22.795  0.00  0.00    +0.000 C 
ATOM     21  C   UNL     1       6.971  15.042  22.764  0.00  0.00    +0.000 C 
ATOM     22  C   UNL     1       8.064  15.645  23.694  0.00  0.00    +0.000 C 
ENDROOT
BRANCH   1  23
ATOM     23  C   UNL     1       5.002  15.069  24.514  0.00  0.00    +0.000 C 
ATOM     24  O   UNL     1       4.569  15.905  25.304  0.00  0.00    +0.000 OA
BRANCH  23  25
ATOM     25  O   UNL     1       5.070  13.740  24.785  0.00  0.00    +0.000 OA
BRANCH  25  26
ATOM     26  C   UNL     1       5.349  13.425  26.158  0.00  0.00    +0.000 C 
BRANCH  26  28
ATOM     27  C   UNL     1       7.181  12.217  27.330  0.00  0.00    +0.000 C 
ATOM     28  C   UNL     1       6.830  13.462  26.521  0.00  0.00    +0.000 C 
ENDBRANCH  26  28
ENDBRANCH  25  26
ENDBRANCH  23  25
ENDBRANCH   1  23
BRANCH  19  29
ATOM     29  O   UNL     1       9.457  12.922  22.695  0.00  0.00    +0.000 OA
ATOM     30  H   UNL     1       9.739  13.857  22.796  0.00  0.00    +0.000 HD
ENDBRANCH  19  29
BRANCH   1  31
ATOM     31  O   UNL     1       4.728  14.464  22.191  0.00  0.00    +0.000 OA
BRANCH  31  32
ATOM     32  C   UNL     1       3.432  14.516  21.817  0.00  0.00    +0.000 C 
ATOM     33  O   UNL     1       2.488  14.860  22.520  0.00  0.00    +0.000 OA
BRANCH  32  34
ATOM     34  C   UNL     1       3.360  14.169  20.321  0.00  0.00    +0.000 C 
ATOM     35  C   UNL     1       2.490  15.055  19.438  0.00  0.00    +0.000 C 
ENDBRANCH  32  34
ENDBRANCH  31  32
ENDBRANCH   1  31
TORSDOF 8
ENDMDL
