MODEL 1
REMARK VINA RESULT:      -7.5      0.000      0.000
REMARK  Name = 
REMARK  7 active torsions:
REMARK  status: ('A' for Active; 'I' for Inactive)
REMARK    1  A    between atoms: C_1  and  O_2
REMARK    2  A    between atoms: O_2  and  C_3
REMARK    3  A    between atoms: C_6  and  N_7
REMARK    4  A    between atoms: N_10  and  S_11
REMARK    5  A    between atoms: S_11  and  C_14
REMARK    6  A    between atoms: C_15  and  C_16
REMARK    7  A    between atoms: C_21  and  C_22
REMARK                            x       y       z     vdW  Elec       q    Type
REMARK                         _______ _______ _______ _____ _____    ______ ____
ROOT
ATOM      1  S   UNL     1      -0.081  11.318  21.748  0.00  0.00    +0.000 S 
ATOM      2  O   UNL     1      -0.005  10.786  23.095  0.00  0.00    +0.000 OA
ATOM      3  O   UNL     1       1.108  11.849  21.113  0.00  0.00    +0.000 OA
ENDROOT
BRANCH   1   4
ATOM      4  C   UNL     1      -1.347  12.496  21.727  0.00  0.00    +0.000 A 
ATOM      5  C   UNL     1      -1.470  13.448  20.781  0.00  0.00    +0.000 A 
ATOM      6  C   UNL     1      -0.624  13.589  19.538  0.00  0.00    +0.000 C 
ATOM      7  N   UNL     1      -2.455  14.419  20.820  0.00  0.00    +0.000 NA
ATOM      8  C   UNL     1      -3.337  14.313  21.749  0.00  0.00    +0.000 A 
ATOM      9  S   UNL     1      -4.673  15.427  21.946  0.00  0.00    +0.000 S 
ATOM     10  C   UNL     1      -5.290  14.484  23.264  0.00  0.00    +0.000 A 
ATOM     11  C   UNL     1      -4.512  13.425  23.540  0.00  0.00    +0.000 A 
ATOM     12  C   UNL     1      -4.814  12.422  24.605  0.00  0.00    +0.000 C 
ATOM     13  N   UNL     1      -3.396  13.332  22.711  0.00  0.00    +0.000 N 
ATOM     14  C   UNL     1      -2.415  12.359  22.752  0.00  0.00    +0.000 A 
ATOM     15  O   UNL     1      -2.419  11.427  23.552  0.00  0.00    +0.000 OA
ENDBRANCH   1   4
BRANCH   1  19
ATOM     16  N   UNL     1       1.601   8.378  19.637  0.00  0.00    +0.000 N 
ATOM     17  C   UNL     1       1.314   9.672  19.011  0.00  0.00    +0.000 C 
ATOM     18  C   UNL     1      -0.152  10.066  19.298  0.00  0.00    +0.000 C 
ATOM     19  N   UNL     1      -0.530   9.989  20.754  0.00  0.00    +0.000 NA
ATOM     20  C   UNL     1      -0.154   8.643  21.321  0.00  0.00    +0.000 C 
ATOM     21  C   UNL     1       1.328   8.310  21.083  0.00  0.00    +0.000 C 
BRANCH  16  25
ATOM     22  C   UNL     1       4.121   5.553  17.783  0.00  0.00    +0.000 A 
ATOM     23  C   UNL     1       3.399   5.202  18.922  0.00  0.00    +0.000 A 
ATOM     24  C   UNL     1       2.542   6.126  19.538  0.00  0.00    +0.000 A 
ATOM     25  C   UNL     1       2.392   7.422  19.036  0.00  0.00    +0.000 A 
ATOM     26  C   UNL     1       3.140   7.753  17.897  0.00  0.00    +0.000 A 
ATOM     27  C   UNL     1       3.995   6.841  17.278  0.00  0.00    +0.000 A 
BRANCH  22  29
ATOM     28  C   UNL     1       5.289   4.738  15.902  0.00  0.00    +0.000 C 
ATOM     29  O   UNL     1       4.941   4.585  17.274  0.00  0.00    +0.000 OA
ENDBRANCH  22  29
ENDBRANCH  16  25
ENDBRANCH   1  19
TORSDOF 4
ENDMDL
MODEL 2
REMARK VINA RESULT:      -7.5      0.577      1.059
REMARK  Name = 
REMARK  7 active torsions:
REMARK  status: ('A' for Active; 'I' for Inactive)
REMARK    1  A    between atoms: C_1  and  O_2
REMARK    2  A    between atoms: O_2  and  C_3
REMARK    3  A    between atoms: C_6  and  N_7
REMARK    4  A    between atoms: N_10  and  S_11
REMARK    5  A    between atoms: S_11  and  C_14
REMARK    6  A    between atoms: C_15  and  C_16
REMARK    7  A    between atoms: C_21  and  C_22
REMARK                            x       y       z     vdW  Elec       q    Type
REMARK                         _______ _______ _______ _____ _____    ______ ____
ROOT
ATOM      1  S   UNL     1      -0.152  11.411  21.756  0.00  0.00    +0.000 S 
ATOM      2  O   UNL     1      -0.070  10.911  23.115  0.00  0.00    +0.000 OA
ATOM      3  O   UNL     1       1.034  11.930  21.105  0.00  0.00    +0.000 OA
ENDROOT
BRANCH   1   4
ATOM      4  C   UNL     1      -1.421  12.583  21.710  0.00  0.00    +0.000 A 
ATOM      5  C   UNL     1      -1.536  13.529  20.756  0.00  0.00    +0.000 A 
ATOM      6  C   UNL     1      -0.674  13.665  19.524  0.00  0.00    +0.000 C 
ATOM      7  N   UNL     1      -2.525  14.496  20.775  0.00  0.00    +0.000 NA
ATOM      8  C   UNL     1      -3.420  14.393  21.694  0.00  0.00    +0.000 A 
ATOM      9  S   UNL     1      -4.762  15.502  21.865  0.00  0.00    +0.000 S 
ATOM     10  C   UNL     1      -5.394  14.565  23.180  0.00  0.00    +0.000 A 
ATOM     11  C   UNL     1      -4.615  13.511  23.475  0.00  0.00    +0.000 A 
ATOM     12  C   UNL     1      -4.927  12.514  24.541  0.00  0.00    +0.000 C 
ATOM     13  N   UNL     1      -3.487  13.417  22.661  0.00  0.00    +0.000 N 
ATOM     14  C   UNL     1      -2.503  12.448  22.722  0.00  0.00    +0.000 A 
ATOM     15  O   UNL     1      -2.514  11.522  23.527  0.00  0.00    +0.000 OA
ENDBRANCH   1   4
BRANCH   1  19
ATOM     16  N   UNL     1       1.531   8.356  19.813  0.00  0.00    +0.000 N 
ATOM     17  C   UNL     1       1.297   9.633  19.131  0.00  0.00    +0.000 C 
ATOM     18  C   UNL     1      -0.168  10.071  19.351  0.00  0.00    +0.000 C 
ATOM     19  N   UNL     1      -0.598  10.057  20.794  0.00  0.00    +0.000 NA
ATOM     20  C   UNL     1      -0.275   8.724  21.422  0.00  0.00    +0.000 C 
ATOM     21  C   UNL     1       1.206   8.348  21.250  0.00  0.00    +0.000 C 
BRANCH  16  25
ATOM     22  C   UNL     1       3.838   5.220  18.198  0.00  0.00    +0.000 A 
ATOM     23  C   UNL     1       3.748   6.437  17.526  0.00  0.00    +0.000 A 
ATOM     24  C   UNL     1       3.000   7.496  18.061  0.00  0.00    +0.000 A 
ATOM     25  C   UNL     1       2.318   7.361  19.275  0.00  0.00    +0.000 A 
ATOM     26  C   UNL     1       2.414   6.121  19.924  0.00  0.00    +0.000 A 
ATOM     27  C   UNL     1       3.156   5.063  19.399  0.00  0.00    +0.000 A 
BRANCH  22  29
ATOM     28  C   UNL     1       4.026   2.937  17.632  0.00  0.00    +0.000 C 
ATOM     29  O   UNL     1       4.576   4.250  17.580  0.00  0.00    +0.000 OA
ENDBRANCH  22  29
ENDBRANCH  16  25
ENDBRANCH   1  19
TORSDOF 4
ENDMDL
MODEL 3
REMARK VINA RESULT:      -7.2      2.271      2.988
REMARK  Name = 
REMARK  7 active torsions:
REMARK  status: ('A' for Active; 'I' for Inactive)
REMARK    1  A    between atoms: C_1  and  O_2
REMARK    2  A    between atoms: O_2  and  C_3
REMARK    3  A    between atoms: C_6  and  N_7
REMARK    4  A    between atoms: N_10  and  S_11
REMARK    5  A    between atoms: S_11  and  C_14
REMARK    6  A    between atoms: C_15  and  C_16
REMARK    7  A    between atoms: C_21  and  C_22
REMARK                            x       y       z     vdW  Elec       q    Type
REMARK                         _______ _______ _______ _____ _____    ______ ____
ROOT
ATOM      1  S   UNL     1      -1.546  12.733  20.072  0.00  0.00    +0.000 S 
ATOM      2  O   UNL     1      -1.144  14.090  19.751  0.00  0.00    +0.000 OA
ATOM      3  O   UNL     1      -1.867  11.804  19.007  0.00  0.00    +0.000 OA
ENDROOT
BRANCH   1   4
ATOM      4  C   UNL     1      -2.857  12.833  21.195  0.00  0.00    +0.000 A 
ATOM      5  C   UNL     1      -2.713  13.186  22.488  0.00  0.00    +0.000 A 
ATOM      6  C   UNL     1      -1.441  13.659  23.149  0.00  0.00    +0.000 C 
ATOM      7  N   UNL     1      -3.768  13.197  23.383  0.00  0.00    +0.000 NA
ATOM      8  C   UNL     1      -4.938  12.963  22.903  0.00  0.00    +0.000 A 
ATOM      9  S   UNL     1      -6.396  12.959  23.870  0.00  0.00    +0.000 S 
ATOM     10  C   UNL     1      -7.357  12.676  22.455  0.00  0.00    +0.000 A 
ATOM     11  C   UNL     1      -6.609  12.563  21.346  0.00  0.00    +0.000 A 
ATOM     12  C   UNL     1      -7.169  12.348  19.978  0.00  0.00    +0.000 C 
ATOM     13  N   UNL     1      -5.243  12.698  21.588  0.00  0.00    +0.000 N 
ATOM     14  C   UNL     1      -4.227  12.629  20.654  0.00  0.00    +0.000 A 
ATOM     15  O   UNL     1      -4.421  12.439  19.456  0.00  0.00    +0.000 OA
ENDBRANCH   1   4
BRANCH   1  19
ATOM     16  N   UNL     1       0.999   9.693  19.608  0.00  0.00    +0.000 N 
ATOM     17  C   UNL     1      -0.242   9.514  20.367  0.00  0.00    +0.000 C 
ATOM     18  C   UNL     1      -0.368  10.641  21.417  0.00  0.00    +0.000 C 
ATOM     19  N   UNL     1      -0.188  12.024  20.851  0.00  0.00    +0.000 NA
ATOM     20  C   UNL     1       1.089  12.098  20.050  0.00  0.00    +0.000 C 
ATOM     21  C   UNL     1       1.152  11.010  18.966  0.00  0.00    +0.000 C 
BRANCH  16  25
ATOM     22  C   UNL     1       3.306   6.363  18.447  0.00  0.00    +0.000 A 
ATOM     23  C   UNL     1       3.176   7.453  17.590  0.00  0.00    +0.000 A 
ATOM     24  C   UNL     1       2.427   8.576  17.971  0.00  0.00    +0.000 A 
ATOM     25  C   UNL     1       1.786   8.633  19.213  0.00  0.00    +0.000 A 
ATOM     26  C   UNL     1       1.922   7.516  20.050  0.00  0.00    +0.000 A 
ATOM     27  C   UNL     1       2.665   6.395  19.680  0.00  0.00    +0.000 A 
BRANCH  22  29
ATOM     28  C   UNL     1       4.950   4.731  18.899  0.00  0.00    +0.000 C 
ATOM     29  O   UNL     1       4.041   5.313  17.970  0.00  0.00    +0.000 OA
ENDBRANCH  22  29
ENDBRANCH  16  25
ENDBRANCH   1  19
TORSDOF 4
ENDMDL
MODEL 4
REMARK VINA RESULT:      -7.1      1.717      2.234
REMARK  Name = 
REMARK  7 active torsions:
REMARK  status: ('A' for Active; 'I' for Inactive)
REMARK    1  A    between atoms: C_1  and  O_2
REMARK    2  A    between atoms: O_2  and  C_3
REMARK    3  A    between atoms: C_6  and  N_7
REMARK    4  A    between atoms: N_10  and  S_11
REMARK    5  A    between atoms: S_11  and  C_14
REMARK    6  A    between atoms: C_15  and  C_16
REMARK    7  A    between atoms: C_21  and  C_22
REMARK                            x       y       z     vdW  Elec       q    Type
REMARK                         _______ _______ _______ _____ _____    ______ ____
ROOT
ATOM      1  S   UNL     1       0.040  12.118  20.135  0.00  0.00    +0.000 S 
ATOM      2  O   UNL     1       0.992  11.886  21.204  0.00  0.00    +0.000 OA
ATOM      3  O   UNL     1       0.470  12.775  18.916  0.00  0.00    +0.000 OA
ENDROOT
BRANCH   1   4
ATOM      4  C   UNL     1      -1.314  12.950  20.816  0.00  0.00    +0.000 A 
ATOM      5  C   UNL     1      -1.209  13.903  21.764  0.00  0.00    +0.000 A 
ATOM      6  C   UNL     1       0.072  14.489  22.306  0.00  0.00    +0.000 C 
ATOM      7  N   UNL     1      -2.311  14.510  22.339  0.00  0.00    +0.000 NA
ATOM      8  C   UNL     1      -3.462  14.209  21.849  0.00  0.00    +0.000 A 
ATOM      9  S   UNL     1      -4.967  14.891  22.425  0.00  0.00    +0.000 S 
ATOM     10  C   UNL     1      -5.846  14.036  21.200  0.00  0.00    +0.000 A 
ATOM     11  C   UNL     1      -5.046  13.270  20.440  0.00  0.00    +0.000 A 
ATOM     12  C   UNL     1      -5.524  12.446  19.290  0.00  0.00    +0.000 C 
ATOM     13  N   UNL     1      -3.704  13.339  20.812  0.00  0.00    +0.000 N 
ATOM     14  C   UNL     1      -2.649  12.668  20.225  0.00  0.00    +0.000 A 
ATOM     15  O   UNL     1      -2.777  11.908  19.269  0.00  0.00    +0.000 OA
ENDBRANCH   1   4
BRANCH   1  19
ATOM     16  N   UNL     1       1.591   8.534  19.308  0.00  0.00    +0.000 N 
ATOM     17  C   UNL     1       1.456   9.546  18.256  0.00  0.00    +0.000 C 
ATOM     18  C   UNL     1       0.015  10.102  18.261  0.00  0.00    +0.000 C 
ATOM     19  N   UNL     1      -0.459  10.557  19.616  0.00  0.00    +0.000 NA
ATOM     20  C   UNL     1      -0.237   9.470  20.639  0.00  0.00    +0.000 C 
ATOM     21  C   UNL     1       1.222   8.988  20.661  0.00  0.00    +0.000 C 
BRANCH  16  25
ATOM     22  C   UNL     1       3.745   4.942  18.839  0.00  0.00    +0.000 A 
ATOM     23  C   UNL     1       3.820   5.933  17.862  0.00  0.00    +0.000 A 
ATOM     24  C   UNL     1       3.123   7.140  18.014  0.00  0.00    +0.000 A 
ATOM     25  C   UNL     1       2.332   7.384  19.141  0.00  0.00    +0.000 A 
ATOM     26  C   UNL     1       2.263   6.365  20.102  0.00  0.00    +0.000 A 
ATOM     27  C   UNL     1       2.953   5.161  19.959  0.00  0.00    +0.000 A 
BRANCH  22  29
ATOM     28  C   UNL     1       3.783   2.846  17.756  0.00  0.00    +0.000 C 
ATOM     29  O   UNL     1       4.446   3.797  18.583  0.00  0.00    +0.000 OA
ENDBRANCH  22  29
ENDBRANCH  16  25
ENDBRANCH   1  19
TORSDOF 4
ENDMDL
MODEL 5
REMARK VINA RESULT:      -7.0      1.777      2.191
REMARK  Name = 
REMARK  7 active torsions:
REMARK  status: ('A' for Active; 'I' for Inactive)
REMARK    1  A    between atoms: C_1  and  O_2
REMARK    2  A    between atoms: O_2  and  C_3
REMARK    3  A    between atoms: C_6  and  N_7
REMARK    4  A    between atoms: N_10  and  S_11
REMARK    5  A    between atoms: S_11  and  C_14
REMARK    6  A    between atoms: C_15  and  C_16
REMARK    7  A    between atoms: C_21  and  C_22
REMARK                            x       y       z     vdW  Elec       q    Type
REMARK                         _______ _______ _______ _____ _____    ______ ____
ROOT
ATOM      1  S   UNL     1       0.470  11.922  20.090  0.00  0.00    +0.000 S 
ATOM      2  O   UNL     1       1.345  11.629  21.209  0.00  0.00    +0.000 OA
ATOM      3  O   UNL     1       1.012  12.526  18.889  0.00  0.00    +0.000 OA
ENDROOT
BRANCH   1   4
ATOM      4  C   UNL     1      -0.846  12.868  20.693  0.00  0.00    +0.000 A 
ATOM      5  C   UNL     1      -0.697  13.909  21.537  0.00  0.00    +0.000 A 
ATOM      6  C   UNL     1       0.610  14.500  22.006  0.00  0.00    +0.000 C 
ATOM      7  N   UNL     1      -1.770  14.611  22.055  0.00  0.00    +0.000 NA
ATOM      8  C   UNL     1      -2.936  14.302  21.608  0.00  0.00    +0.000 A 
ATOM      9  S   UNL     1      -4.410  15.094  22.123  0.00  0.00    +0.000 S 
ATOM     10  C   UNL     1      -5.333  14.149  20.999  0.00  0.00    +0.000 A 
ATOM     11  C   UNL     1      -4.568  13.281  20.316  0.00  0.00    +0.000 A 
ATOM     12  C   UNL     1      -5.089  12.361  19.261  0.00  0.00    +0.000 C 
ATOM     13  N   UNL     1      -3.221  13.340  20.668  0.00  0.00    +0.000 N 
ATOM     14  C   UNL     1      -2.196  12.574  20.145  0.00  0.00    +0.000 A 
ATOM     15  O   UNL     1      -2.363  11.725  19.273  0.00  0.00    +0.000 OA
ENDBRANCH   1   4
BRANCH   1  19
ATOM     16  N   UNL     1       1.778   8.228  19.333  0.00  0.00    +0.000 N 
ATOM     17  C   UNL     1       1.756   9.240  18.273  0.00  0.00    +0.000 C 
ATOM     18  C   UNL     1       0.360   9.901  18.225  0.00  0.00    +0.000 C 
ATOM     19  N   UNL     1      -0.125  10.399  19.561  0.00  0.00    +0.000 NA
ATOM     20  C   UNL     1      -0.020   9.305  20.595  0.00  0.00    +0.000 C 
ATOM     21  C   UNL     1       1.398   8.717  20.670  0.00  0.00    +0.000 C 
BRANCH  16  25
ATOM     22  C   UNL     1       3.912   4.621  18.885  0.00  0.00    +0.000 A 
ATOM     23  C   UNL     1       3.034   4.783  19.954  0.00  0.00    +0.000 A 
ATOM     24  C   UNL     1       2.303   5.971  20.105  0.00  0.00    +0.000 A 
ATOM     25  C   UNL     1       2.437   7.025  19.196  0.00  0.00    +0.000 A 
ATOM     26  C   UNL     1       3.338   6.840  18.137  0.00  0.00    +0.000 A 
ATOM     27  C   UNL     1       4.069   5.663  17.979  0.00  0.00    +0.000 A 
BRANCH  22  29
ATOM     28  C   UNL     1       3.938   2.336  19.474  0.00  0.00    +0.000 C 
ATOM     29  O   UNL     1       4.589   3.434  18.843  0.00  0.00    +0.000 OA
ENDBRANCH  22  29
ENDBRANCH  16  25
ENDBRANCH   1  19
TORSDOF 4
ENDMDL
MODEL 6
REMARK VINA RESULT:      -7.0      1.303      1.741
REMARK  Name = 
REMARK  7 active torsions:
REMARK  status: ('A' for Active; 'I' for Inactive)
REMARK    1  A    between atoms: C_1  and  O_2
REMARK    2  A    between atoms: O_2  and  C_3
REMARK    3  A    between atoms: C_6  and  N_7
REMARK    4  A    between atoms: N_10  and  S_11
REMARK    5  A    between atoms: S_11  and  C_14
REMARK    6  A    between atoms: C_15  and  C_16
REMARK    7  A    between atoms: C_21  and  C_22
REMARK                            x       y       z     vdW  Elec       q    Type
REMARK                         _______ _______ _______ _____ _____    ______ ____
ROOT
ATOM      1  S   UNL     1       0.707  11.640  20.446  0.00  0.00    +0.000 S 
ATOM      2  O   UNL     1       1.238  11.272  21.745  0.00  0.00    +0.000 OA
ATOM      3  O   UNL     1       1.602  12.109  19.407  0.00  0.00    +0.000 OA
ENDROOT
BRANCH   1   4
ATOM      4  C   UNL     1      -0.557  12.790  20.710  0.00  0.00    +0.000 A 
ATOM      5  C   UNL     1      -0.807  13.832  19.893  0.00  0.00    +0.000 A 
ATOM      6  C   UNL     1      -0.129  14.116  18.574  0.00  0.00    +0.000 C 
ATOM      7  N   UNL     1      -1.784  14.775  20.158  0.00  0.00    +0.000 NA
ATOM      8  C   UNL     1      -2.539  14.557  21.177  0.00  0.00    +0.000 A 
ATOM      9  S   UNL     1      -3.844  15.619  21.658  0.00  0.00    +0.000 S 
ATOM     10  C   UNL     1      -4.281  14.533  22.937  0.00  0.00    +0.000 A 
ATOM     11  C   UNL     1      -3.468  13.467  23.000  0.00  0.00    +0.000 A 
ATOM     12  C   UNL     1      -3.625  12.354  23.983  0.00  0.00    +0.000 C 
ATOM     13  N   UNL     1      -2.467  13.481  22.030  0.00  0.00    +0.000 N 
ATOM     14  C   UNL     1      -1.484  12.528  21.844  0.00  0.00    +0.000 A 
ATOM     15  O   UNL     1      -1.380  11.518  22.535  0.00  0.00    +0.000 OA
ENDBRANCH   1   4
BRANCH   1  19
ATOM     16  N   UNL     1       1.787   7.910  19.524  0.00  0.00    +0.000 N 
ATOM     17  C   UNL     1       1.887   8.980  18.527  0.00  0.00    +0.000 C 
ATOM     18  C   UNL     1       0.545   9.744  18.458  0.00  0.00    +0.000 C 
ATOM     19  N   UNL     1       0.032  10.198  19.800  0.00  0.00    +0.000 NA
ATOM     20  C   UNL     1       0.010   9.041  20.769  0.00  0.00    +0.000 C 
ATOM     21  C   UNL     1       1.378   8.347  20.870  0.00  0.00    +0.000 C 
BRANCH  16  25
ATOM     22  C   UNL     1       3.437   4.065  19.016  0.00  0.00    +0.000 A 
ATOM     23  C   UNL     1       3.627   5.040  18.039  0.00  0.00    +0.000 A 
ATOM     24  C   UNL     1       3.099   6.329  18.204  0.00  0.00    +0.000 A 
ATOM     25  C   UNL     1       2.365   6.672  19.343  0.00  0.00    +0.000 A 
ATOM     26  C   UNL     1       2.178   5.668  20.305  0.00  0.00    +0.000 A 
ATOM     27  C   UNL     1       2.698   4.384  20.150  0.00  0.00    +0.000 A 
BRANCH  22  29
ATOM     28  C   UNL     1       3.172   1.981  17.941  0.00  0.00    +0.000 C 
ATOM     29  O   UNL     1       3.975   2.837  18.748  0.00  0.00    +0.000 OA
ENDBRANCH  22  29
ENDBRANCH  16  25
ENDBRANCH   1  19
TORSDOF 4
ENDMDL
MODEL 7
REMARK VINA RESULT:      -7.0      1.718      2.034
REMARK  Name = 
REMARK  7 active torsions:
REMARK  status: ('A' for Active; 'I' for Inactive)
REMARK    1  A    between atoms: C_1  and  O_2
REMARK    2  A    between atoms: O_2  and  C_3
REMARK    3  A    between atoms: C_6  and  N_7
REMARK    4  A    between atoms: N_10  and  S_11
REMARK    5  A    between atoms: S_11  and  C_14
REMARK    6  A    between atoms: C_15  and  C_16
REMARK    7  A    between atoms: C_21  and  C_22
REMARK                            x       y       z     vdW  Elec       q    Type
REMARK                         _______ _______ _______ _____ _____    ______ ____
ROOT
ATOM      1  S   UNL     1      -0.245  12.184  20.386  0.00  0.00    +0.000 S 
ATOM      2  O   UNL     1       0.641  11.929  21.505  0.00  0.00    +0.000 OA
ATOM      3  O   UNL     1       0.245  12.903  19.226  0.00  0.00    +0.000 OA
ENDROOT
BRANCH   1   4
ATOM      4  C   UNL     1      -1.663  12.951  21.010  0.00  0.00    +0.000 A 
ATOM      5  C   UNL     1      -1.652  13.830  22.033  0.00  0.00    +0.000 A 
ATOM      6  C   UNL     1      -0.430  14.381  22.725  0.00  0.00    +0.000 C 
ATOM      7  N   UNL     1      -2.807  14.383  22.556  0.00  0.00    +0.000 NA
ATOM      8  C   UNL     1      -3.908  14.112  21.948  0.00  0.00    +0.000 A 
ATOM      9  S   UNL     1      -5.466  14.737  22.443  0.00  0.00    +0.000 S 
ATOM     10  C   UNL     1      -6.226  13.971  21.086  0.00  0.00    +0.000 A 
ATOM     11  C   UNL     1      -5.354  13.271  20.342  0.00  0.00    +0.000 A 
ATOM     12  C   UNL     1      -5.722  12.535  19.097  0.00  0.00    +0.000 C 
ATOM     13  N   UNL     1      -4.049  13.322  20.831  0.00  0.00    +0.000 N 
ATOM     14  C   UNL     1      -2.939  12.705  20.287  0.00  0.00    +0.000 A 
ATOM     15  O   UNL     1      -2.976  12.020  19.269  0.00  0.00    +0.000 OA
ENDBRANCH   1   4
BRANCH   1  19
ATOM     16  N   UNL     1       1.489   8.761  19.284  0.00  0.00    +0.000 N 
ATOM     17  C   UNL     1       1.272   9.833  18.307  0.00  0.00    +0.000 C 
ATOM     18  C   UNL     1      -0.199  10.301  18.378  0.00  0.00    +0.000 C 
ATOM     19  N   UNL     1      -0.665  10.635  19.771  0.00  0.00    +0.000 NA
ATOM     20  C   UNL     1      -0.358   9.496  20.711  0.00  0.00    +0.000 C 
ATOM     21  C   UNL     1       1.127   9.100  20.672  0.00  0.00    +0.000 C 
BRANCH  16  25
ATOM     22  C   UNL     1       4.044   5.515  18.449  0.00  0.00    +0.000 A 
ATOM     23  C   UNL     1       3.264   5.510  19.603  0.00  0.00    +0.000 A 
ATOM     24  C   UNL     1       2.395   6.574  19.884  0.00  0.00    +0.000 A 
ATOM     25  C   UNL     1       2.291   7.671  19.023  0.00  0.00    +0.000 A 
ATOM     26  C   UNL     1       3.097   7.658  17.876  0.00  0.00    +0.000 A 
ATOM     27  C   UNL     1       3.964   6.604  17.588  0.00  0.00    +0.000 A 
BRANCH  22  29
ATOM     28  C   UNL     1       6.157   4.734  17.744  0.00  0.00    +0.000 C 
ATOM     29  O   UNL     1       4.871   4.440  18.281  0.00  0.00    +0.000 OA
ENDBRANCH  22  29
ENDBRANCH  16  25
ENDBRANCH   1  19
TORSDOF 4
ENDMDL
MODEL 8
REMARK VINA RESULT:      -7.0      2.041      2.648
REMARK  Name = 
REMARK  7 active torsions:
REMARK  status: ('A' for Active; 'I' for Inactive)
REMARK    1  A    between atoms: C_1  and  O_2
REMARK    2  A    between atoms: O_2  and  C_3
REMARK    3  A    between atoms: C_6  and  N_7
REMARK    4  A    between atoms: N_10  and  S_11
REMARK    5  A    between atoms: S_11  and  C_14
REMARK    6  A    between atoms: C_15  and  C_16
REMARK    7  A    between atoms: C_21  and  C_22
REMARK                            x       y       z     vdW  Elec       q    Type
REMARK                         _______ _______ _______ _____ _____    ______ ____
ROOT
ATOM      1  S   UNL     1      -0.818  12.368  19.052  0.00  0.00    +0.000 S 
ATOM      2  O   UNL     1      -0.521  13.492  18.186  0.00  0.00    +0.000 OA
ATOM      3  O   UNL     1      -1.384  11.156  18.494  0.00  0.00    +0.000 OA
ENDROOT
BRANCH   1   4
ATOM      4  C   UNL     1      -1.812  12.953  20.340  0.00  0.00    +0.000 A 
ATOM      5  C   UNL     1      -1.370  13.769  21.318  0.00  0.00    +0.000 A 
ATOM      6  C   UNL     1      -0.001  14.399  21.407  0.00  0.00    +0.000 C 
ATOM      7  N   UNL     1      -2.168  14.173  22.373  0.00  0.00    +0.000 NA
ATOM      8  C   UNL     1      -3.407  13.829  22.329  0.00  0.00    +0.000 A 
ATOM      9  S   UNL     1      -4.577  14.267  23.555  0.00  0.00    +0.000 S 
ATOM     10  C   UNL     1      -5.843  13.508  22.645  0.00  0.00    +0.000 A 
ATOM     11  C   UNL     1      -5.389  12.943  21.515  0.00  0.00    +0.000 A 
ATOM     12  C   UNL     1      -6.259  12.245  20.522  0.00  0.00    +0.000 C 
ATOM     13  N   UNL     1      -4.014  13.095  21.338  0.00  0.00    +0.000 N 
ATOM     14  C   UNL     1      -3.261  12.623  20.279  0.00  0.00    +0.000 A 
ATOM     15  O   UNL     1      -3.736  11.997  19.336  0.00  0.00    +0.000 OA
ENDBRANCH   1   4
BRANCH   1  19
ATOM     16  N   UNL     1       1.513   9.131  19.207  0.00  0.00    +0.000 N 
ATOM     17  C   UNL     1       0.516   9.379  20.252  0.00  0.00    +0.000 C 
ATOM     18  C   UNL     1       0.671  10.824  20.777  0.00  0.00    +0.000 C 
ATOM     19  N   UNL     1       0.697  11.867  19.691  0.00  0.00    +0.000 NA
ATOM     20  C   UNL     1       1.717  11.503  18.641  0.00  0.00    +0.000 C 
ATOM     21  C   UNL     1       1.493  10.087  18.086  0.00  0.00    +0.000 C 
BRANCH  16  25
ATOM     22  C   UNL     1       3.397   5.377  18.853  0.00  0.00    +0.000 A 
ATOM     23  C   UNL     1       3.556   6.334  17.853  0.00  0.00    +0.000 A 
ATOM     24  C   UNL     1       2.950   7.594  17.966  0.00  0.00    +0.000 A 
ATOM     25  C   UNL     1       2.168   7.925  19.077  0.00  0.00    +0.000 A 
ATOM     26  C   UNL     1       2.013   6.939  20.063  0.00  0.00    +0.000 A 
ATOM     27  C   UNL     1       2.612   5.684  19.958  0.00  0.00    +0.000 A 
BRANCH  22  29
ATOM     28  C   UNL     1       5.435   4.220  18.579  0.00  0.00    +0.000 C 
ATOM     29  O   UNL     1       4.013   4.177  18.635  0.00  0.00    +0.000 OA
ENDBRANCH  22  29
ENDBRANCH  16  25
ENDBRANCH   1  19
TORSDOF 4
ENDMDL
MODEL 9
REMARK VINA RESULT:      -7.0      1.959      2.395
REMARK  Name = 
REMARK  7 active torsions:
REMARK  status: ('A' for Active; 'I' for Inactive)
REMARK    1  A    between atoms: C_1  and  O_2
REMARK    2  A    between atoms: O_2  and  C_3
REMARK    3  A    between atoms: C_6  and  N_7
REMARK    4  A    between atoms: N_10  and  S_11
REMARK    5  A    between atoms: S_11  and  C_14
REMARK    6  A    between atoms: C_15  and  C_16
REMARK    7  A    between atoms: C_21  and  C_22
REMARK                            x       y       z     vdW  Elec       q    Type
REMARK                         _______ _______ _______ _____ _____    ______ ____
ROOT
ATOM      1  S   UNL     1      -0.981  12.052  19.209  0.00  0.00    +0.000 S 
ATOM      2  O   UNL     1      -0.760  13.033  18.163  0.00  0.00    +0.000 OA
ATOM      3  O   UNL     1      -1.598  10.781  18.887  0.00  0.00    +0.000 OA
ENDROOT
BRANCH   1   4
ATOM      4  C   UNL     1      -1.855  12.836  20.479  0.00  0.00    +0.000 A 
ATOM      5  C   UNL     1      -1.281  13.629  21.406  0.00  0.00    +0.000 A 
ATOM      6  C   UNL     1       0.165  14.063  21.440  0.00  0.00    +0.000 C 
ATOM      7  N   UNL     1      -1.991  14.194  22.450  0.00  0.00    +0.000 NA
ATOM      8  C   UNL     1      -3.266  14.026  22.443  0.00  0.00    +0.000 A 
ATOM      9  S   UNL     1      -4.335  14.686  23.661  0.00  0.00    +0.000 S 
ATOM     10  C   UNL     1      -5.715  14.068  22.812  0.00  0.00    +0.000 A 
ATOM     11  C   UNL     1      -5.370  13.388  21.707  0.00  0.00    +0.000 A 
ATOM     12  C   UNL     1      -6.352  12.771  20.765  0.00  0.00    +0.000 C 
ATOM     13  N   UNL     1      -3.992  13.336  21.501  0.00  0.00    +0.000 N 
ATOM     14  C   UNL     1      -3.336  12.710  20.458  0.00  0.00    +0.000 A 
ATOM     15  O   UNL     1      -3.915  12.111  19.556  0.00  0.00    +0.000 OA
ENDBRANCH   1   4
BRANCH   1  19
ATOM     16  N   UNL     1       1.564   8.977  19.139  0.00  0.00    +0.000 N 
ATOM     17  C   UNL     1       0.586   9.108  20.223  0.00  0.00    +0.000 C 
ATOM     18  C   UNL     1       0.662  10.534  20.813  0.00  0.00    +0.000 C 
ATOM     19  N   UNL     1       0.584  11.626  19.779  0.00  0.00    +0.000 NA
ATOM     20  C   UNL     1       1.591  11.381  18.683  0.00  0.00    +0.000 C 
ATOM     21  C   UNL     1       1.444   9.981  18.066  0.00  0.00    +0.000 C 
BRANCH  16  25
ATOM     22  C   UNL     1       3.902   5.535  18.469  0.00  0.00    +0.000 A 
ATOM     23  C   UNL     1       3.091   5.618  19.599  0.00  0.00    +0.000 A 
ATOM     24  C   UNL     1       2.293   6.750  19.825  0.00  0.00    +0.000 A 
ATOM     25  C   UNL     1       2.292   7.826  18.932  0.00  0.00    +0.000 A 
ATOM     26  C   UNL     1       3.128   7.722  17.810  0.00  0.00    +0.000 A 
ATOM     27  C   UNL     1       3.924   6.601  17.578  0.00  0.00    +0.000 A 
BRANCH  22  29
ATOM     28  C   UNL     1       3.925   3.210  18.067  0.00  0.00    +0.000 C 
ATOM     29  O   UNL     1       4.654   4.399  18.356  0.00  0.00    +0.000 OA
ENDBRANCH  22  29
ENDBRANCH  16  25
ENDBRANCH   1  19
TORSDOF 4
ENDMDL
