MODEL 1
REMARK VINA RESULT:      -6.5      0.000      0.000
REMARK  Name = 
REMARK  14 active torsions:
REMARK  status: ('A' for Active; 'I' for Inactive)
REMARK    1  A    between atoms: C_1  and  C_2
REMARK    2  A    between atoms: C_2  and  C_3
REMARK    3  A    between atoms: C_3  and  C_4
REMARK    4  A    between atoms: C_4  and  C_5
REMARK    5  A    between atoms: C_5  and  C_6
REMARK    6  A    between atoms: C_6  and  C_7
REMARK    7  A    between atoms: C_7  and  C_8
REMARK    8  A    between atoms: C_8  and  C_9
REMARK    9  A    between atoms: C_12  and  O_13
REMARK   10  A    between atoms: O_13  and  C_14
REMARK   11  A    between atoms: C_14  and  C_15
REMARK   12  A    between atoms: C_15  and  C_17
REMARK   13  A    between atoms: C_17  and  N_18
REMARK   14  A    between atoms: C_21  and  C_22
REMARK                            x       y       z     vdW  Elec       q    Type
REMARK                         _______ _______ _______ _____ _____    ______ ____
ROOT
ATOM      1  O   UNL     1       0.557  10.190  19.133  0.00  0.00    +0.000 OA
ENDROOT
BRANCH   1   5
ATOM      2  C   UNL     1       2.828   6.707  18.974  0.00  0.00    +0.000 A 
ATOM      3  C   UNL     1       2.111   7.083  20.115  0.00  0.00    +0.000 A 
ATOM      4  C   UNL     1       1.369   8.261  20.123  0.00  0.00    +0.000 A 
ATOM      5  C   UNL     1       1.344   9.086  19.002  0.00  0.00    +0.000 A 
ATOM      6  C   UNL     1       2.041   8.719  17.852  0.00  0.00    +0.000 A 
ATOM      7  C   UNL     1       2.785   7.533  17.842  0.00  0.00    +0.000 A 
BRANCH   2   8
ATOM      8  C   UNL     1       3.641   5.436  18.973  0.00  0.00    +0.000 C 
BRANCH   8   9
ATOM      9  C   UNL     1       3.532   4.695  17.641  0.00  0.00    +0.000 C 
BRANCH   9  10
ATOM     10  C   UNL     1       2.192   3.981  17.509  0.00  0.00    +0.000 C 
BRANCH  10  11
ATOM     11  C   UNL     1       2.378   2.477  17.686  0.00  0.00    +0.000 C 
BRANCH  11  12
ATOM     12  C   UNL     1       1.975   2.035  19.089  0.00  0.00    +0.000 C 
BRANCH  12  13
ATOM     13  C   UNL     1       0.915   2.972  19.665  0.00  0.00    +0.000 C 
BRANCH  13  15
ATOM     14  C   UNL     1       2.619   2.922  21.508  0.00  0.00    +0.000 C 
ATOM     15  C   UNL     1       1.186   3.267  21.137  0.00  0.00    +0.000 C 
ENDBRANCH  13  15
ENDBRANCH  12  13
ENDBRANCH  11  12
ENDBRANCH  10  11
ENDBRANCH   9  10
ENDBRANCH   8   9
ENDBRANCH   2   8
ENDBRANCH   1   5
BRANCH   1  16
ATOM     16  C   UNL     1       1.216  11.423  19.378  0.00  0.00    +0.000 C 
BRANCH  16  17
ATOM     17  C   UNL     1       0.585  12.052  20.622  0.00  0.00    +0.000 C 
ATOM     18  O   UNL     1       0.617  11.528  21.733  0.00  0.00    +0.000 OA
BRANCH  17  19
ATOM     19  C   UNL     1      -0.069  13.388  20.429  0.00  0.00    +0.000 C 
BRANCH  19  20
ATOM     20  N   UNL     1      -1.491  13.247  20.577  0.00  0.00    +0.000 N 
ATOM     21  N   UNL     1      -2.184  13.860  21.546  0.00  0.00    +0.000 NA
ATOM     22  N   UNL     1      -3.450  13.569  21.289  0.00  0.00    +0.000 NA
ATOM     23  C   UNL     1      -3.451  12.758  20.178  0.00  0.00    +0.000 A 
ATOM     24  N   UNL     1      -2.215  12.521  19.708  0.00  0.00    +0.000 NA
BRANCH  23  25
ATOM     25  C   UNL     1      -4.688  12.175  19.585  0.00  0.00    +0.000 A 
ATOM     26  C   UNL     1      -5.890  12.057  20.252  0.00  0.00    +0.000 A 
ATOM     27  C   UNL     1      -6.875  11.394  19.456  0.00  0.00    +0.000 A 
ATOM     28  C   UNL     1      -6.383  11.030  18.223  0.00  0.00    +0.000 A 
ATOM     29  S   UNL     1      -4.772  11.559  17.996  0.00  0.00    +0.000 S 
ENDBRANCH  23  25
ENDBRANCH  19  20
ENDBRANCH  17  19
ENDBRANCH  16  17
ENDBRANCH   1  16
TORSDOF 13
ENDMDL
MODEL 2
REMARK VINA RESULT:      -6.5      3.439      4.994
REMARK  Name = 
REMARK  14 active torsions:
REMARK  status: ('A' for Active; 'I' for Inactive)
REMARK    1  A    between atoms: C_1  and  C_2
REMARK    2  A    between atoms: C_2  and  C_3
REMARK    3  A    between atoms: C_3  and  C_4
REMARK    4  A    between atoms: C_4  and  C_5
REMARK    5  A    between atoms: C_5  and  C_6
REMARK    6  A    between atoms: C_6  and  C_7
REMARK    7  A    between atoms: C_7  and  C_8
REMARK    8  A    between atoms: C_8  and  C_9
REMARK    9  A    between atoms: C_12  and  O_13
REMARK   10  A    between atoms: O_13  and  C_14
REMARK   11  A    between atoms: C_14  and  C_15
REMARK   12  A    between atoms: C_15  and  C_17
REMARK   13  A    between atoms: C_17  and  N_18
REMARK   14  A    between atoms: C_21  and  C_22
REMARK                            x       y       z     vdW  Elec       q    Type
REMARK                         _______ _______ _______ _____ _____    ______ ____
ROOT
ATOM      1  O   UNL     1       1.835   7.391  18.808  0.00  0.00    +0.000 OA
ENDROOT
BRANCH   1   5
ATOM      2  C   UNL     1       4.438   4.768  16.895  0.00  0.00    +0.000 A 
ATOM      3  C   UNL     1       4.666   6.148  16.945  0.00  0.00    +0.000 A 
ATOM      4  C   UNL     1       3.764   6.986  17.593  0.00  0.00    +0.000 A 
ATOM      5  C   UNL     1       2.617   6.466  18.185  0.00  0.00    +0.000 A 
ATOM      6  C   UNL     1       2.382   5.092  18.157  0.00  0.00    +0.000 A 
ATOM      7  C   UNL     1       3.290   4.247  17.509  0.00  0.00    +0.000 A 
BRANCH   2   8
ATOM      8  C   UNL     1       5.412   3.862  16.183  0.00  0.00    +0.000 C 
BRANCH   8   9
ATOM      9  C   UNL     1       6.123   4.583  15.037  0.00  0.00    +0.000 C 
BRANCH   9  10
ATOM     10  C   UNL     1       5.391   4.381  13.715  0.00  0.00    +0.000 C 
BRANCH  10  11
ATOM     11  C   UNL     1       6.196   3.459  12.806  0.00  0.00    +0.000 C 
BRANCH  11  12
ATOM     12  C   UNL     1       5.493   3.257  11.468  0.00  0.00    +0.000 C 
BRANCH  12  13
ATOM     13  C   UNL     1       3.978   3.224  11.655  0.00  0.00    +0.000 C 
BRANCH  13  15
ATOM     14  C   UNL     1       2.983   4.383   9.662  0.00  0.00    +0.000 C 
ATOM     15  C   UNL     1       3.264   3.041  10.319  0.00  0.00    +0.000 C 
ENDBRANCH  13  15
ENDBRANCH  12  13
ENDBRANCH  11  12
ENDBRANCH  10  11
ENDBRANCH   9  10
ENDBRANCH   8   9
ENDBRANCH   2   8
ENDBRANCH   1   5
BRANCH   1  16
ATOM     16  C   UNL     1       1.938   8.731  18.352  0.00  0.00    +0.000 C 
BRANCH  16  17
ATOM     17  C   UNL     1       1.022   9.592  19.224  0.00  0.00    +0.000 C 
ATOM     18  O   UNL     1       0.692   9.284  20.367  0.00  0.00    +0.000 OA
BRANCH  17  19
ATOM     19  C   UNL     1       0.552  10.882  18.618  0.00  0.00    +0.000 C 
BRANCH  19  20
ATOM     20  N   UNL     1      -0.825  10.751  18.230  0.00  0.00    +0.000 N 
ATOM     21  N   UNL     1      -1.235   9.888  17.291  0.00  0.00    +0.000 NA
ATOM     22  N   UNL     1      -2.555   9.991  17.292  0.00  0.00    +0.000 NA
ATOM     23  C   UNL     1      -2.874  10.949  18.226  0.00  0.00    +0.000 A 
ATOM     24  N   UNL     1      -1.791  11.466  18.831  0.00  0.00    +0.000 NA
BRANCH  23  25
ATOM     25  C   UNL     1      -4.270  11.393  18.506  0.00  0.00    +0.000 A 
ATOM     26  C   UNL     1      -5.392  10.851  17.915  0.00  0.00    +0.000 A 
ATOM     27  C   UNL     1      -6.584  11.527  18.323  0.00  0.00    +0.000 A 
ATOM     28  C   UNL     1      -6.320  12.556  19.198  0.00  0.00    +0.000 A 
ATOM     29  S   UNL     1      -4.658  12.652  19.590  0.00  0.00    +0.000 S 
ENDBRANCH  23  25
ENDBRANCH  19  20
ENDBRANCH  17  19
ENDBRANCH  16  17
ENDBRANCH   1  16
TORSDOF 13
ENDMDL
MODEL 3
REMARK VINA RESULT:      -6.4      7.071      8.822
REMARK  Name = 
REMARK  14 active torsions:
REMARK  status: ('A' for Active; 'I' for Inactive)
REMARK    1  A    between atoms: C_1  and  C_2
REMARK    2  A    between atoms: C_2  and  C_3
REMARK    3  A    between atoms: C_3  and  C_4
REMARK    4  A    between atoms: C_4  and  C_5
REMARK    5  A    between atoms: C_5  and  C_6
REMARK    6  A    between atoms: C_6  and  C_7
REMARK    7  A    between atoms: C_7  and  C_8
REMARK    8  A    between atoms: C_8  and  C_9
REMARK    9  A    between atoms: C_12  and  O_13
REMARK   10  A    between atoms: O_13  and  C_14
REMARK   11  A    between atoms: C_14  and  C_15
REMARK   12  A    between atoms: C_15  and  C_17
REMARK   13  A    between atoms: C_17  and  N_18
REMARK   14  A    between atoms: C_21  and  C_22
REMARK                            x       y       z     vdW  Elec       q    Type
REMARK                         _______ _______ _______ _____ _____    ______ ____
ROOT
ATOM      1  O   UNL     1       8.668   8.437  18.951  0.00  0.00    +0.000 OA
ENDROOT
BRANCH   1   5
ATOM      2  C   UNL     1       6.970   5.175  17.003  0.00  0.00    +0.000 A 
ATOM      3  C   UNL     1       7.006   6.453  16.434  0.00  0.00    +0.000 A 
ATOM      4  C   UNL     1       7.580   7.515  17.126  0.00  0.00    +0.000 A 
ATOM      5  C   UNL     1       8.112   7.323  18.398  0.00  0.00    +0.000 A 
ATOM      6  C   UNL     1       8.098   6.053  18.974  0.00  0.00    +0.000 A 
ATOM      7  C   UNL     1       7.523   4.984  18.277  0.00  0.00    +0.000 A 
BRANCH   2   8
ATOM      8  C   UNL     1       6.337   4.028  16.255  0.00  0.00    +0.000 C 
BRANCH   8   9
ATOM      9  C   UNL     1       4.831   4.226  16.082  0.00  0.00    +0.000 C 
BRANCH   9  10
ATOM     10  C   UNL     1       4.109   4.204  17.424  0.00  0.00    +0.000 C 
BRANCH  10  11
ATOM     11  C   UNL     1       3.390   5.529  17.655  0.00  0.00    +0.000 C 
BRANCH  11  12
ATOM     12  C   UNL     1       2.077   5.319  18.401  0.00  0.00    +0.000 C 
BRANCH  12  13
ATOM     13  C   UNL     1       1.417   4.011  17.971  0.00  0.00    +0.000 C 
BRANCH  13  15
ATOM     14  C   UNL     1       1.860   1.982  19.382  0.00  0.00    +0.000 C 
ATOM     15  C   UNL     1       0.970   3.198  19.182  0.00  0.00    +0.000 C 
ENDBRANCH  13  15
ENDBRANCH  12  13
ENDBRANCH  11  12
ENDBRANCH  10  11
ENDBRANCH   9  10
ENDBRANCH   8   9
ENDBRANCH   2   8
ENDBRANCH   1   5
BRANCH   1  16
ATOM     16  C   UNL     1       8.463   9.664  18.267  0.00  0.00    +0.000 C 
BRANCH  16  17
ATOM     17  C   UNL     1       9.448  10.686  18.836  0.00  0.00    +0.000 C 
ATOM     18  O   UNL     1       9.706  10.781  20.035  0.00  0.00    +0.000 OA
BRANCH  17  19
ATOM     19  C   UNL     1      10.131  11.576  17.839  0.00  0.00    +0.000 C 
BRANCH  19  20
ATOM     20  N   UNL     1       9.636  12.917  17.982  0.00  0.00    +0.000 N 
ATOM     21  N   UNL     1      10.425  13.996  17.887  0.00  0.00    +0.000 NA
ATOM     22  N   UNL     1       9.598  15.026  17.972  0.00  0.00    +0.000 NA
ATOM     23  C   UNL     1       8.337  14.506  18.147  0.00  0.00    +0.000 A 
ATOM     24  N   UNL     1       8.328  13.163  18.174  0.00  0.00    +0.000 NA
BRANCH  23  25
ATOM     25  C   UNL     1       7.117  15.345  18.327  0.00  0.00    +0.000 A 
ATOM     26  C   UNL     1       7.123  16.626  18.841  0.00  0.00    +0.000 A 
ATOM     27  C   UNL     1       5.800  17.152  18.963  0.00  0.00    +0.000 A 
ATOM     28  C   UNL     1       4.846  16.253  18.546  0.00  0.00    +0.000 A 
ATOM     29  S   UNL     1       5.544  14.817  17.933  0.00  0.00    +0.000 S 
ENDBRANCH  23  25
ENDBRANCH  19  20
ENDBRANCH  17  19
ENDBRANCH  16  17
ENDBRANCH   1  16
TORSDOF 13
ENDMDL
MODEL 4
REMARK VINA RESULT:      -6.3      7.923     10.959
REMARK  Name = 
REMARK  14 active torsions:
REMARK  status: ('A' for Active; 'I' for Inactive)
REMARK    1  A    between atoms: C_1  and  C_2
REMARK    2  A    between atoms: C_2  and  C_3
REMARK    3  A    between atoms: C_3  and  C_4
REMARK    4  A    between atoms: C_4  and  C_5
REMARK    5  A    between atoms: C_5  and  C_6
REMARK    6  A    between atoms: C_6  and  C_7
REMARK    7  A    between atoms: C_7  and  C_8
REMARK    8  A    between atoms: C_8  and  C_9
REMARK    9  A    between atoms: C_12  and  O_13
REMARK   10  A    between atoms: O_13  and  C_14
REMARK   11  A    between atoms: C_14  and  C_15
REMARK   12  A    between atoms: C_15  and  C_17
REMARK   13  A    between atoms: C_17  and  N_18
REMARK   14  A    between atoms: C_21  and  C_22
REMARK                            x       y       z     vdW  Elec       q    Type
REMARK                         _______ _______ _______ _____ _____    ______ ____
ROOT
ATOM      1  O   UNL     1       8.593   8.939  18.497  0.00  0.00    +0.000 OA
ENDROOT
BRANCH   1   5
ATOM      2  C   UNL     1      10.077  12.826  18.451  0.00  0.00    +0.000 A 
ATOM      3  C   UNL     1      10.727  11.783  19.120  0.00  0.00    +0.000 A 
ATOM      4  C   UNL     1      10.189  10.499  19.112  0.00  0.00    +0.000 A 
ATOM      5  C   UNL     1       8.992  10.240  18.451  0.00  0.00    +0.000 A 
ATOM      6  C   UNL     1       8.339  11.265  17.767  0.00  0.00    +0.000 A 
ATOM      7  C   UNL     1       8.881  12.556  17.771  0.00  0.00    +0.000 A 
BRANCH   2   8
ATOM      8  C   UNL     1      10.657  14.219  18.471  0.00  0.00    +0.000 C 
BRANCH   8   9
ATOM      9  C   UNL     1      10.014  15.086  19.552  0.00  0.00    +0.000 C 
BRANCH   9  10
ATOM     10  C   UNL     1      10.642  14.829  20.917  0.00  0.00    +0.000 C 
BRANCH  10  11
ATOM     11  C   UNL     1       9.554  14.672  21.974  0.00  0.00    +0.000 C 
BRANCH  11  12
ATOM     12  C   UNL     1       8.472  13.703  21.509  0.00  0.00    +0.000 C 
BRANCH  12  13
ATOM     13  C   UNL     1       8.742  12.297  22.043  0.00  0.00    +0.000 C 
BRANCH  13  15
ATOM     14  C   UNL     1       8.239  11.840  24.460  0.00  0.00    +0.000 C 
ATOM     15  C   UNL     1       7.674  11.879  23.050  0.00  0.00    +0.000 C 
ENDBRANCH  13  15
ENDBRANCH  12  13
ENDBRANCH  11  12
ENDBRANCH  10  11
ENDBRANCH   9  10
ENDBRANCH   8   9
ENDBRANCH   2   8
ENDBRANCH   1   5
BRANCH   1  16
ATOM     16  C   UNL     1       7.464   8.584  17.713  0.00  0.00    +0.000 C 
BRANCH  16  17
ATOM     17  C   UNL     1       7.561   7.089  17.403  0.00  0.00    +0.000 C 
ATOM     18  O   UNL     1       7.744   6.645  16.272  0.00  0.00    +0.000 OA
BRANCH  17  19
ATOM     19  C   UNL     1       7.450   6.161  18.576  0.00  0.00    +0.000 C 
BRANCH  19  20
ATOM     20  N   UNL     1       6.280   5.341  18.425  0.00  0.00    +0.000 N 
ATOM     21  N   UNL     1       6.160   4.420  17.460  0.00  0.00    +0.000 NA
ATOM     22  N   UNL     1       5.008   3.818  17.711  0.00  0.00    +0.000 NA
ATOM     23  C   UNL     1       4.472   4.438  18.815  0.00  0.00    +0.000 A 
ATOM     24  N   UNL     1       5.252   5.425  19.286  0.00  0.00    +0.000 NA
BRANCH  23  25
ATOM     25  C   UNL     1       3.149   4.078  19.401  0.00  0.00    +0.000 A 
ATOM     26  C   UNL     1       2.506   2.875  19.190  0.00  0.00    +0.000 A 
ATOM     27  C   UNL     1       1.223   2.844  19.819  0.00  0.00    +0.000 A 
ATOM     28  C   UNL     1       0.939   4.021  20.474  0.00  0.00    +0.000 A 
ATOM     29  S   UNL     1       2.246   5.123  20.402  0.00  0.00    +0.000 S 
ENDBRANCH  23  25
ENDBRANCH  19  20
ENDBRANCH  17  19
ENDBRANCH  16  17
ENDBRANCH   1  16
TORSDOF 13
ENDMDL
MODEL 5
REMARK VINA RESULT:      -6.3      5.527      9.550
REMARK  Name = 
REMARK  14 active torsions:
REMARK  status: ('A' for Active; 'I' for Inactive)
REMARK    1  A    between atoms: C_1  and  C_2
REMARK    2  A    between atoms: C_2  and  C_3
REMARK    3  A    between atoms: C_3  and  C_4
REMARK    4  A    between atoms: C_4  and  C_5
REMARK    5  A    between atoms: C_5  and  C_6
REMARK    6  A    between atoms: C_6  and  C_7
REMARK    7  A    between atoms: C_7  and  C_8
REMARK    8  A    between atoms: C_8  and  C_9
REMARK    9  A    between atoms: C_12  and  O_13
REMARK   10  A    between atoms: O_13  and  C_14
REMARK   11  A    between atoms: C_14  and  C_15
REMARK   12  A    between atoms: C_15  and  C_17
REMARK   13  A    between atoms: C_17  and  N_18
REMARK   14  A    between atoms: C_21  and  C_22
REMARK                            x       y       z     vdW  Elec       q    Type
REMARK                         _______ _______ _______ _____ _____    ______ ____
ROOT
ATOM      1  O   UNL     1       3.551   7.108  17.090  0.00  0.00    +0.000 OA
ENDROOT
BRANCH   1   5
ATOM      2  C   UNL     1       1.147   9.042  19.883  0.00  0.00    +0.000 A 
ATOM      3  C   UNL     1       1.351   9.545  18.593  0.00  0.00    +0.000 A 
ATOM      4  C   UNL     1       2.168   8.865  17.695  0.00  0.00    +0.000 A 
ATOM      5  C   UNL     1       2.804   7.686  18.073  0.00  0.00    +0.000 A 
ATOM      6  C   UNL     1       2.600   7.163  19.349  0.00  0.00    +0.000 A 
ATOM      7  C   UNL     1       1.775   7.844  20.252  0.00  0.00    +0.000 A 
BRANCH   2   8
ATOM      8  C   UNL     1       0.269   9.787  20.858  0.00  0.00    +0.000 C 
BRANCH   8   9
ATOM      9  C   UNL     1       0.379   9.216  22.272  0.00  0.00    +0.000 C 
BRANCH   9  10
ATOM     10  C   UNL     1      -0.608   9.885  23.220  0.00  0.00    +0.000 C 
BRANCH  10  11
ATOM     11  C   UNL     1      -1.087  11.208  22.631  0.00  0.00    +0.000 C 
BRANCH  11  12
ATOM     12  C   UNL     1      -2.215  11.805  23.466  0.00  0.00    +0.000 C 
BRANCH  12  13
ATOM     13  C   UNL     1      -3.035  12.790  22.637  0.00  0.00    +0.000 C 
BRANCH  13  15
ATOM     14  C   UNL     1      -4.885  12.616  24.325  0.00  0.00    +0.000 C 
ATOM     15  C   UNL     1      -4.015  13.563  23.514  0.00  0.00    +0.000 C 
ENDBRANCH  13  15
ENDBRANCH  12  13
ENDBRANCH  11  12
ENDBRANCH  10  11
ENDBRANCH   9  10
ENDBRANCH   8   9
ENDBRANCH   2   8
ENDBRANCH   1   5
BRANCH   1  16
ATOM     16  C   UNL     1       4.959   7.257  17.182  0.00  0.00    +0.000 C 
BRANCH  16  17
ATOM     17  C   UNL     1       5.595   6.334  16.141  0.00  0.00    +0.000 C 
ATOM     18  O   UNL     1       5.458   6.489  14.929  0.00  0.00    +0.000 OA
BRANCH  17  19
ATOM     19  C   UNL     1       6.444   5.218  16.674  0.00  0.00    +0.000 C 
BRANCH  19  20
ATOM     20  N   UNL     1       5.752   4.568  17.753  0.00  0.00    +0.000 N 
ATOM     21  N   UNL     1       6.344   4.264  18.915  0.00  0.00    +0.000 NA
ATOM     22  N   UNL     1       5.371   3.779  19.671  0.00  0.00    +0.000 NA
ATOM     23  C   UNL     1       4.231   3.789  18.901  0.00  0.00    +0.000 A 
ATOM     24  N   UNL     1       4.444   4.272  17.666  0.00  0.00    +0.000 NA
BRANCH  23  25
ATOM     25  C   UNL     1       2.912   3.281  19.376  0.00  0.00    +0.000 A 
ATOM     26  C   UNL     1       1.943   2.745  18.552  0.00  0.00    +0.000 A 
ATOM     27  C   UNL     1       0.758   2.412  19.278  0.00  0.00    +0.000 A 
ATOM     28  C   UNL     1       0.870   2.712  20.617  0.00  0.00    +0.000 A 
ATOM     29  S   UNL     1       2.423   3.313  21.010  0.00  0.00    +0.000 S 
ENDBRANCH  23  25
ENDBRANCH  19  20
ENDBRANCH  17  19
ENDBRANCH  16  17
ENDBRANCH   1  16
TORSDOF 13
ENDMDL
MODEL 6
REMARK VINA RESULT:      -6.2      8.055     11.409
REMARK  Name = 
REMARK  14 active torsions:
REMARK  status: ('A' for Active; 'I' for Inactive)
REMARK    1  A    between atoms: C_1  and  C_2
REMARK    2  A    between atoms: C_2  and  C_3
REMARK    3  A    between atoms: C_3  and  C_4
REMARK    4  A    between atoms: C_4  and  C_5
REMARK    5  A    between atoms: C_5  and  C_6
REMARK    6  A    between atoms: C_6  and  C_7
REMARK    7  A    between atoms: C_7  and  C_8
REMARK    8  A    between atoms: C_8  and  C_9
REMARK    9  A    between atoms: C_12  and  O_13
REMARK   10  A    between atoms: O_13  and  C_14
REMARK   11  A    between atoms: C_14  and  C_15
REMARK   12  A    between atoms: C_15  and  C_17
REMARK   13  A    between atoms: C_17  and  N_18
REMARK   14  A    between atoms: C_21  and  C_22
REMARK                            x       y       z     vdW  Elec       q    Type
REMARK                         _______ _______ _______ _____ _____    ______ ____
ROOT
ATOM      1  O   UNL     1       8.553   9.117  18.873  0.00  0.00    +0.000 OA
ENDROOT
BRANCH   1   5
ATOM      2  C   UNL     1      10.643  12.622  19.682  0.00  0.00    +0.000 A 
ATOM      3  C   UNL     1      10.083  11.833  20.693  0.00  0.00    +0.000 A 
ATOM      4  C   UNL     1       9.388  10.670  20.372  0.00  0.00    +0.000 A 
ATOM      5  C   UNL     1       9.228  10.287  19.044  0.00  0.00    +0.000 A 
ATOM      6  C   UNL     1       9.792  11.054  18.026  0.00  0.00    +0.000 A 
ATOM      7  C   UNL     1      10.495  12.222  18.347  0.00  0.00    +0.000 A 
BRANCH   2   8
ATOM      8  C   UNL     1      11.387  13.887  20.031  0.00  0.00    +0.000 C 
BRANCH   8   9
ATOM      9  C   UNL     1      10.640  14.715  21.077  0.00  0.00    +0.000 C 
BRANCH   9  10
ATOM     10  C   UNL     1       9.815  15.819  20.426  0.00  0.00    +0.000 C 
BRANCH  10  11
ATOM     11  C   UNL     1      10.188  15.954  18.953  0.00  0.00    +0.000 C 
BRANCH  11  12
ATOM     12  C   UNL     1       8.943  16.045  18.078  0.00  0.00    +0.000 C 
BRANCH  12  13
ATOM     13  C   UNL     1       7.682  16.100  18.938  0.00  0.00    +0.000 C 
BRANCH  13  15
ATOM     14  C   UNL     1       7.393  13.980  17.625  0.00  0.00    +0.000 C 
ATOM     15  C   UNL     1       6.771  14.910  18.653  0.00  0.00    +0.000 C 
ENDBRANCH  13  15
ENDBRANCH  12  13
ENDBRANCH  11  12
ENDBRANCH  10  11
ENDBRANCH   9  10
ENDBRANCH   8   9
ENDBRANCH   2   8
ENDBRANCH   1   5
BRANCH   1  16
ATOM     16  C   UNL     1       8.224   8.753  17.541  0.00  0.00    +0.000 C 
BRANCH  16  17
ATOM     17  C   UNL     1       7.403   7.463  17.597  0.00  0.00    +0.000 C 
ATOM     18  O   UNL     1       6.542   7.175  16.768  0.00  0.00    +0.000 OA
BRANCH  17  19
ATOM     19  C   UNL     1       7.723   6.523  18.721  0.00  0.00    +0.000 C 
BRANCH  19  20
ATOM     20  N   UNL     1       6.684   5.535  18.824  0.00  0.00    +0.000 N 
ATOM     21  N   UNL     1       6.840   4.273  18.403  0.00  0.00    +0.000 NA
ATOM     22  N   UNL     1       5.720   3.660  18.757  0.00  0.00    +0.000 NA
ATOM     23  C   UNL     1       4.925   4.608  19.356  0.00  0.00    +0.000 A 
ATOM     24  N   UNL     1       5.504   5.820  19.401  0.00  0.00    +0.000 NA
BRANCH  23  25
ATOM     25  C   UNL     1       3.551   4.329  19.865  0.00  0.00    +0.000 A 
ATOM     26  C   UNL     1       3.115   3.089  20.285  0.00  0.00    +0.000 A 
ATOM     27  C   UNL     1       1.733   3.110  20.648  0.00  0.00    +0.000 A 
ATOM     28  C   UNL     1       1.174   4.357  20.485  0.00  0.00    +0.000 A 
ATOM     29  S   UNL     1       2.329   5.513  19.977  0.00  0.00    +0.000 S 
ENDBRANCH  23  25
ENDBRANCH  19  20
ENDBRANCH  17  19
ENDBRANCH  16  17
ENDBRANCH   1  16
TORSDOF 13
ENDMDL
MODEL 7
REMARK VINA RESULT:      -6.2      7.036      8.445
REMARK  Name = 
REMARK  14 active torsions:
REMARK  status: ('A' for Active; 'I' for Inactive)
REMARK    1  A    between atoms: C_1  and  C_2
REMARK    2  A    between atoms: C_2  and  C_3
REMARK    3  A    between atoms: C_3  and  C_4
REMARK    4  A    between atoms: C_4  and  C_5
REMARK    5  A    between atoms: C_5  and  C_6
REMARK    6  A    between atoms: C_6  and  C_7
REMARK    7  A    between atoms: C_7  and  C_8
REMARK    8  A    between atoms: C_8  and  C_9
REMARK    9  A    between atoms: C_12  and  O_13
REMARK   10  A    between atoms: O_13  and  C_14
REMARK   11  A    between atoms: C_14  and  C_15
REMARK   12  A    between atoms: C_15  and  C_17
REMARK   13  A    between atoms: C_17  and  N_18
REMARK   14  A    between atoms: C_21  and  C_22
REMARK                            x       y       z     vdW  Elec       q    Type
REMARK                         _______ _______ _______ _____ _____    ______ ____
ROOT
ATOM      1  O   UNL     1       8.548   9.822  18.056  0.00  0.00    +0.000 OA
ENDROOT
BRANCH   1   5
ATOM      2  C   UNL     1       6.972   5.971  18.039  0.00  0.00    +0.000 A 
ATOM      3  C   UNL     1       8.033   6.343  18.872  0.00  0.00    +0.000 A 
ATOM      4  C   UNL     1       8.530   7.643  18.839  0.00  0.00    +0.000 A 
ATOM      5  C   UNL     1       7.989   8.584  17.967  0.00  0.00    +0.000 A 
ATOM      6  C   UNL     1       6.921   8.233  17.141  0.00  0.00    +0.000 A 
ATOM      7  C   UNL     1       6.419   6.927  17.176  0.00  0.00    +0.000 A 
BRANCH   2   8
ATOM      8  C   UNL     1       6.443   4.558  18.070  0.00  0.00    +0.000 C 
BRANCH   8   9
ATOM      9  C   UNL     1       5.117   4.465  18.824  0.00  0.00    +0.000 C 
BRANCH   9  10
ATOM     10  C   UNL     1       4.010   3.907  17.937  0.00  0.00    +0.000 C 
BRANCH  10  11
ATOM     11  C   UNL     1       2.900   4.939  17.773  0.00  0.00    +0.000 C 
BRANCH  11  12
ATOM     12  C   UNL     1       1.528   4.274  17.767  0.00  0.00    +0.000 C 
BRANCH  12  13
ATOM     13  C   UNL     1       1.493   3.104  18.748  0.00  0.00    +0.000 C 
BRANCH  13  15
ATOM     14  C   UNL     1       1.980   3.747  21.126  0.00  0.00    +0.000 C 
ATOM     15  C   UNL     1       0.893   3.529  20.086  0.00  0.00    +0.000 C 
ENDBRANCH  13  15
ENDBRANCH  12  13
ENDBRANCH  11  12
ENDBRANCH  10  11
ENDBRANCH   9  10
ENDBRANCH   8   9
ENDBRANCH   2   8
ENDBRANCH   1   5
BRANCH   1  16
ATOM     16  C   UNL     1       9.242  10.129  19.255  0.00  0.00    +0.000 C 
BRANCH  16  17
ATOM     17  C   UNL     1      10.269  11.217  18.936  0.00  0.00    +0.000 C 
ATOM     18  O   UNL     1      11.280  11.409  19.609  0.00  0.00    +0.000 OA
BRANCH  17  19
ATOM     19  C   UNL     1      10.000  12.044  17.714  0.00  0.00    +0.000 C 
BRANCH  19  20
ATOM     20  N   UNL     1       9.270  13.223  18.090  0.00  0.00    +0.000 N 
ATOM     21  N   UNL     1       9.864  14.319  18.579  0.00  0.00    +0.000 NA
ATOM     22  N   UNL     1       8.887  15.204  18.704  0.00  0.00    +0.000 NA
ATOM     23  C   UNL     1       7.732  14.575  18.306  0.00  0.00    +0.000 A 
ATOM     24  N   UNL     1       7.939  13.304  17.922  0.00  0.00    +0.000 NA
BRANCH  23  25
ATOM     25  C   UNL     1       6.389  15.222  18.334  0.00  0.00    +0.000 A 
ATOM     26  C   UNL     1       5.238  14.649  17.834  0.00  0.00    +0.000 A 
ATOM     27  C   UNL     1       4.120  15.534  17.935  0.00  0.00    +0.000 A 
ATOM     28  C   UNL     1       4.464  16.740  18.499  0.00  0.00    +0.000 A 
ATOM     29  S   UNL     1       6.106  16.775  18.980  0.00  0.00    +0.000 S 
ENDBRANCH  23  25
ENDBRANCH  19  20
ENDBRANCH  17  19
ENDBRANCH  16  17
ENDBRANCH   1  16
TORSDOF 13
ENDMDL
MODEL 8
REMARK VINA RESULT:      -6.2      2.598      3.187
REMARK  Name = 
REMARK  14 active torsions:
REMARK  status: ('A' for Active; 'I' for Inactive)
REMARK    1  A    between atoms: C_1  and  C_2
REMARK    2  A    between atoms: C_2  and  C_3
REMARK    3  A    between atoms: C_3  and  C_4
REMARK    4  A    between atoms: C_4  and  C_5
REMARK    5  A    between atoms: C_5  and  C_6
REMARK    6  A    between atoms: C_6  and  C_7
REMARK    7  A    between atoms: C_7  and  C_8
REMARK    8  A    between atoms: C_8  and  C_9
REMARK    9  A    between atoms: C_12  and  O_13
REMARK   10  A    between atoms: O_13  and  C_14
REMARK   11  A    between atoms: C_14  and  C_15
REMARK   12  A    between atoms: C_15  and  C_17
REMARK   13  A    between atoms: C_17  and  N_18
REMARK   14  A    between atoms: C_21  and  C_22
REMARK                            x       y       z     vdW  Elec       q    Type
REMARK                         _______ _______ _______ _____ _____    ______ ____
ROOT
ATOM      1  O   UNL     1       1.081   9.081  19.150  0.00  0.00    +0.000 OA
ENDROOT
BRANCH   1   5
ATOM      2  C   UNL     1       3.945   6.159  18.394  0.00  0.00    +0.000 A 
ATOM      3  C   UNL     1       3.703   7.218  17.512  0.00  0.00    +0.000 A 
ATOM      4  C   UNL     1       2.731   8.170  17.805  0.00  0.00    +0.000 A 
ATOM      5  C   UNL     1       1.977   8.071  18.971  0.00  0.00    +0.000 A 
ATOM      6  C   UNL     1       2.215   7.031  19.868  0.00  0.00    +0.000 A 
ATOM      7  C   UNL     1       3.196   6.075  19.576  0.00  0.00    +0.000 A 
BRANCH   2   8
ATOM      8  C   UNL     1       4.993   5.123  18.068  0.00  0.00    +0.000 C 
BRANCH   8   9
ATOM      9  C   UNL     1       4.586   3.733  18.553  0.00  0.00    +0.000 C 
BRANCH   9  10
ATOM     10  C   UNL     1       3.881   2.944  17.455  0.00  0.00    +0.000 C 
BRANCH  10  11
ATOM     11  C   UNL     1       2.370   3.109  17.578  0.00  0.00    +0.000 C 
BRANCH  11  12
ATOM     12  C   UNL     1       1.831   2.347  18.784  0.00  0.00    +0.000 C 
BRANCH  12  13
ATOM     13  C   UNL     1       0.892   3.229  19.603  0.00  0.00    +0.000 C 
BRANCH  13  15
ATOM     14  C   UNL     1       2.595   2.830  21.404  0.00  0.00    +0.000 C 
ATOM     15  C   UNL     1       1.120   3.033  21.099  0.00  0.00    +0.000 C 
ENDBRANCH  13  15
ENDBRANCH  12  13
ENDBRANCH  11  12
ENDBRANCH  10  11
ENDBRANCH   9  10
ENDBRANCH   8   9
ENDBRANCH   2   8
ENDBRANCH   1   5
BRANCH   1  16
ATOM     16  C   UNL     1       1.452  10.362  18.665  0.00  0.00    +0.000 C 
BRANCH  16  17
ATOM     17  C   UNL     1       0.388  11.362  19.123  0.00  0.00    +0.000 C 
ATOM     18  O   UNL     1       0.429  12.561  18.854  0.00  0.00    +0.000 OA
BRANCH  17  19
ATOM     19  C   UNL     1      -0.756  10.797  19.911  0.00  0.00    +0.000 C 
BRANCH  19  20
ATOM     20  N   UNL     1      -0.965  11.598  21.086  0.00  0.00    +0.000 N 
ATOM     21  N   UNL     1      -0.062  11.692  22.070  0.00  0.00    +0.000 NA
ATOM     22  N   UNL     1      -0.568  12.584  22.907  0.00  0.00    +0.000 NA
ATOM     23  C   UNL     1      -1.783  12.965  22.390  0.00  0.00    +0.000 A 
ATOM     24  N   UNL     1      -2.074  12.342  21.236  0.00  0.00    +0.000 NA
BRANCH  23  25
ATOM     25  C   UNL     1      -2.696  13.934  23.060  0.00  0.00    +0.000 A 
ATOM     26  C   UNL     1      -3.985  14.204  22.646  0.00  0.00    +0.000 A 
ATOM     27  C   UNL     1      -4.591  15.229  23.437  0.00  0.00    +0.000 A 
ATOM     28  C   UNL     1      -3.741  15.701  24.411  0.00  0.00    +0.000 A 
ATOM     29  S   UNL     1      -2.254  14.856  24.426  0.00  0.00    +0.000 S 
ENDBRANCH  23  25
ENDBRANCH  19  20
ENDBRANCH  17  19
ENDBRANCH  16  17
ENDBRANCH   1  16
TORSDOF 13
ENDMDL
MODEL 9
REMARK VINA RESULT:      -6.2      7.311      8.682
REMARK  Name = 
REMARK  14 active torsions:
REMARK  status: ('A' for Active; 'I' for Inactive)
REMARK    1  A    between atoms: C_1  and  C_2
REMARK    2  A    between atoms: C_2  and  C_3
REMARK    3  A    between atoms: C_3  and  C_4
REMARK    4  A    between atoms: C_4  and  C_5
REMARK    5  A    between atoms: C_5  and  C_6
REMARK    6  A    between atoms: C_6  and  C_7
REMARK    7  A    between atoms: C_7  and  C_8
REMARK    8  A    between atoms: C_8  and  C_9
REMARK    9  A    between atoms: C_12  and  O_13
REMARK   10  A    between atoms: O_13  and  C_14
REMARK   11  A    between atoms: C_14  and  C_15
REMARK   12  A    between atoms: C_15  and  C_17
REMARK   13  A    between atoms: C_17  and  N_18
REMARK   14  A    between atoms: C_21  and  C_22
REMARK                            x       y       z     vdW  Elec       q    Type
REMARK                         _______ _______ _______ _____ _____    ______ ____
ROOT
ATOM      1  O   UNL     1       8.470   8.137  18.720  0.00  0.00    +0.000 OA
ENDROOT
BRANCH   1   5
ATOM      2  C   UNL     1       6.429   5.033  16.846  0.00  0.00    +0.000 A 
ATOM      3  C   UNL     1       6.389   6.350  16.374  0.00  0.00    +0.000 A 
ATOM      4  C   UNL     1       7.085   7.356  17.037  0.00  0.00    +0.000 A 
ATOM      5  C   UNL     1       7.815   7.069  18.187  0.00  0.00    +0.000 A 
ATOM      6  C   UNL     1       7.877   5.760  18.663  0.00  0.00    +0.000 A 
ATOM      7  C   UNL     1       7.181   4.746  17.994  0.00  0.00    +0.000 A 
BRANCH   2   8
ATOM      8  C   UNL     1       5.665   3.947  16.131  0.00  0.00    +0.000 C 
BRANCH   8   9
ATOM      9  C   UNL     1       4.324   3.658  16.805  0.00  0.00    +0.000 C 
BRANCH   9  10
ATOM     10  C   UNL     1       3.718   4.923  17.402  0.00  0.00    +0.000 C 
BRANCH  10  11
ATOM     11  C   UNL     1       3.454   4.726  18.891  0.00  0.00    +0.000 C 
BRANCH  11  12
ATOM     12  C   UNL     1       3.022   3.294  19.187  0.00  0.00    +0.000 C 
BRANCH  12  13
ATOM     13  C   UNL     1       1.499   3.183  19.200  0.00  0.00    +0.000 C 
BRANCH  13  15
ATOM     14  C   UNL     1       1.683   2.765  21.668  0.00  0.00    +0.000 C 
ATOM     15  C   UNL     1       0.936   3.516  20.578  0.00  0.00    +0.000 C 
ENDBRANCH  13  15
ENDBRANCH  12  13
ENDBRANCH  11  12
ENDBRANCH  10  11
ENDBRANCH   9  10
ENDBRANCH   8   9
ENDBRANCH   2   8
ENDBRANCH   1   5
BRANCH   1  16
ATOM     16  C   UNL     1       8.343   9.375  18.038  0.00  0.00    +0.000 C 
BRANCH  16  17
ATOM     17  C   UNL     1       9.171  10.414  18.796  0.00  0.00    +0.000 C 
ATOM     18  O   UNL     1       9.413  10.338  19.998  0.00  0.00    +0.000 OA
BRANCH  17  19
ATOM     19  C   UNL     1       9.717  11.549  17.981  0.00  0.00    +0.000 C 
BRANCH  19  20
ATOM     20  N   UNL     1       8.798  12.653  18.027  0.00  0.00    +0.000 N 
ATOM     21  N   UNL     1       7.824  12.824  17.124  0.00  0.00    +0.000 NA
ATOM     22  N   UNL     1       7.143  13.874  17.559  0.00  0.00    +0.000 NA
ATOM     23  C   UNL     1       7.772  14.304  18.703  0.00  0.00    +0.000 A 
ATOM     24  N   UNL     1       8.842  13.556  19.021  0.00  0.00    +0.000 NA
BRANCH  23  25
ATOM     25  C   UNL     1       7.335  15.497  19.484  0.00  0.00    +0.000 A 
ATOM     26  C   UNL     1       7.060  15.484  20.836  0.00  0.00    +0.000 A 
ATOM     27  C   UNL     1       6.593  16.756  21.293  0.00  0.00    +0.000 A 
ATOM     28  C   UNL     1       6.525  17.678  20.274  0.00  0.00    +0.000 A 
ATOM     29  S   UNL     1       7.100  17.040  18.795  0.00  0.00    +0.000 S 
ENDBRANCH  23  25
ENDBRANCH  19  20
ENDBRANCH  17  19
ENDBRANCH  16  17
ENDBRANCH   1  16
TORSDOF 13
ENDMDL
