MODEL 1
REMARK VINA RESULT:      -7.2      0.000      0.000
REMARK  Name = 
REMARK  7 active torsions:
REMARK  status: ('A' for Active; 'I' for Inactive)
REMARK    1  A    between atoms: C_1  and  C_2
REMARK    2  A    between atoms: C_2  and  C_3
REMARK    3  A    between atoms: C_3  and  C_4
REMARK    4  A    between atoms: C_7  and  C_8
REMARK    5  A    between atoms: C_8  and  O_10
REMARK    6  A    between atoms: C_20  and  C_21
REMARK    7  A    between atoms: C_21  and  O_23
REMARK                            x       y       z     vdW  Elec       q    Type
REMARK                         _______ _______ _______ _____ _____    ______ ____
ROOT
ATOM      1  C   UNL     1       2.124   6.083  19.852  0.00  0.00    +0.000 A 
ATOM      2  C   UNL     1       1.856   7.450  19.610  0.00  0.00    +0.000 A 
ATOM      3  O   UNL     1       1.046   8.120  20.504  0.00  0.00    +0.000 OA
ATOM      4  C   UNL     1       0.723   9.442  20.250  0.00  0.00    +0.000 A 
ATOM      5  C   UNL     1       1.183  10.155  19.214  0.00  0.00    +0.000 A 
ATOM      6  C   UNL     1       2.086   9.510  18.256  0.00  0.00    +0.000 A 
ATOM      7  O   UNL     1       2.536  10.126  17.300  0.00  0.00    +0.000 OA
ATOM      8  C   UNL     1       2.407   8.098  18.500  0.00  0.00    +0.000 A 
ATOM      9  C   UNL     1       3.246   7.415  17.622  0.00  0.00    +0.000 A 
ATOM     10  C   UNL     1       3.534   6.071  17.865  0.00  0.00    +0.000 A 
ATOM     11  C   UNL     1       4.427   5.347  16.947  0.00  0.00    +0.000 A 
ATOM     12  O   UNL     1       4.931   5.884  15.972  0.00  0.00    +0.000 OA
ATOM     13  C   UNL     1       4.687   3.941  17.258  0.00  0.00    +0.000 A 
ATOM     14  C   UNL     1       4.112   3.396  18.339  0.00  0.00    +0.000 A 
ATOM     15  O   UNL     1       3.266   4.069  19.209  0.00  0.00    +0.000 OA
ATOM     16  C   UNL     1       2.985   5.400  18.964  0.00  0.00    +0.000 A 
ENDROOT
BRANCH   4  17
ATOM     17  C   UNL     1      -0.204  10.135  21.186  0.00  0.00    +0.000 C 
ATOM     18  O   UNL     1      -0.710  11.223  20.973  0.00  0.00    +0.000 OA
BRANCH  17  19
ATOM     19  O   UNL     1      -0.442   9.422  22.310  0.00  0.00    +0.000 OA
ATOM     20  H   UNL     1       0.080   8.601  22.373  0.00  0.00    +0.000 HD
ENDBRANCH  17  19
ENDBRANCH   4  17
BRANCH  14  21
ATOM     21  C   UNL     1       4.418   1.961  18.602  0.00  0.00    +0.000 C 
ATOM     22  O   UNL     1       4.050   1.037  17.901  0.00  0.00    +0.000 OA
BRANCH  21  23
ATOM     23  O   UNL     1       5.155   1.784  19.722  0.00  0.00    +0.000 OA
ATOM     24  H   UNL     1       5.922   2.381  19.785  0.00  0.00    +0.000 HD
ENDBRANCH  21  23
ENDBRANCH  14  21
BRANCH   1  25
ATOM     25  C   UNL     1       1.502   5.379  21.043  0.00  0.00    +0.000 C 
BRANCH  25  27
ATOM     26  C   UNL     1       1.394   2.914  21.585  0.00  0.00    +0.000 C 
ATOM     27  C   UNL     1       0.892   4.021  20.675  0.00  0.00    +0.000 C 
ENDBRANCH  25  27
ENDBRANCH   1  25
TORSDOF 6
ENDMDL
MODEL 2
REMARK VINA RESULT:      -7.2      0.086      6.440
REMARK  Name = 
REMARK  7 active torsions:
REMARK  status: ('A' for Active; 'I' for Inactive)
REMARK    1  A    between atoms: C_1  and  C_2
REMARK    2  A    between atoms: C_2  and  C_3
REMARK    3  A    between atoms: C_3  and  C_4
REMARK    4  A    between atoms: C_7  and  C_8
REMARK    5  A    between atoms: C_8  and  O_10
REMARK    6  A    between atoms: C_20  and  C_21
REMARK    7  A    between atoms: C_21  and  O_23
REMARK                            x       y       z     vdW  Elec       q    Type
REMARK                         _______ _______ _______ _____ _____    ______ ____
ROOT
ATOM      1  C   UNL     1       2.119   6.076  19.890  0.00  0.00    +0.000 A 
ATOM      2  C   UNL     1       2.959   5.413  18.965  0.00  0.00    +0.000 A 
ATOM      3  O   UNL     1       3.215   4.073  19.169  0.00  0.00    +0.000 OA
ATOM      4  C   UNL     1       4.084   3.422  18.309  0.00  0.00    +0.000 A 
ATOM      5  C   UNL     1       4.669   3.985  17.244  0.00  0.00    +0.000 A 
ATOM      6  C   UNL     1       4.397   5.395  16.950  0.00  0.00    +0.000 A 
ATOM      7  O   UNL     1       4.903   5.948  15.984  0.00  0.00    +0.000 OA
ATOM      8  C   UNL     1       3.502   6.102  17.877  0.00  0.00    +0.000 A 
ATOM      9  C   UNL     1       3.211   7.448  17.670  0.00  0.00    +0.000 A 
ATOM     10  C   UNL     1       2.365   8.106  18.564  0.00  0.00    +0.000 A 
ATOM     11  C   UNL     1       2.046   9.524  18.346  0.00  0.00    +0.000 A 
ATOM     12  O   UNL     1       2.497  10.155  17.401  0.00  0.00    +0.000 OA
ATOM     13  C   UNL     1       1.154  10.154  19.320  0.00  0.00    +0.000 A 
ATOM     14  C   UNL     1       0.684   9.422  20.340  0.00  0.00    +0.000 A 
ATOM     15  O   UNL     1       0.981   8.084  20.556  0.00  0.00    +0.000 OA
ATOM     16  C   UNL     1       1.818   7.439  19.667  0.00  0.00    +0.000 A 
ENDROOT
BRANCH   4  17
ATOM     17  C   UNL     1       4.404   1.994  18.576  0.00  0.00    +0.000 C 
ATOM     18  O   UNL     1       4.056   1.066  17.866  0.00  0.00    +0.000 OA
BRANCH  17  19
ATOM     19  O   UNL     1       5.140   1.822  19.697  0.00  0.00    +0.000 OA
ATOM     20  H   UNL     1       5.537   2.646  20.036  0.00  0.00    +0.000 HD
ENDBRANCH  17  19
ENDBRANCH   4  17
BRANCH  14  21
ATOM     21  C   UNL     1      -0.221  10.121  21.297  0.00  0.00    +0.000 C 
ATOM     22  O   UNL     1      -0.634  11.256  21.153  0.00  0.00    +0.000 OA
BRANCH  21  23
ATOM     23  O   UNL     1      -0.539   9.354  22.365  0.00  0.00    +0.000 OA
ATOM     24  H   UNL     1       0.232   9.074  22.889  0.00  0.00    +0.000 HD
ENDBRANCH  21  23
ENDBRANCH  14  21
BRANCH   1  25
ATOM     25  C   UNL     1       1.554   5.331  21.084  0.00  0.00    +0.000 C 
BRANCH  25  27
ATOM     26  C   UNL     1       1.450   2.860  21.596  0.00  0.00    +0.000 C 
ATOM     27  C   UNL     1       0.944   3.977  20.702  0.00  0.00    +0.000 C 
ENDBRANCH  25  27
ENDBRANCH   1  25
TORSDOF 6
ENDMDL
MODEL 3
REMARK VINA RESULT:      -7.1      1.452      3.747
REMARK  Name = 
REMARK  7 active torsions:
REMARK  status: ('A' for Active; 'I' for Inactive)
REMARK    1  A    between atoms: C_1  and  C_2
REMARK    2  A    between atoms: C_2  and  C_3
REMARK    3  A    between atoms: C_3  and  C_4
REMARK    4  A    between atoms: C_7  and  C_8
REMARK    5  A    between atoms: C_8  and  O_10
REMARK    6  A    between atoms: C_20  and  C_21
REMARK    7  A    between atoms: C_21  and  O_23
REMARK                            x       y       z     vdW  Elec       q    Type
REMARK                         _______ _______ _______ _____ _____    ______ ____
ROOT
ATOM      1  C   UNL     1       2.726   6.999  18.375  0.00  0.00    +0.000 A 
ATOM      2  C   UNL     1       2.092   8.039  19.093  0.00  0.00    +0.000 A 
ATOM      3  O   UNL     1       2.047   9.291  18.514  0.00  0.00    +0.000 OA
ATOM      4  C   UNL     1       1.485  10.336  19.228  0.00  0.00    +0.000 A 
ATOM      5  C   UNL     1       0.924  10.219  20.439  0.00  0.00    +0.000 A 
ATOM      6  C   UNL     1       0.901   8.903  21.083  0.00  0.00    +0.000 A 
ATOM      7  O   UNL     1       0.392   8.749  22.185  0.00  0.00    +0.000 OA
ATOM      8  C   UNL     1       1.525   7.796  20.347  0.00  0.00    +0.000 A 
ATOM      9  C   UNL     1       1.554   6.520  20.905  0.00  0.00    +0.000 A 
ATOM     10  C   UNL     1       2.158   5.482  20.195  0.00  0.00    +0.000 A 
ATOM     11  C   UNL     1       2.184   4.130  20.774  0.00  0.00    +0.000 A 
ATOM     12  O   UNL     1       1.691   3.881  21.865  0.00  0.00    +0.000 OA
ATOM     13  C   UNL     1       2.832   3.087  19.979  0.00  0.00    +0.000 A 
ATOM     14  C   UNL     1       3.358   3.409  18.788  0.00  0.00    +0.000 A 
ATOM     15  O   UNL     1       3.342   4.681  18.234  0.00  0.00    +0.000 OA
ATOM     16  C   UNL     1       2.742   5.705  18.942  0.00  0.00    +0.000 A 
ENDROOT
BRANCH   4  17
ATOM     17  C   UNL     1       1.500  11.695  18.621  0.00  0.00    +0.000 C 
ATOM     18  O   UNL     1       0.791  12.618  18.983  0.00  0.00    +0.000 OA
BRANCH  17  19
ATOM     19  O   UNL     1       2.399  11.810  17.617  0.00  0.00    +0.000 OA
ATOM     20  H   UNL     1       2.969  11.027  17.509  0.00  0.00    +0.000 HD
ENDBRANCH  17  19
ENDBRANCH   4  17
BRANCH  14  21
ATOM     21  C   UNL     1       4.003   2.302  18.026  0.00  0.00    +0.000 C 
ATOM     22  O   UNL     1       3.796   1.119  18.220  0.00  0.00    +0.000 OA
BRANCH  21  23
ATOM     23  O   UNL     1       4.862   2.752  17.083  0.00  0.00    +0.000 OA
ATOM     24  H   UNL     1       4.554   3.553  16.623  0.00  0.00    +0.000 HD
ENDBRANCH  21  23
ENDBRANCH  14  21
BRANCH   1  25
ATOM     25  C   UNL     1       3.364   7.275  17.026  0.00  0.00    +0.000 C 
BRANCH  25  27
ATOM     26  C   UNL     1       5.329   6.246  15.819  0.00  0.00    +0.000 C 
ATOM     27  C   UNL     1       4.879   7.043  17.030  0.00  0.00    +0.000 C 
ENDBRANCH  25  27
ENDBRANCH   1  25
TORSDOF 6
ENDMDL
MODEL 4
REMARK VINA RESULT:      -7.0      1.438      7.301
REMARK  Name = 
REMARK  7 active torsions:
REMARK  status: ('A' for Active; 'I' for Inactive)
REMARK    1  A    between atoms: C_1  and  C_2
REMARK    2  A    between atoms: C_2  and  C_3
REMARK    3  A    between atoms: C_3  and  C_4
REMARK    4  A    between atoms: C_7  and  C_8
REMARK    5  A    between atoms: C_8  and  O_10
REMARK    6  A    between atoms: C_20  and  C_21
REMARK    7  A    between atoms: C_21  and  O_23
REMARK                            x       y       z     vdW  Elec       q    Type
REMARK                         _______ _______ _______ _____ _____    ______ ____
ROOT
ATOM      1  C   UNL     1       2.671   6.949  18.447  0.00  0.00    +0.000 A 
ATOM      2  C   UNL     1       2.706   5.655  19.015  0.00  0.00    +0.000 A 
ATOM      3  O   UNL     1       3.361   4.660  18.320  0.00  0.00    +0.000 OA
ATOM      4  C   UNL     1       3.353   3.372  18.830  0.00  0.00    +0.000 A 
ATOM      5  C   UNL     1       2.794   3.017  19.995  0.00  0.00    +0.000 A 
ATOM      6  C   UNL     1       2.124   4.042  20.800  0.00  0.00    +0.000 A 
ATOM      7  O   UNL     1       1.607   3.763  21.873  0.00  0.00    +0.000 OA
ATOM      8  C   UNL     1       2.099   5.403  20.249  0.00  0.00    +0.000 A 
ATOM      9  C   UNL     1       1.467   6.426  20.953  0.00  0.00    +0.000 A 
ATOM     10  C   UNL     1       1.446   7.711  20.411  0.00  0.00    +0.000 A 
ATOM     11  C   UNL     1       0.788   8.797  21.152  0.00  0.00    +0.000 A 
ATOM     12  O   UNL     1       0.254   8.614  22.237  0.00  0.00    +0.000 OA
ATOM     13  C   UNL     1       0.802  10.121  20.528  0.00  0.00    +0.000 A 
ATOM     14  C   UNL     1       1.400  10.273  19.338  0.00  0.00    +0.000 A 
ATOM     15  O   UNL     1       2.020   9.255  18.629  0.00  0.00    +0.000 OA
ATOM     16  C   UNL     1       2.038   7.984  19.171  0.00  0.00    +0.000 A 
ENDROOT
BRANCH   4  17
ATOM     17  C   UNL     1       4.006   2.294  18.040  0.00  0.00    +0.000 C 
ATOM     18  O   UNL     1       3.798   1.103  18.197  0.00  0.00    +0.000 OA
BRANCH  17  19
ATOM     19  O   UNL     1       4.859   2.773  17.107  0.00  0.00    +0.000 OA
ATOM     20  H   UNL     1       5.268   2.080  16.556  0.00  0.00    +0.000 HD
ENDBRANCH  17  19
ENDBRANCH   4  17
BRANCH  14  21
ATOM     21  C   UNL     1       1.381  11.645  18.756  0.00  0.00    +0.000 C 
ATOM     22  O   UNL     1       0.656  12.546  19.136  0.00  0.00    +0.000 OA
BRANCH  21  23
ATOM     23  O   UNL     1       2.262  11.791  17.741  0.00  0.00    +0.000 OA
ATOM     24  H   UNL     1       1.846  12.026  16.892  0.00  0.00    +0.000 HD
ENDBRANCH  21  23
ENDBRANCH  14  21
BRANCH   1  25
ATOM     25  C   UNL     1       3.308   7.211  17.095  0.00  0.00    +0.000 C 
BRANCH  25  27
ATOM     26  C   UNL     1       5.293   6.235  15.876  0.00  0.00    +0.000 C 
ATOM     27  C   UNL     1       4.825   6.996  17.104  0.00  0.00    +0.000 C 
ENDBRANCH  25  27
ENDBRANCH   1  25
TORSDOF 6
ENDMDL
MODEL 5
REMARK VINA RESULT:      -7.0      1.152      1.440
REMARK  Name = 
REMARK  7 active torsions:
REMARK  status: ('A' for Active; 'I' for Inactive)
REMARK    1  A    between atoms: C_1  and  C_2
REMARK    2  A    between atoms: C_2  and  C_3
REMARK    3  A    between atoms: C_3  and  C_4
REMARK    4  A    between atoms: C_7  and  C_8
REMARK    5  A    between atoms: C_8  and  O_10
REMARK    6  A    between atoms: C_20  and  C_21
REMARK    7  A    between atoms: C_21  and  O_23
REMARK                            x       y       z     vdW  Elec       q    Type
REMARK                         _______ _______ _______ _____ _____    ______ ____
ROOT
ATOM      1  C   UNL     1       2.156   6.461  19.935  0.00  0.00    +0.000 A 
ATOM      2  C   UNL     1       1.708   7.792  20.103  0.00  0.00    +0.000 A 
ATOM      3  O   UNL     1       0.994   8.095  21.244  0.00  0.00    +0.000 OA
ATOM      4  C   UNL     1       0.495   9.378  21.397  0.00  0.00    +0.000 A 
ATOM      5  C   UNL     1       0.696  10.383  20.535  0.00  0.00    +0.000 A 
ATOM      6  C   UNL     1       1.487  10.132  19.327  0.00  0.00    +0.000 A 
ATOM      7  O   UNL     1       1.702  11.023  18.517  0.00  0.00    +0.000 OA
ATOM      8  C   UNL     1       1.992   8.765  19.141  0.00  0.00    +0.000 A 
ATOM      9  C   UNL     1       2.738   8.449  18.008  0.00  0.00    +0.000 A 
ATOM     10  C   UNL     1       3.203   7.143  17.844  0.00  0.00    +0.000 A 
ATOM     11  C   UNL     1       4.000   6.804  16.655  0.00  0.00    +0.000 A 
ATOM     12  O   UNL     1       4.273   7.633  15.798  0.00  0.00    +0.000 OA
ATOM     13  C   UNL     1       4.456   5.419  16.543  0.00  0.00    +0.000 A 
ATOM     14  C   UNL     1       4.132   4.547  17.508  0.00  0.00    +0.000 A 
ATOM     15  O   UNL     1       3.379   4.855  18.632  0.00  0.00    +0.000 OA
ATOM     16  C   UNL     1       2.922   6.150  18.789  0.00  0.00    +0.000 A 
ENDROOT
BRANCH   4  17
ATOM     17  C   UNL     1      -0.328   9.677  22.600  0.00  0.00    +0.000 C 
ATOM     18  O   UNL     1      -0.351  10.755  23.168  0.00  0.00    +0.000 OA
BRANCH  17  19
ATOM     19  O   UNL     1      -1.071   8.621  23.002  0.00  0.00    +0.000 OA
ATOM     20  H   UNL     1      -1.992   8.644  22.684  0.00  0.00    +0.000 HD
ENDBRANCH  17  19
ENDBRANCH   4  17
BRANCH  14  21
ATOM     21  C   UNL     1       4.628   3.152  17.337  0.00  0.00    +0.000 C 
ATOM     22  O   UNL     1       4.187   2.185  17.929  0.00  0.00    +0.000 OA
BRANCH  21  23
ATOM     23  O   UNL     1       5.640   3.067  16.445  0.00  0.00    +0.000 OA
ATOM     24  H   UNL     1       5.657   3.796  15.799  0.00  0.00    +0.000 HD
ENDBRANCH  21  23
ENDBRANCH  14  21
BRANCH   1  25
ATOM     25  C   UNL     1       1.821   5.403  20.969  0.00  0.00    +0.000 C 
BRANCH  25  27
ATOM     26  C   UNL     1       1.291   2.934  21.029  0.00  0.00    +0.000 C 
ATOM     27  C   UNL     1       0.953   4.274  20.402  0.00  0.00    +0.000 C 
ENDBRANCH  25  27
ENDBRANCH   1  25
TORSDOF 6
ENDMDL
MODEL 6
REMARK VINA RESULT:      -7.0      1.147      6.443
REMARK  Name = 
REMARK  7 active torsions:
REMARK  status: ('A' for Active; 'I' for Inactive)
REMARK    1  A    between atoms: C_1  and  C_2
REMARK    2  A    between atoms: C_2  and  C_3
REMARK    3  A    between atoms: C_3  and  C_4
REMARK    4  A    between atoms: C_7  and  C_8
REMARK    5  A    between atoms: C_8  and  O_10
REMARK    6  A    between atoms: C_20  and  C_21
REMARK    7  A    between atoms: C_21  and  O_23
REMARK                            x       y       z     vdW  Elec       q    Type
REMARK                         _______ _______ _______ _____ _____    ______ ____
ROOT
ATOM      1  C   UNL     1       2.174   6.457  19.937  0.00  0.00    +0.000 A 
ATOM      2  C   UNL     1       2.924   6.148  18.780  0.00  0.00    +0.000 A 
ATOM      3  O   UNL     1       3.345   4.845  18.610  0.00  0.00    +0.000 OA
ATOM      4  C   UNL     1       4.133   4.536  17.514  0.00  0.00    +0.000 A 
ATOM      5  C   UNL     1       4.486   5.406  16.558  0.00  0.00    +0.000 A 
ATOM      6  C   UNL     1       4.029   6.794  16.661  0.00  0.00    +0.000 A 
ATOM      7  O   UNL     1       4.321   7.620  15.807  0.00  0.00    +0.000 OA
ATOM      8  C   UNL     1       3.221   7.138  17.838  0.00  0.00    +0.000 A 
ATOM      9  C   UNL     1       2.764   8.443  18.010  0.00  0.00    +0.000 A 
ATOM     10  C   UNL     1       2.003   8.753  19.138  0.00  0.00    +0.000 A 
ATOM     11  C   UNL     1       1.511  10.126  19.322  0.00  0.00    +0.000 A 
ATOM     12  O   UNL     1       1.744  11.014  18.515  0.00  0.00    +0.000 OA
ATOM     13  C   UNL     1       0.720  10.385  20.526  0.00  0.00    +0.000 A 
ATOM     14  C   UNL     1       0.490   9.379  21.381  0.00  0.00    +0.000 A 
ATOM     15  O   UNL     1       0.953   8.081  21.220  0.00  0.00    +0.000 OA
ATOM     16  C   UNL     1       1.704   7.780  20.100  0.00  0.00    +0.000 A 
ENDROOT
BRANCH   4  17
ATOM     17  C   UNL     1       4.635   3.142  17.375  0.00  0.00    +0.000 C 
ATOM     18  O   UNL     1       4.215   2.193  18.013  0.00  0.00    +0.000 OA
BRANCH  17  19
ATOM     19  O   UNL     1       5.612   3.027  16.447  0.00  0.00    +0.000 OA
ATOM     20  H   UNL     1       5.291   2.738  15.573  0.00  0.00    +0.000 HD
ENDBRANCH  17  19
ENDBRANCH   4  17
BRANCH  14  21
ATOM     21  C   UNL     1      -0.323   9.706  22.587  0.00  0.00    +0.000 C 
ATOM     22  O   UNL     1      -0.355  10.798  23.123  0.00  0.00    +0.000 OA
BRANCH  21  23
ATOM     23  O   UNL     1      -1.031   8.647  23.039  0.00  0.00    +0.000 OA
ATOM     24  H   UNL     1      -0.781   7.802  22.625  0.00  0.00    +0.000 HD
ENDBRANCH  21  23
ENDBRANCH  14  21
BRANCH   1  25
ATOM     25  C   UNL     1       1.879   5.385  20.970  0.00  0.00    +0.000 C 
BRANCH  25  27
ATOM     26  C   UNL     1       1.278   2.933  21.009  0.00  0.00    +0.000 C 
ATOM     27  C   UNL     1       0.937   4.298  20.441  0.00  0.00    +0.000 C 
ENDBRANCH  25  27
ENDBRANCH   1  25
TORSDOF 6
ENDMDL
MODEL 7
REMARK VINA RESULT:      -6.9      1.470      7.232
REMARK  Name = 
REMARK  7 active torsions:
REMARK  status: ('A' for Active; 'I' for Inactive)
REMARK    1  A    between atoms: C_1  and  C_2
REMARK    2  A    between atoms: C_2  and  C_3
REMARK    3  A    between atoms: C_3  and  C_4
REMARK    4  A    between atoms: C_7  and  C_8
REMARK    5  A    between atoms: C_8  and  O_10
REMARK    6  A    between atoms: C_20  and  C_21
REMARK    7  A    between atoms: C_21  and  O_23
REMARK                            x       y       z     vdW  Elec       q    Type
REMARK                         _______ _______ _______ _____ _____    ______ ____
ROOT
ATOM      1  C   UNL     1       2.907   6.259  18.657  0.00  0.00    +0.000 A 
ATOM      2  C   UNL     1       2.892   5.047  19.386  0.00  0.00    +0.000 A 
ATOM      3  O   UNL     1       3.583   3.971  18.867  0.00  0.00    +0.000 OA
ATOM      4  C   UNL     1       3.529   2.759  19.536  0.00  0.00    +0.000 A 
ATOM      5  C   UNL     1       2.890   2.555  20.695  0.00  0.00    +0.000 A 
ATOM      6  C   UNL     1       2.177   3.674  21.317  0.00  0.00    +0.000 A 
ATOM      7  O   UNL     1       1.588   3.534  22.380  0.00  0.00    +0.000 OA
ATOM      8  C   UNL     1       2.202   4.954  20.598  0.00  0.00    +0.000 A 
ATOM      9  C   UNL     1       1.533   6.058  21.122  0.00  0.00    +0.000 A 
ATOM     10  C   UNL     1       1.561   7.265  20.421  0.00  0.00    +0.000 A 
ATOM     11  C   UNL     1       0.865   8.437  20.972  0.00  0.00    +0.000 A 
ATOM     12  O   UNL     1       0.258   8.393  22.033  0.00  0.00    +0.000 OA
ATOM     13  C   UNL     1       0.932   9.670  20.188  0.00  0.00    +0.000 A 
ATOM     14  C   UNL     1       1.609   9.669  19.031  0.00  0.00    +0.000 A 
ATOM     15  O   UNL     1       2.266   8.569  18.500  0.00  0.00    +0.000 OA
ATOM     16  C   UNL     1       2.236   7.377  19.200  0.00  0.00    +0.000 A 
ENDROOT
BRANCH   4  17
ATOM     17  C   UNL     1       4.223   1.589  18.934  0.00  0.00    +0.000 C 
ATOM     18  O   UNL     1       4.003   1.159  17.815  0.00  0.00    +0.000 OA
BRANCH  17  19
ATOM     19  O   UNL     1       5.146   1.046  19.760  0.00  0.00    +0.000 OA
ATOM     20  H   UNL     1       5.426   0.149  19.500  0.00  0.00    +0.000 HD
ENDBRANCH  17  19
ENDBRANCH   4  17
BRANCH  14  21
ATOM     21  C   UNL     1       1.642  10.956  18.280  0.00  0.00    +0.000 C 
ATOM     22  O   UNL     1       2.648  11.460  17.817  0.00  0.00    +0.000 OA
BRANCH  21  23
ATOM     23  O   UNL     1       0.419  11.523  18.168  0.00  0.00    +0.000 OA
ATOM     24  H   UNL     1      -0.158  11.086  17.517  0.00  0.00    +0.000 HD
ENDBRANCH  21  23
ENDBRANCH  14  21
BRANCH   1  25
ATOM     25  C   UNL     1       3.635   6.345  17.328  0.00  0.00    +0.000 C 
BRANCH  25  27
ATOM     26  C   UNL     1       5.964   5.902  16.458  0.00  0.00    +0.000 C 
ATOM     27  C   UNL     1       5.130   6.639  17.491  0.00  0.00    +0.000 C 
ENDBRANCH  25  27
ENDBRANCH   1  25
TORSDOF 6
ENDMDL
MODEL 8
REMARK VINA RESULT:      -6.8      3.880      7.670
REMARK  Name = 
REMARK  7 active torsions:
REMARK  status: ('A' for Active; 'I' for Inactive)
REMARK    1  A    between atoms: C_1  and  C_2
REMARK    2  A    between atoms: C_2  and  C_3
REMARK    3  A    between atoms: C_3  and  C_4
REMARK    4  A    between atoms: C_7  and  C_8
REMARK    5  A    between atoms: C_8  and  O_10
REMARK    6  A    between atoms: C_20  and  C_21
REMARK    7  A    between atoms: C_21  and  O_23
REMARK                            x       y       z     vdW  Elec       q    Type
REMARK                         _______ _______ _______ _____ _____    ______ ____
ROOT
ATOM      1  C   UNL     1      -1.634  11.743  20.143  0.00  0.00    +0.000 A 
ATOM      2  C   UNL     1      -2.480  12.512  20.975  0.00  0.00    +0.000 A 
ATOM      3  O   UNL     1      -3.368  13.379  20.371  0.00  0.00    +0.000 OA
ATOM      4  C   UNL     1      -4.162  14.185  21.170  0.00  0.00    +0.000 A 
ATOM      5  C   UNL     1      -4.176  14.155  22.510  0.00  0.00    +0.000 A 
ATOM      6  C   UNL     1      -3.287  13.220  23.206  0.00  0.00    +0.000 A 
ATOM      7  O   UNL     1      -3.273  13.154  24.427  0.00  0.00    +0.000 OA
ATOM      8  C   UNL     1      -2.418  12.386  22.366  0.00  0.00    +0.000 A 
ATOM      9  C   UNL     1      -1.536  11.485  22.959  0.00  0.00    +0.000 A 
ATOM     10  C   UNL     1      -0.712  10.706  22.146  0.00  0.00    +0.000 A 
ATOM     11  C   UNL     1       0.215   9.747  22.765  0.00  0.00    +0.000 A 
ATOM     12  O   UNL     1       0.290   9.605  23.977  0.00  0.00    +0.000 OA
ATOM     13  C   UNL     1       1.051   8.961  21.857  0.00  0.00    +0.000 A 
ATOM     14  C   UNL     1       0.933   9.152  20.535  0.00  0.00    +0.000 A 
ATOM     15  O   UNL     1       0.064  10.056  19.941  0.00  0.00    +0.000 OA
ATOM     16  C   UNL     1      -0.750  10.824  20.751  0.00  0.00    +0.000 A 
ENDROOT
BRANCH   4  17
ATOM     17  C   UNL     1      -5.068  15.161  20.509  0.00  0.00    +0.000 C 
ATOM     18  O   UNL     1      -5.380  16.241  20.982  0.00  0.00    +0.000 OA
BRANCH  17  19
ATOM     19  O   UNL     1      -5.513  14.732  19.306  0.00  0.00    +0.000 OA
ATOM     20  H   UNL     1      -6.474  14.573  19.276  0.00  0.00    +0.000 HD
ENDBRANCH  17  19
ENDBRANCH   4  17
BRANCH  14  21
ATOM     21  C   UNL     1       1.811   8.320  19.663  0.00  0.00    +0.000 C 
ATOM     22  O   UNL     1       2.057   8.565  18.497  0.00  0.00    +0.000 OA
BRANCH  21  23
ATOM     23  O   UNL     1       2.311   7.242  20.308  0.00  0.00    +0.000 OA
ATOM     24  H   UNL     1       2.083   6.393  19.888  0.00  0.00    +0.000 HD
ENDBRANCH  21  23
ENDBRANCH  14  21
BRANCH   1  25
ATOM     25  C   UNL     1      -1.687  11.905  18.636  0.00  0.00    +0.000 C 
BRANCH  25  27
ATOM     26  C   UNL     1      -1.962   9.919  17.101  0.00  0.00    +0.000 C 
ATOM     27  C   UNL     1      -2.674  10.939  17.972  0.00  0.00    +0.000 C 
ENDBRANCH  25  27
ENDBRANCH   1  25
TORSDOF 6
ENDMDL
MODEL 9
REMARK VINA RESULT:      -6.8      3.759      9.775
REMARK  Name = 
REMARK  7 active torsions:
REMARK  status: ('A' for Active; 'I' for Inactive)
REMARK    1  A    between atoms: C_1  and  C_2
REMARK    2  A    between atoms: C_2  and  C_3
REMARK    3  A    between atoms: C_3  and  C_4
REMARK    4  A    between atoms: C_7  and  C_8
REMARK    5  A    between atoms: C_8  and  O_10
REMARK    6  A    between atoms: C_20  and  C_21
REMARK    7  A    between atoms: C_21  and  O_23
REMARK                            x       y       z     vdW  Elec       q    Type
REMARK                         _______ _______ _______ _____ _____    ______ ____
ROOT
ATOM      1  C   UNL     1      -1.561  11.520  20.046  0.00  0.00    +0.000 A 
ATOM      2  C   UNL     1      -0.647  10.661  20.700  0.00  0.00    +0.000 A 
ATOM      3  O   UNL     1       0.177   9.878  19.918  0.00  0.00    +0.000 OA
ATOM      4  C   UNL     1       1.035   8.986  20.540  0.00  0.00    +0.000 A 
ATOM      5  C   UNL     1       1.170   8.855  21.866  0.00  0.00    +0.000 A 
ATOM      6  C   UNL     1       0.354   9.695  22.747  0.00  0.00    +0.000 A 
ATOM      7  O   UNL     1       0.451   9.614  23.964  0.00  0.00    +0.000 OA
ATOM      8  C   UNL     1      -0.583  10.620  22.096  0.00  0.00    +0.000 A 
ATOM      9  C   UNL     1      -1.402  11.438  22.870  0.00  0.00    +0.000 A 
ATOM     10  C   UNL     1      -2.292  12.305  22.234  0.00  0.00    +0.000 A 
ATOM     11  C   UNL     1      -3.153  13.179  23.045  0.00  0.00    +0.000 A 
ATOM     12  O   UNL     1      -3.117  13.174  24.268  0.00  0.00    +0.000 OA
ATOM     13  C   UNL     1      -4.063  14.064  22.317  0.00  0.00    +0.000 A 
ATOM     14  C   UNL     1      -4.066  14.034  20.977  0.00  0.00    +0.000 A 
ATOM     15  O   UNL     1      -3.260  13.212  20.203  0.00  0.00    +0.000 OA
ATOM     16  C   UNL     1      -2.381  12.356  20.838  0.00  0.00    +0.000 A 
ENDROOT
BRANCH   4  17
ATOM     17  C   UNL     1       1.872   8.100  19.687  0.00  0.00    +0.000 C 
ATOM     18  O   UNL     1       2.105   8.300  18.507  0.00  0.00    +0.000 OA
BRANCH  17  19
ATOM     19  O   UNL     1       2.367   7.038  20.362  0.00  0.00    +0.000 OA
ATOM     20  H   UNL     1       3.335   6.947  20.295  0.00  0.00    +0.000 HD
ENDBRANCH  17  19
ENDBRANCH   4  17
BRANCH  14  21
ATOM     21  C   UNL     1      -5.014  14.959  20.295  0.00  0.00    +0.000 C 
ATOM     22  O   UNL     1      -5.234  16.104  20.645  0.00  0.00    +0.000 OA
BRANCH  21  23
ATOM     23  O   UNL     1      -5.622  14.388  19.230  0.00  0.00    +0.000 OA
ATOM     24  H   UNL     1      -5.917  15.028  18.557  0.00  0.00    +0.000 HD
ENDBRANCH  21  23
ENDBRANCH  14  21
BRANCH   1  25
ATOM     25  C   UNL     1      -1.646  11.541  18.532  0.00  0.00    +0.000 C 
BRANCH  25  27
ATOM     26  C   UNL     1      -2.322  10.150  16.536  0.00  0.00    +0.000 C 
ATOM     27  C   UNL     1      -2.628  10.502  17.980  0.00  0.00    +0.000 C 
ENDBRANCH  25  27
ENDBRANCH   1  25
TORSDOF 6
ENDMDL
