MODEL 1
REMARK VINA RESULT:      -5.5      0.000      0.000
REMARK  Name = 
REMARK  5 active torsions:
REMARK  status: ('A' for Active; 'I' for Inactive)
REMARK    1  A    between atoms: C_1  and  C_2
REMARK    2  A    between atoms: C_4  and  C_5
REMARK    3  A    between atoms: C_6  and  O_7
REMARK    4  A    between atoms: C_8  and  C_9
REMARK    5  A    between atoms: C_10  and  C_11
REMARK                            x       y       z     vdW  Elec       q    Type
REMARK                         _______ _______ _______ _____ _____    ______ ____
ROOT
ATOM      1  C   UNL     1       3.373   3.475  17.841  0.00  0.00    +0.000 C 
ATOM      2  C   UNL     1       4.546   4.097  17.130  0.00  0.00    +0.000 A 
ATOM      3  C   UNL     1       4.786   3.747  15.792  0.00  0.00    +0.000 A 
ATOM      4  C   UNL     1       5.860   4.291  15.077  0.00  0.00    +0.000 A 
ATOM      5  C   UNL     1       6.076   3.877  13.650  0.00  0.00    +0.000 C 
ATOM      6  C   UNL     1       6.700   5.205  15.725  0.00  0.00    +0.000 A 
ATOM      7  C   UNL     1       6.490   5.579  17.066  0.00  0.00    +0.000 A 
ATOM      8  C   UNL     1       7.417   6.567  17.725  0.00  0.00    +0.000 C 
ATOM      9  C   UNL     1       5.402   5.017  17.778  0.00  0.00    +0.000 A 
ATOM     10  C   UNL     1       5.133   5.377  19.220  0.00  0.00    +0.000 C 
ENDROOT
BRANCH   6  11
ATOM     11  O   UNL     1       7.765   5.769  15.072  0.00  0.00    +0.000 OA
ATOM     12  H   UNL     1       8.132   5.139  14.435  0.00  0.00    +0.000 HD
ENDBRANCH   6  11
TORSDOF 1
ENDMDL
MODEL 2
REMARK VINA RESULT:      -5.5      2.577      4.229
REMARK  Name = 
REMARK  5 active torsions:
REMARK  status: ('A' for Active; 'I' for Inactive)
REMARK    1  A    between atoms: C_1  and  C_2
REMARK    2  A    between atoms: C_4  and  C_5
REMARK    3  A    between atoms: C_6  and  O_7
REMARK    4  A    between atoms: C_8  and  C_9
REMARK    5  A    between atoms: C_10  and  C_11
REMARK                            x       y       z     vdW  Elec       q    Type
REMARK                         _______ _______ _______ _____ _____    ______ ____
ROOT
ATOM      1  C   UNL     1       2.415   7.387  18.193  0.00  0.00    +0.000 C 
ATOM      2  C   UNL     1       2.864   5.959  18.025  0.00  0.00    +0.000 A 
ATOM      3  C   UNL     1       2.097   4.937  18.607  0.00  0.00    +0.000 A 
ATOM      4  C   UNL     1       2.462   3.591  18.486  0.00  0.00    +0.000 A 
ATOM      5  C   UNL     1       1.610   2.539  19.134  0.00  0.00    +0.000 C 
ATOM      6  C   UNL     1       3.617   3.275  17.761  0.00  0.00    +0.000 A 
ATOM      7  C   UNL     1       4.411   4.273  17.163  0.00  0.00    +0.000 A 
ATOM      8  C   UNL     1       5.646   3.889  16.390  0.00  0.00    +0.000 C 
ATOM      9  C   UNL     1       4.031   5.631  17.298  0.00  0.00    +0.000 A 
ATOM     10  C   UNL     1       4.848   6.743  16.683  0.00  0.00    +0.000 C 
ENDROOT
BRANCH   6  11
ATOM     11  O   UNL     1       4.020   1.974  17.609  0.00  0.00    +0.000 OA
ATOM     12  H   UNL     1       4.533   1.696  18.382  0.00  0.00    +0.000 HD
ENDBRANCH   6  11
TORSDOF 1
ENDMDL
MODEL 3
REMARK VINA RESULT:      -5.4      3.516      5.559
REMARK  Name = 
REMARK  5 active torsions:
REMARK  status: ('A' for Active; 'I' for Inactive)
REMARK    1  A    between atoms: C_1  and  C_2
REMARK    2  A    between atoms: C_4  and  C_5
REMARK    3  A    between atoms: C_6  and  O_7
REMARK    4  A    between atoms: C_8  and  C_9
REMARK    5  A    between atoms: C_10  and  C_11
REMARK                            x       y       z     vdW  Elec       q    Type
REMARK                         _______ _______ _______ _____ _____    ______ ____
ROOT
ATOM      1  C   UNL     1       1.887   7.593  20.289  0.00  0.00    +0.000 C 
ATOM      2  C   UNL     1       2.162   6.162  19.910  0.00  0.00    +0.000 A 
ATOM      3  C   UNL     1       1.695   5.140  20.750  0.00  0.00    +0.000 A 
ATOM      4  C   UNL     1       1.918   3.790  20.452  0.00  0.00    +0.000 A 
ATOM      5  C   UNL     1       1.402   2.736  21.389  0.00  0.00    +0.000 C 
ATOM      6  C   UNL     1       2.623   3.472  19.285  0.00  0.00    +0.000 A 
ATOM      7  C   UNL     1       3.107   4.470  18.419  0.00  0.00    +0.000 A 
ATOM      8  C   UNL     1       3.859   4.084  17.171  0.00  0.00    +0.000 C 
ATOM      9  C   UNL     1       2.876   5.831  18.735  0.00  0.00    +0.000 A 
ATOM     10  C   UNL     1       3.379   6.944  17.846  0.00  0.00    +0.000 C 
ENDROOT
BRANCH   6  11
ATOM     11  O   UNL     1       2.869   2.167  18.944  0.00  0.00    +0.000 OA
ATOM     12  H   UNL     1       2.580   2.005  18.033  0.00  0.00    +0.000 HD
ENDBRANCH   6  11
TORSDOF 1
ENDMDL
MODEL 4
REMARK VINA RESULT:      -5.3      1.732      2.265
REMARK  Name = 
REMARK  5 active torsions:
REMARK  status: ('A' for Active; 'I' for Inactive)
REMARK    1  A    between atoms: C_1  and  C_2
REMARK    2  A    between atoms: C_4  and  C_5
REMARK    3  A    between atoms: C_6  and  O_7
REMARK    4  A    between atoms: C_8  and  C_9
REMARK    5  A    between atoms: C_10  and  C_11
REMARK                            x       y       z     vdW  Elec       q    Type
REMARK                         _______ _______ _______ _____ _____    ______ ____
ROOT
ATOM      1  C   UNL     1       2.859   2.357  17.785  0.00  0.00    +0.000 C 
ATOM      2  C   UNL     1       3.588   3.599  17.346  0.00  0.00    +0.000 A 
ATOM      3  C   UNL     1       4.696   3.467  16.494  0.00  0.00    +0.000 A 
ATOM      4  C   UNL     1       5.414   4.584  16.052  0.00  0.00    +0.000 A 
ATOM      5  C   UNL     1       6.596   4.386  15.147  0.00  0.00    +0.000 C 
ATOM      6  C   UNL     1       5.003   5.853  16.475  0.00  0.00    +0.000 A 
ATOM      7  C   UNL     1       3.897   6.025  17.329  0.00  0.00    +0.000 A 
ATOM      8  C   UNL     1       3.486   7.410  17.760  0.00  0.00    +0.000 C 
ATOM      9  C   UNL     1       3.182   4.885  17.772  0.00  0.00    +0.000 A 
ATOM     10  C   UNL     1       1.992   5.009  18.694  0.00  0.00    +0.000 C 
ENDROOT
BRANCH   6  11
ATOM     11  O   UNL     1       5.668   6.982  16.072  0.00  0.00    +0.000 OA
ATOM     12  H   UNL     1       5.234   7.768  16.435  0.00  0.00    +0.000 HD
ENDBRANCH   6  11
TORSDOF 1
ENDMDL
MODEL 5
REMARK VINA RESULT:      -5.3      2.026      3.529
REMARK  Name = 
REMARK  5 active torsions:
REMARK  status: ('A' for Active; 'I' for Inactive)
REMARK    1  A    between atoms: C_1  and  C_2
REMARK    2  A    between atoms: C_4  and  C_5
REMARK    3  A    between atoms: C_6  and  O_7
REMARK    4  A    between atoms: C_8  and  C_9
REMARK    5  A    between atoms: C_10  and  C_11
REMARK                            x       y       z     vdW  Elec       q    Type
REMARK                         _______ _______ _______ _____ _____    ______ ____
ROOT
ATOM      1  C   UNL     1       2.386   7.671  18.013  0.00  0.00    +0.000 C 
ATOM      2  C   UNL     1       3.465   6.644  17.792  0.00  0.00    +0.000 A 
ATOM      3  C   UNL     1       4.786   7.082  17.609  0.00  0.00    +0.000 A 
ATOM      4  C   UNL     1       5.833   6.177  17.399  0.00  0.00    +0.000 A 
ATOM      5  C   UNL     1       7.226   6.699  17.202  0.00  0.00    +0.000 C 
ATOM      6  C   UNL     1       5.538   4.808  17.378  0.00  0.00    +0.000 A 
ATOM      7  C   UNL     1       4.225   4.332  17.558  0.00  0.00    +0.000 A 
ATOM      8  C   UNL     1       3.951   2.850  17.529  0.00  0.00    +0.000 C 
ATOM      9  C   UNL     1       3.175   5.260  17.765  0.00  0.00    +0.000 A 
ATOM     10  C   UNL     1       1.748   4.807  17.957  0.00  0.00    +0.000 C 
ENDROOT
BRANCH   6  11
ATOM     11  O   UNL     1       6.524   3.877  17.178  0.00  0.00    +0.000 OA
ATOM     12  H   UNL     1       7.233   4.260  16.640  0.00  0.00    +0.000 HD
ENDBRANCH   6  11
TORSDOF 1
ENDMDL
MODEL 6
REMARK VINA RESULT:      -5.3      1.177      1.233
REMARK  Name = 
REMARK  5 active torsions:
REMARK  status: ('A' for Active; 'I' for Inactive)
REMARK    1  A    between atoms: C_1  and  C_2
REMARK    2  A    between atoms: C_4  and  C_5
REMARK    3  A    between atoms: C_6  and  O_7
REMARK    4  A    between atoms: C_8  and  C_9
REMARK    5  A    between atoms: C_10  and  C_11
REMARK                            x       y       z     vdW  Elec       q    Type
REMARK                         _______ _______ _______ _____ _____    ______ ____
ROOT
ATOM      1  C   UNL     1       2.355   4.344  17.572  0.00  0.00    +0.000 C 
ATOM      2  C   UNL     1       3.841   4.449  17.352  0.00  0.00    +0.000 A 
ATOM      3  C   UNL     1       4.365   4.092  16.100  0.00  0.00    +0.000 A 
ATOM      4  C   UNL     1       5.737   4.167  15.834  0.00  0.00    +0.000 A 
ATOM      5  C   UNL     1       6.246   3.766  14.480  0.00  0.00    +0.000 C 
ATOM      6  C   UNL     1       6.591   4.616  16.850  0.00  0.00    +0.000 A 
ATOM      7  C   UNL     1       6.101   4.983  18.118  0.00  0.00    +0.000 A 
ATOM      8  C   UNL     1       7.054   5.462  19.183  0.00  0.00    +0.000 C 
ATOM      9  C   UNL     1       4.710   4.897  18.373  0.00  0.00    +0.000 A 
ATOM     10  C   UNL     1       4.131   5.271  19.717  0.00  0.00    +0.000 C 
ENDROOT
BRANCH   6  11
ATOM     11  O   UNL     1       7.943   4.711  16.644  0.00  0.00    +0.000 OA
ATOM     12  H   UNL     1       8.139   5.496  16.112  0.00  0.00    +0.000 HD
ENDBRANCH   6  11
TORSDOF 1
ENDMDL
MODEL 7
REMARK VINA RESULT:      -5.3      2.271      4.020
REMARK  Name = 
REMARK  5 active torsions:
REMARK  status: ('A' for Active; 'I' for Inactive)
REMARK    1  A    between atoms: C_1  and  C_2
REMARK    2  A    between atoms: C_4  and  C_5
REMARK    3  A    between atoms: C_6  and  O_7
REMARK    4  A    between atoms: C_8  and  C_9
REMARK    5  A    between atoms: C_10  and  C_11
REMARK                            x       y       z     vdW  Elec       q    Type
REMARK                         _______ _______ _______ _____ _____    ______ ____
ROOT
ATOM      1  C   UNL     1       1.149   3.141  19.496  0.00  0.00    +0.000 C 
ATOM      2  C   UNL     1       2.109   4.029  18.748  0.00  0.00    +0.000 A 
ATOM      3  C   UNL     1       1.949   5.421  18.837  0.00  0.00    +0.000 A 
ATOM      4  C   UNL     1       2.809   6.298  18.166  0.00  0.00    +0.000 A 
ATOM      5  C   UNL     1       2.590   7.778  18.288  0.00  0.00    +0.000 C 
ATOM      6  C   UNL     1       3.848   5.758  17.398  0.00  0.00    +0.000 A 
ATOM      7  C   UNL     1       4.039   4.368  17.286  0.00  0.00    +0.000 A 
ATOM      8  C   UNL     1       5.171   3.829  16.449  0.00  0.00    +0.000 C 
ATOM      9  C   UNL     1       3.158   3.492  17.967  0.00  0.00    +0.000 A 
ATOM     10  C   UNL     1       3.312   1.993  17.878  0.00  0.00    +0.000 C 
ENDROOT
BRANCH   6  11
ATOM     11  O   UNL     1       4.721   6.571  16.721  0.00  0.00    +0.000 OA
ATOM     12  H   UNL     1       4.857   7.392  17.217  0.00  0.00    +0.000 HD
ENDBRANCH   6  11
TORSDOF 1
ENDMDL
MODEL 8
REMARK VINA RESULT:      -5.3      1.162      3.183
REMARK  Name = 
REMARK  5 active torsions:
REMARK  status: ('A' for Active; 'I' for Inactive)
REMARK    1  A    between atoms: C_1  and  C_2
REMARK    2  A    between atoms: C_4  and  C_5
REMARK    3  A    between atoms: C_6  and  O_7
REMARK    4  A    between atoms: C_8  and  C_9
REMARK    5  A    between atoms: C_10  and  C_11
REMARK                            x       y       z     vdW  Elec       q    Type
REMARK                         _______ _______ _______ _____ _____    ______ ____
ROOT
ATOM      1  C   UNL     1       3.327   4.280  19.829  0.00  0.00    +0.000 C 
ATOM      2  C   UNL     1       4.449   4.536  18.857  0.00  0.00    +0.000 A 
ATOM      3  C   UNL     1       5.624   5.144  19.327  0.00  0.00    +0.000 A 
ATOM      4  C   UNL     1       6.701   5.409  18.473  0.00  0.00    +0.000 A 
ATOM      5  C   UNL     1       7.932   6.067  19.026  0.00  0.00    +0.000 C 
ATOM      6  C   UNL     1       6.588   5.049  17.125  0.00  0.00    +0.000 A 
ATOM      7  C   UNL     1       5.425   4.439  16.618  0.00  0.00    +0.000 A 
ATOM      8  C   UNL     1       5.345   4.067  15.159  0.00  0.00    +0.000 C 
ATOM      9  C   UNL     1       4.342   4.181  17.493  0.00  0.00    +0.000 A 
ATOM     10  C   UNL     1       3.068   3.534  17.003  0.00  0.00    +0.000 C 
ENDROOT
BRANCH   6  11
ATOM     11  O   UNL     1       7.612   5.283  16.244  0.00  0.00    +0.000 OA
ATOM     12  H   UNL     1       7.989   6.161  16.404  0.00  0.00    +0.000 HD
ENDBRANCH   6  11
TORSDOF 1
ENDMDL
MODEL 9
REMARK VINA RESULT:      -5.3      2.739      4.346
REMARK  Name = 
REMARK  5 active torsions:
REMARK  status: ('A' for Active; 'I' for Inactive)
REMARK    1  A    between atoms: C_1  and  C_2
REMARK    2  A    between atoms: C_4  and  C_5
REMARK    3  A    between atoms: C_6  and  O_7
REMARK    4  A    between atoms: C_8  and  C_9
REMARK    5  A    between atoms: C_10  and  C_11
REMARK                            x       y       z     vdW  Elec       q    Type
REMARK                         _______ _______ _______ _____ _____    ______ ____
ROOT
ATOM      1  C   UNL     1       2.434   7.563  18.079  0.00  0.00    +0.000 C 
ATOM      2  C   UNL     1       3.188   6.306  18.426  0.00  0.00    +0.000 A 
ATOM      3  C   UNL     1       2.615   5.406  19.339  0.00  0.00    +0.000 A 
ATOM      4  C   UNL     1       3.266   4.221  19.702  0.00  0.00    +0.000 A 
ATOM      5  C   UNL     1       2.613   3.297  20.688  0.00  0.00    +0.000 C 
ATOM      6  C   UNL     1       4.513   3.942  19.129  0.00  0.00    +0.000 A 
ATOM      7  C   UNL     1       5.118   4.820  18.211  0.00  0.00    +0.000 A 
ATOM      8  C   UNL     1       6.461   4.480  17.616  0.00  0.00    +0.000 C 
ATOM      9  C   UNL     1       4.449   6.018  17.856  0.00  0.00    +0.000 A 
ATOM     10  C   UNL     1       5.054   7.000  16.881  0.00  0.00    +0.000 C 
ENDROOT
BRANCH   6  11
ATOM     11  O   UNL     1       5.194   2.795  19.447  0.00  0.00    +0.000 OA
ATOM     12  H   UNL     1       5.915   3.000  20.060  0.00  0.00    +0.000 HD
ENDBRANCH   6  11
TORSDOF 1
ENDMDL
