MODEL 1
REMARK VINA RESULT:      -8.5      0.000      0.000
REMARK  Name = 
REMARK  6 active torsions:
REMARK  status: ('A' for Active; 'I' for Inactive)
REMARK    1  A    between atoms: N_1  and  N_2
REMARK    2  A    between atoms: C_3  and  S_4
REMARK    3  A    between atoms: C_7  and  C_8
REMARK    4  A    between atoms: C_8  and  N_9
REMARK    5  A    between atoms: C_12  and  C_13
REMARK    6  A    between atoms: C_13  and  C_14
REMARK                            x       y       z     vdW  Elec       q    Type
REMARK                         _______ _______ _______ _____ _____    ______ ____
ROOT
ATOM      1  N   UNL     1       0.472  10.150  19.227  0.00  0.00    +0.000 N 
ATOM      2  C   UNL     1       1.357   9.238  18.659  0.00  0.00    +0.000 A 
ATOM      3  O   UNL     1       1.757   9.299  17.501  0.00  0.00    +0.000 OA
ATOM      4  C   UNL     1       1.817   8.093  19.554  0.00  0.00    +0.000 A 
ATOM      5  N   UNL     1       1.499   8.002  20.810  0.00  0.00    +0.000 NA
ATOM      6  C   UNL     1       0.702   9.009  21.371  0.00  0.00    +0.000 A 
ATOM      7  C   UNL     1       0.450   8.927  22.746  0.00  0.00    +0.000 A 
ATOM      8  C   UNL     1      -0.333   9.883  23.388  0.00  0.00    +0.000 A 
ATOM      9  C   UNL     1      -0.884  10.923  22.649  0.00  0.00    +0.000 A 
ATOM     10  C   UNL     1      -0.649  11.013  21.275  0.00  0.00    +0.000 A 
ATOM     11  C   UNL     1       0.159  10.069  20.619  0.00  0.00    +0.000 A 
ENDROOT
BRANCH   1  12
ATOM     12  C   UNL     1      -0.091  11.188  18.367  0.00  0.00    +0.000 C 
BRANCH  12  17
ATOM     13  N   UNL     1      -2.618  11.506  18.262  0.00  0.00    +0.000 N 
ATOM     14  C   UNL     1      -3.632  10.819  17.638  0.00  0.00    +0.000 A 
ATOM     15  N   UNL     1      -3.138   9.832  16.930  0.00  0.00    +0.000 NA
ATOM     16  N   UNL     1      -1.773   9.851  17.090  0.00  0.00    +0.000 NA
ATOM     17  C   UNL     1      -1.465  10.837  17.916  0.00  0.00    +0.000 A 
BRANCH  13  18
ATOM     18  N   UNL     1      -2.757  12.677  19.088  0.00  0.00    +0.000 N 
ATOM     19  H   UNL     1      -3.701  12.733  19.472  0.00  0.00    +0.000 HD
ATOM     20  H   UNL     1      -2.166  12.639  19.923  0.00  0.00    +0.000 HD
ENDBRANCH  13  18
BRANCH  14  21
ATOM     21  S   UNL     1      -5.306  11.210  17.802  0.00  0.00    +0.000 S 
ATOM     22  H   UNL     1      -5.464  10.806  19.069  0.00  0.00    +0.000 HD
ENDBRANCH  14  21
ENDBRANCH  12  17
ENDBRANCH   1  12
BRANCH   4  23
ATOM     23  C   UNL     1       2.705   7.038  18.928  0.00  0.00    +0.000 C 
BRANCH  23  24
ATOM     24  C   UNL     1       2.165   5.646  19.146  0.00  0.00    +0.000 A 
ATOM     25  C   UNL     1       1.957   4.788  18.056  0.00  0.00    +0.000 A 
ATOM     26  C   UNL     1       1.374   3.534  18.242  0.00  0.00    +0.000 A 
ATOM     27  C   UNL     1       1.012   3.117  19.521  0.00  0.00    +0.000 A 
ATOM     28  C   UNL     1       1.259   3.942  20.617  0.00  0.00    +0.000 A 
ATOM     29  C   UNL     1       1.835   5.201  20.432  0.00  0.00    +0.000 A 
ENDBRANCH  23  24
ENDBRANCH   4  23
TORSDOF 6
ENDMDL
MODEL 2
REMARK VINA RESULT:      -8.3      5.057      8.299
REMARK  Name = 
REMARK  6 active torsions:
REMARK  status: ('A' for Active; 'I' for Inactive)
REMARK    1  A    between atoms: N_1  and  N_2
REMARK    2  A    between atoms: C_3  and  S_4
REMARK    3  A    between atoms: C_7  and  C_8
REMARK    4  A    between atoms: C_8  and  N_9
REMARK    5  A    between atoms: C_12  and  C_13
REMARK    6  A    between atoms: C_13  and  C_14
REMARK                            x       y       z     vdW  Elec       q    Type
REMARK                         _______ _______ _______ _____ _____    ______ ____
ROOT
ATOM      1  N   UNL     1       4.459   4.937  17.945  0.00  0.00    +0.000 N 
ATOM      2  C   UNL     1       4.179   6.289  17.767  0.00  0.00    +0.000 A 
ATOM      3  O   UNL     1       5.004   7.118  17.396  0.00  0.00    +0.000 OA
ATOM      4  C   UNL     1       2.757   6.734  18.086  0.00  0.00    +0.000 A 
ATOM      5  N   UNL     1       1.810   5.906  18.409  0.00  0.00    +0.000 NA
ATOM      6  C   UNL     1       2.108   4.537  18.460  0.00  0.00    +0.000 A 
ATOM      7  C   UNL     1       1.046   3.666  18.727  0.00  0.00    +0.000 A 
ATOM      8  C   UNL     1       1.251   2.290  18.798  0.00  0.00    +0.000 A 
ATOM      9  C   UNL     1       2.531   1.779  18.618  0.00  0.00    +0.000 A 
ATOM     10  C   UNL     1       3.602   2.637  18.360  0.00  0.00    +0.000 A 
ATOM     11  C   UNL     1       3.406   4.026  18.262  0.00  0.00    +0.000 A 
ENDROOT
BRANCH   1  12
ATOM     12  C   UNL     1       5.841   4.493  17.775  0.00  0.00    +0.000 C 
BRANCH  12  17
ATOM     13  N   UNL     1       7.027   5.216  15.638  0.00  0.00    +0.000 N 
ATOM     14  C   UNL     1       7.045   4.723  14.355  0.00  0.00    +0.000 A 
ATOM     15  N   UNL     1       6.322   3.633  14.280  0.00  0.00    +0.000 NA
ATOM     16  N   UNL     1       5.802   3.396  15.529  0.00  0.00    +0.000 NA
ATOM     17  C   UNL     1       6.200   4.365  16.337  0.00  0.00    +0.000 A 
BRANCH  13  18
ATOM     18  N   UNL     1       7.738   6.370  16.124  0.00  0.00    +0.000 N 
ATOM     19  H   UNL     1       8.007   6.976  15.349  0.00  0.00    +0.000 HD
ATOM     20  H   UNL     1       7.149   6.977  16.702  0.00  0.00    +0.000 HD
ENDBRANCH  13  18
BRANCH  14  21
ATOM     21  S   UNL     1       7.891   5.470  13.046  0.00  0.00    +0.000 S 
ATOM     22  H   UNL     1       8.831   4.531  12.878  0.00  0.00    +0.000 HD
ENDBRANCH  14  21
ENDBRANCH  12  17
ENDBRANCH   1  12
BRANCH   4  23
ATOM     23  C   UNL     1       2.455   8.215  17.988  0.00  0.00    +0.000 C 
BRANCH  23  24
ATOM     24  C   UNL     1       1.580   8.686  19.123  0.00  0.00    +0.000 A 
ATOM     25  C   UNL     1       1.707   8.116  20.399  0.00  0.00    +0.000 A 
ATOM     26  C   UNL     1       0.841   8.483  21.430  0.00  0.00    +0.000 A 
ATOM     27  C   UNL     1      -0.147   9.438  21.201  0.00  0.00    +0.000 A 
ATOM     28  C   UNL     1      -0.250  10.047  19.951  0.00  0.00    +0.000 A 
ATOM     29  C   UNL     1       0.611   9.675  18.916  0.00  0.00    +0.000 A 
ENDBRANCH  23  24
ENDBRANCH   4  23
TORSDOF 6
ENDMDL
MODEL 3
REMARK VINA RESULT:      -8.1      5.204      8.443
REMARK  Name = 
REMARK  6 active torsions:
REMARK  status: ('A' for Active; 'I' for Inactive)
REMARK    1  A    between atoms: N_1  and  N_2
REMARK    2  A    between atoms: C_3  and  S_4
REMARK    3  A    between atoms: C_7  and  C_8
REMARK    4  A    between atoms: C_8  and  N_9
REMARK    5  A    between atoms: C_12  and  C_13
REMARK    6  A    between atoms: C_13  and  C_14
REMARK                            x       y       z     vdW  Elec       q    Type
REMARK                         _______ _______ _______ _____ _____    ______ ____
ROOT
ATOM      1  N   UNL     1       4.836   5.071  17.787  0.00  0.00    +0.000 N 
ATOM      2  C   UNL     1       4.500   6.414  17.643  0.00  0.00    +0.000 A 
ATOM      3  O   UNL     1       5.292   7.287  17.303  0.00  0.00    +0.000 OA
ATOM      4  C   UNL     1       3.057   6.789  17.959  0.00  0.00    +0.000 A 
ATOM      5  N   UNL     1       2.143   5.913  18.249  0.00  0.00    +0.000 NA
ATOM      6  C   UNL     1       2.500   4.558  18.266  0.00  0.00    +0.000 A 
ATOM      7  C   UNL     1       1.473   3.634  18.498  0.00  0.00    +0.000 A 
ATOM      8  C   UNL     1       1.737   2.267  18.534  0.00  0.00    +0.000 A 
ATOM      9  C   UNL     1       3.039   1.816  18.353  0.00  0.00    +0.000 A 
ATOM     10  C   UNL     1       4.075   2.726  18.130  0.00  0.00    +0.000 A 
ATOM     11  C   UNL     1       3.820   4.107  18.068  0.00  0.00    +0.000 A 
ENDROOT
BRANCH   1  12
ATOM     12  C   UNL     1       6.237   4.691  17.619  0.00  0.00    +0.000 C 
BRANCH  12  17
ATOM     13  N   UNL     1       6.302   3.938  15.185  0.00  0.00    +0.000 N 
ATOM     14  C   UNL     1       6.948   4.409  14.067  0.00  0.00    +0.000 A 
ATOM     15  N   UNL     1       7.620   5.496  14.359  0.00  0.00    +0.000 NA
ATOM     16  N   UNL     1       7.431   5.752  15.696  0.00  0.00    +0.000 NA
ATOM     17  C   UNL     1       6.665   4.797  16.198  0.00  0.00    +0.000 A 
BRANCH  13  18
ATOM     18  N   UNL     1       5.430   2.794  15.254  0.00  0.00    +0.000 N 
ATOM     19  H   UNL     1       5.956   1.960  15.517  0.00  0.00    +0.000 HD
ATOM     20  H   UNL     1       4.734   2.877  16.001  0.00  0.00    +0.000 HD
ENDBRANCH  13  18
BRANCH  14  21
ATOM     21  S   UNL     1       6.882   3.644  12.520  0.00  0.00    +0.000 S 
ATOM     22  H   UNL     1       7.628   2.571  12.816  0.00  0.00    +0.000 HD
ENDBRANCH  14  21
ENDBRANCH  12  17
ENDBRANCH   1  12
BRANCH   4  23
ATOM     23  C   UNL     1       2.693   8.259  17.899  0.00  0.00    +0.000 C 
BRANCH  23  24
ATOM     24  C   UNL     1       1.723   8.642  18.988  0.00  0.00    +0.000 A 
ATOM     25  C   UNL     1       0.742   9.617  18.752  0.00  0.00    +0.000 A 
ATOM     26  C   UNL     1      -0.100  10.040  19.782  0.00  0.00    +0.000 A 
ATOM     27  C   UNL     1       0.016   9.478  21.051  0.00  0.00    +0.000 A 
ATOM     28  C   UNL     1       0.954   8.473  21.284  0.00  0.00    +0.000 A 
ATOM     29  C   UNL     1       1.803   8.054  20.257  0.00  0.00    +0.000 A 
ENDBRANCH  23  24
ENDBRANCH   4  23
TORSDOF 6
ENDMDL
MODEL 4
REMARK VINA RESULT:      -8.0      2.423      3.150
REMARK  Name = 
REMARK  6 active torsions:
REMARK  status: ('A' for Active; 'I' for Inactive)
REMARK    1  A    between atoms: N_1  and  N_2
REMARK    2  A    between atoms: C_3  and  S_4
REMARK    3  A    between atoms: C_7  and  C_8
REMARK    4  A    between atoms: C_8  and  N_9
REMARK    5  A    between atoms: C_12  and  C_13
REMARK    6  A    between atoms: C_13  and  C_14
REMARK                            x       y       z     vdW  Elec       q    Type
REMARK                         _______ _______ _______ _____ _____    ______ ____
ROOT
ATOM      1  N   UNL     1       0.411  10.258  19.208  0.00  0.00    +0.000 N 
ATOM      2  C   UNL     1       1.340   9.368  18.678  0.00  0.00    +0.000 A 
ATOM      3  O   UNL     1       1.770   9.426  17.531  0.00  0.00    +0.000 OA
ATOM      4  C   UNL     1       1.812   8.251  19.602  0.00  0.00    +0.000 A 
ATOM      5  N   UNL     1       1.463   8.168  20.850  0.00  0.00    +0.000 NA
ATOM      6  C   UNL     1       0.619   9.155  21.375  0.00  0.00    +0.000 A 
ATOM      7  C   UNL     1       0.332   9.084  22.743  0.00  0.00    +0.000 A 
ATOM      8  C   UNL     1      -0.500  10.023  23.349  0.00  0.00    +0.000 A 
ATOM      9  C   UNL     1      -1.064  11.033  22.580  0.00  0.00    +0.000 A 
ATOM     10  C   UNL     1      -0.794  11.112  21.212  0.00  0.00    +0.000 A 
ATOM     11  C   UNL     1       0.062  10.186  20.592  0.00  0.00    +0.000 A 
ENDROOT
BRANCH   1  12
ATOM     12  C   UNL     1      -0.162  11.264  18.318  0.00  0.00    +0.000 C 
BRANCH  12  17
ATOM     13  N   UNL     1       1.695  13.005  18.191  0.00  0.00    +0.000 N 
ATOM     14  C   UNL     1       1.807  14.301  18.637  0.00  0.00    +0.000 A 
ATOM     15  N   UNL     1       0.685  14.684  19.196  0.00  0.00    +0.000 NA
ATOM     16  N   UNL     1      -0.189  13.626  19.135  0.00  0.00    +0.000 NA
ATOM     17  C   UNL     1       0.428  12.608  18.559  0.00  0.00    +0.000 A 
BRANCH  13  18
ATOM     18  N   UNL     1       2.697  12.251  17.484  0.00  0.00    +0.000 N 
ATOM     19  H   UNL     1       2.876  12.666  16.569  0.00  0.00    +0.000 HD
ATOM     20  H   UNL     1       3.612  12.290  17.942  0.00  0.00    +0.000 HD
ENDBRANCH  13  18
BRANCH  14  21
ATOM     21  S   UNL     1       3.241  15.252  18.486  0.00  0.00    +0.000 S 
ATOM     22  H   UNL     1       3.210  15.821  19.699  0.00  0.00    +0.000 HD
ENDBRANCH  14  21
ENDBRANCH  12  17
ENDBRANCH   1  12
BRANCH   4  23
ATOM     23  C   UNL     1       2.752   7.217  19.016  0.00  0.00    +0.000 C 
BRANCH  23  24
ATOM     24  C   UNL     1       2.206   5.818  19.157  0.00  0.00    +0.000 A 
ATOM     25  C   UNL     1       1.991   5.023  18.021  0.00  0.00    +0.000 A 
ATOM     26  C   UNL     1       1.403   3.763  18.137  0.00  0.00    +0.000 A 
ATOM     27  C   UNL     1       1.044   3.276  19.391  0.00  0.00    +0.000 A 
ATOM     28  C   UNL     1       1.297   4.037  20.532  0.00  0.00    +0.000 A 
ATOM     29  C   UNL     1       1.878   5.302  20.417  0.00  0.00    +0.000 A 
ENDBRANCH  23  24
ENDBRANCH   4  23
TORSDOF 6
ENDMDL
MODEL 5
REMARK VINA RESULT:      -7.9      4.955      8.145
REMARK  Name = 
REMARK  6 active torsions:
REMARK  status: ('A' for Active; 'I' for Inactive)
REMARK    1  A    between atoms: N_1  and  N_2
REMARK    2  A    between atoms: C_3  and  S_4
REMARK    3  A    between atoms: C_7  and  C_8
REMARK    4  A    between atoms: C_8  and  N_9
REMARK    5  A    between atoms: C_12  and  C_13
REMARK    6  A    between atoms: C_13  and  C_14
REMARK                            x       y       z     vdW  Elec       q    Type
REMARK                         _______ _______ _______ _____ _____    ______ ____
ROOT
ATOM      1  N   UNL     1       4.927   5.421  18.404  0.00  0.00    +0.000 N 
ATOM      2  C   UNL     1       4.414   6.607  17.886  0.00  0.00    +0.000 A 
ATOM      3  O   UNL     1       5.048   7.375  17.170  0.00  0.00    +0.000 OA
ATOM      4  C   UNL     1       2.979   6.949  18.271  0.00  0.00    +0.000 A 
ATOM      5  N   UNL     1       2.219   6.151  18.959  0.00  0.00    +0.000 NA
ATOM      6  C   UNL     1       2.741   4.913  19.359  0.00  0.00    +0.000 A 
ATOM      7  C   UNL     1       1.869   4.043  20.024  0.00  0.00    +0.000 A 
ATOM      8  C   UNL     1       2.302   2.792  20.459  0.00  0.00    +0.000 A 
ATOM      9  C   UNL     1       3.621   2.413  20.245  0.00  0.00    +0.000 A 
ATOM     10  C   UNL     1       4.505   3.275  19.591  0.00  0.00    +0.000 A 
ATOM     11  C   UNL     1       4.076   4.529  19.125  0.00  0.00    +0.000 A 
ENDROOT
BRANCH   1  12
ATOM     12  C   UNL     1       6.337   5.120  18.164  0.00  0.00    +0.000 C 
BRANCH  12  17
ATOM     13  N   UNL     1       6.073   4.184  15.808  0.00  0.00    +0.000 N 
ATOM     14  C   UNL     1       6.671   4.472  14.605  0.00  0.00    +0.000 A 
ATOM     15  N   UNL     1       7.510   5.470  14.745  0.00  0.00    +0.000 NA
ATOM     16  N   UNL     1       7.482   5.849  16.066  0.00  0.00    +0.000 NA
ATOM     17  C   UNL     1       6.642   5.056  16.710  0.00  0.00    +0.000 A 
BRANCH  13  18
ATOM     18  N   UNL     1       5.062   3.187  16.047  0.00  0.00    +0.000 N 
ATOM     19  H   UNL     1       4.580   3.372  16.928  0.00  0.00    +0.000 HD
ATOM     20  H   UNL     1       4.307   3.221  15.356  0.00  0.00    +0.000 HD
ENDBRANCH  13  18
BRANCH  14  21
ATOM     21  S   UNL     1       6.358   3.610  13.141  0.00  0.00    +0.000 S 
ATOM     22  H   UNL     1       7.600   3.645  12.640  0.00  0.00    +0.000 HD
ENDBRANCH  14  21
ENDBRANCH  12  17
ENDBRANCH   1  12
BRANCH   4  23
ATOM     23  C   UNL     1       2.432   8.279  17.794  0.00  0.00    +0.000 C 
BRANCH  23  24
ATOM     24  C   UNL     1       1.501   8.898  18.807  0.00  0.00    +0.000 A 
ATOM     25  C   UNL     1       1.632   8.592  20.170  0.00  0.00    +0.000 A 
ATOM     26  C   UNL     1       0.718   9.090  21.100  0.00  0.00    +0.000 A 
ATOM     27  C   UNL     1      -0.322   9.916  20.680  0.00  0.00    +0.000 A 
ATOM     28  C   UNL     1      -0.432  10.266  19.335  0.00  0.00    +0.000 A 
ATOM     29  C   UNL     1       0.476   9.762  18.402  0.00  0.00    +0.000 A 
ENDBRANCH  23  24
ENDBRANCH   4  23
TORSDOF 6
ENDMDL
MODEL 6
REMARK VINA RESULT:      -7.8      4.797      7.948
REMARK  Name = 
REMARK  6 active torsions:
REMARK  status: ('A' for Active; 'I' for Inactive)
REMARK    1  A    between atoms: N_1  and  N_2
REMARK    2  A    between atoms: C_3  and  S_4
REMARK    3  A    between atoms: C_7  and  C_8
REMARK    4  A    between atoms: C_8  and  N_9
REMARK    5  A    between atoms: C_12  and  C_13
REMARK    6  A    between atoms: C_13  and  C_14
REMARK                            x       y       z     vdW  Elec       q    Type
REMARK                         _______ _______ _______ _____ _____    ______ ____
ROOT
ATOM      1  N   UNL     1       4.438   5.421  18.623  0.00  0.00    +0.000 N 
ATOM      2  C   UNL     1       4.081   6.633  18.038  0.00  0.00    +0.000 A 
ATOM      3  O   UNL     1       4.807   7.272  17.284  0.00  0.00    +0.000 OA
ATOM      4  C   UNL     1       2.704   7.179  18.397  0.00  0.00    +0.000 A 
ATOM      5  N   UNL     1       1.849   6.525  19.125  0.00  0.00    +0.000 NA
ATOM      6  C   UNL     1       2.207   5.254  19.596  0.00  0.00    +0.000 A 
ATOM      7  C   UNL     1       1.232   4.541  20.303  0.00  0.00    +0.000 A 
ATOM      8  C   UNL     1       1.501   3.272  20.809  0.00  0.00    +0.000 A 
ATOM      9  C   UNL     1       2.759   2.714  20.622  0.00  0.00    +0.000 A 
ATOM     10  C   UNL     1       3.745   3.416  19.925  0.00  0.00    +0.000 A 
ATOM     11  C   UNL     1       3.481   4.688  19.389  0.00  0.00    +0.000 A 
ENDROOT
BRANCH   1  12
ATOM     12  C   UNL     1       5.796   4.928  18.406  0.00  0.00    +0.000 C 
BRANCH  12  17
ATOM     13  N   UNL     1       6.831   5.224  16.096  0.00  0.00    +0.000 N 
ATOM     14  C   UNL     1       6.709   4.537  14.911  0.00  0.00    +0.000 A 
ATOM     15  N   UNL     1       5.922   3.501  15.070  0.00  0.00    +0.000 NA
ATOM     16  N   UNL     1       5.499   3.500  16.377  0.00  0.00    +0.000 NA
ATOM     17  C   UNL     1       6.021   4.552  16.985  0.00  0.00    +0.000 A 
BRANCH  13  18
ATOM     18  N   UNL     1       7.646   6.387  16.334  0.00  0.00    +0.000 N 
ATOM     19  H   UNL     1       8.557   6.282  15.886  0.00  0.00    +0.000 HD
ATOM     20  H   UNL     1       7.264   7.229  15.892  0.00  0.00    +0.000 HD
ENDBRANCH  13  18
BRANCH  14  21
ATOM     21  S   UNL     1       7.478   5.009  13.439  0.00  0.00    +0.000 S 
ATOM     22  H   UNL     1       6.773   6.126  13.216  0.00  0.00    +0.000 HD
ENDBRANCH  14  21
ENDBRANCH  12  17
ENDBRANCH   1  12
BRANCH   4  23
ATOM     23  C   UNL     1       2.332   8.540  17.846  0.00  0.00    +0.000 C 
BRANCH  23  24
ATOM     24  C   UNL     1       1.234   9.190  18.650  0.00  0.00    +0.000 A 
ATOM     25  C   UNL     1       0.113   9.737  18.007  0.00  0.00    +0.000 A 
ATOM     26  C   UNL     1      -0.862  10.419  18.736  0.00  0.00    +0.000 A 
ATOM     27  C   UNL     1      -0.737  10.542  20.118  0.00  0.00    +0.000 A 
ATOM     28  C   UNL     1       0.347   9.960  20.774  0.00  0.00    +0.000 A 
ATOM     29  C   UNL     1       1.328   9.285  20.044  0.00  0.00    +0.000 A 
ENDBRANCH  23  24
ENDBRANCH   4  23
TORSDOF 6
ENDMDL
MODEL 7
REMARK VINA RESULT:      -7.8      2.310      2.950
REMARK  Name = 
REMARK  6 active torsions:
REMARK  status: ('A' for Active; 'I' for Inactive)
REMARK    1  A    between atoms: N_1  and  N_2
REMARK    2  A    between atoms: C_3  and  S_4
REMARK    3  A    between atoms: C_7  and  C_8
REMARK    4  A    between atoms: C_8  and  N_9
REMARK    5  A    between atoms: C_12  and  C_13
REMARK    6  A    between atoms: C_13  and  C_14
REMARK                            x       y       z     vdW  Elec       q    Type
REMARK                         _______ _______ _______ _____ _____    ______ ____
ROOT
ATOM      1  N   UNL     1       0.650  10.227  19.166  0.00  0.00    +0.000 N 
ATOM      2  C   UNL     1       1.537   9.286  18.650  0.00  0.00    +0.000 A 
ATOM      3  O   UNL     1       2.023   9.345  17.526  0.00  0.00    +0.000 OA
ATOM      4  C   UNL     1       1.885   8.114  19.560  0.00  0.00    +0.000 A 
ATOM      5  N   UNL     1       1.474   8.022  20.788  0.00  0.00    +0.000 NA
ATOM      6  C   UNL     1       0.678   9.053  21.305  0.00  0.00    +0.000 A 
ATOM      7  C   UNL     1       0.324   8.965  22.656  0.00  0.00    +0.000 A 
ATOM      8  C   UNL     1      -0.467   9.945  23.253  0.00  0.00    +0.000 A 
ATOM      9  C   UNL     1      -0.921  11.015  22.491  0.00  0.00    +0.000 A 
ATOM     10  C   UNL     1      -0.583  11.111  21.140  0.00  0.00    +0.000 A 
ATOM     11  C   UNL     1       0.233  10.142  20.530  0.00  0.00    +0.000 A 
ENDROOT
BRANCH   1  12
ATOM     12  C   UNL     1       0.192  11.297  18.282  0.00  0.00    +0.000 C 
BRANCH  12  17
ATOM     13  N   UNL     1       0.472  13.790  18.730  0.00  0.00    +0.000 N 
ATOM     14  C   UNL     1       1.566  14.620  18.800  0.00  0.00    +0.000 A 
ATOM     15  N   UNL     1       2.668  13.929  18.638  0.00  0.00    +0.000 NA
ATOM     16  N   UNL     1       2.307  12.617  18.445  0.00  0.00    +0.000 NA
ATOM     17  C   UNL     1       0.987  12.539  18.470  0.00  0.00    +0.000 A 
BRANCH  13  18
ATOM     18  N   UNL     1      -0.905  14.169  18.906  0.00  0.00    +0.000 N 
ATOM     19  H   UNL     1      -0.973  15.019  19.466  0.00  0.00    +0.000 HD
ATOM     20  H   UNL     1      -1.354  14.433  18.025  0.00  0.00    +0.000 HD
ENDBRANCH  13  18
BRANCH  14  21
ATOM     21  S   UNL     1       1.467  16.327  19.043  0.00  0.00    +0.000 S 
ATOM     22  H   UNL     1       2.010  16.368  20.267  0.00  0.00    +0.000 HD
ENDBRANCH  14  21
ENDBRANCH  12  17
ENDBRANCH   1  12
BRANCH   4  23
ATOM     23  C   UNL     1       2.775   7.031  18.985  0.00  0.00    +0.000 C 
BRANCH  23  24
ATOM     24  C   UNL     1       2.190   5.656  19.190  0.00  0.00    +0.000 A 
ATOM     25  C   UNL     1       1.924   4.827  18.090  0.00  0.00    +0.000 A 
ATOM     26  C   UNL     1       1.301   3.591  18.266  0.00  0.00    +0.000 A 
ATOM     27  C   UNL     1       0.957   3.162  19.546  0.00  0.00    +0.000 A 
ATOM     28  C   UNL     1       1.261   3.955  20.652  0.00  0.00    +0.000 A 
ATOM     29  C   UNL     1       1.877   5.196  20.476  0.00  0.00    +0.000 A 
ENDBRANCH  23  24
ENDBRANCH   4  23
TORSDOF 6
ENDMDL
MODEL 8
REMARK VINA RESULT:      -7.3      2.174      2.881
REMARK  Name = 
REMARK  6 active torsions:
REMARK  status: ('A' for Active; 'I' for Inactive)
REMARK    1  A    between atoms: N_1  and  N_2
REMARK    2  A    between atoms: C_3  and  S_4
REMARK    3  A    between atoms: C_7  and  C_8
REMARK    4  A    between atoms: C_8  and  N_9
REMARK    5  A    between atoms: C_12  and  C_13
REMARK    6  A    between atoms: C_13  and  C_14
REMARK                            x       y       z     vdW  Elec       q    Type
REMARK                         _______ _______ _______ _____ _____    ______ ____
ROOT
ATOM      1  N   UNL     1       0.503  10.186  19.158  0.00  0.00    +0.000 N 
ATOM      2  C   UNL     1       1.420   9.378  18.491  0.00  0.00    +0.000 A 
ATOM      3  O   UNL     1       1.757   9.542  17.323  0.00  0.00    +0.000 OA
ATOM      4  C   UNL     1       2.001   8.214  19.285  0.00  0.00    +0.000 A 
ATOM      5  N   UNL     1       1.753   8.021  20.545  0.00  0.00    +0.000 NA
ATOM      6  C   UNL     1       0.917   8.930  21.208  0.00  0.00    +0.000 A 
ATOM      7  C   UNL     1       0.741   8.742  22.584  0.00  0.00    +0.000 A 
ATOM      8  C   UNL     1      -0.074   9.597  23.323  0.00  0.00    +0.000 A 
ATOM      9  C   UNL     1      -0.732  10.639  22.681  0.00  0.00    +0.000 A 
ATOM     10  C   UNL     1      -0.572  10.834  21.307  0.00  0.00    +0.000 A 
ATOM     11  C   UNL     1       0.266   9.994  20.553  0.00  0.00    +0.000 A 
ENDROOT
BRANCH   1  12
ATOM     12  C   UNL     1      -0.172  11.233  18.395  0.00  0.00    +0.000 C 
BRANCH  12  17
ATOM     13  N   UNL     1      -0.222  13.695  19.056  0.00  0.00    +0.000 N 
ATOM     14  C   UNL     1       0.737  14.678  19.109  0.00  0.00    +0.000 A 
ATOM     15  N   UNL     1       1.907  14.184  18.785  0.00  0.00    +0.000 NA
ATOM     16  N   UNL     1       1.729  12.852  18.500  0.00  0.00    +0.000 NA
ATOM     17  C   UNL     1       0.444  12.566  18.632  0.00  0.00    +0.000 A 
BRANCH  13  18
ATOM     18  N   UNL     1      -1.616  13.836  19.387  0.00  0.00    +0.000 N 
ATOM     19  H   UNL     1      -1.995  14.690  18.976  0.00  0.00    +0.000 HD
ATOM     20  H   UNL     1      -2.194  13.100  18.971  0.00  0.00    +0.000 HD
ENDBRANCH  13  18
BRANCH  14  21
ATOM     21  S   UNL     1       0.411  16.322  19.523  0.00  0.00    +0.000 S 
ATOM     22  H   UNL     1       1.271  16.426  20.545  0.00  0.00    +0.000 HD
ENDBRANCH  14  21
ENDBRANCH  12  17
ENDBRANCH   1  12
BRANCH   4  23
ATOM     23  C   UNL     1       2.928   7.268  18.550  0.00  0.00    +0.000 C 
BRANCH  23  24
ATOM     24  C   UNL     1       2.558   5.824  18.784  0.00  0.00    +0.000 A 
ATOM     25  C   UNL     1       3.075   5.130  19.888  0.00  0.00    +0.000 A 
ATOM     26  C   UNL     1       2.808   3.771  20.060  0.00  0.00    +0.000 A 
ATOM     27  C   UNL     1       2.004   3.098  19.143  0.00  0.00    +0.000 A 
ATOM     28  C   UNL     1       1.445   3.790  18.069  0.00  0.00    +0.000 A 
ATOM     29  C   UNL     1       1.718   5.148  17.891  0.00  0.00    +0.000 A 
ENDBRANCH  23  24
ENDBRANCH   4  23
TORSDOF 6
ENDMDL
MODEL 9
REMARK VINA RESULT:      -7.2      0.564      1.268
REMARK  Name = 
REMARK  6 active torsions:
REMARK  status: ('A' for Active; 'I' for Inactive)
REMARK    1  A    between atoms: N_1  and  N_2
REMARK    2  A    between atoms: C_3  and  S_4
REMARK    3  A    between atoms: C_7  and  C_8
REMARK    4  A    between atoms: C_8  and  N_9
REMARK    5  A    between atoms: C_12  and  C_13
REMARK    6  A    between atoms: C_13  and  C_14
REMARK                            x       y       z     vdW  Elec       q    Type
REMARK                         _______ _______ _______ _____ _____    ______ ____
ROOT
ATOM      1  N   UNL     1       0.746  10.401  19.301  0.00  0.00    +0.000 N 
ATOM      2  C   UNL     1       1.541   9.478  18.626  0.00  0.00    +0.000 A 
ATOM      3  O   UNL     1       1.981   9.649  17.494  0.00  0.00    +0.000 OA
ATOM      4  C   UNL     1       1.842   8.178  19.361  0.00  0.00    +0.000 A 
ATOM      5  N   UNL     1       1.478   7.956  20.588  0.00  0.00    +0.000 NA
ATOM      6  C   UNL     1       0.781   8.963  21.271  0.00  0.00    +0.000 A 
ATOM      7  C   UNL     1       0.480   8.725  22.617  0.00  0.00    +0.000 A 
ATOM      8  C   UNL     1      -0.212   9.670  23.372  0.00  0.00    +0.000 A 
ATOM      9  C   UNL     1      -0.620  10.856  22.775  0.00  0.00    +0.000 A 
ATOM     10  C   UNL     1      -0.334  11.103  21.430  0.00  0.00    +0.000 A 
ATOM     11  C   UNL     1       0.383  10.170  20.663  0.00  0.00    +0.000 A 
ENDROOT
BRANCH   1  12
ATOM     12  C   UNL     1       0.329  11.604  18.583  0.00  0.00    +0.000 C 
BRANCH  12  17
ATOM     13  N   UNL     1      -1.986  11.014  17.696  0.00  0.00    +0.000 N 
ATOM     14  C   UNL     1      -3.251  11.468  17.982  0.00  0.00    +0.000 A 
ATOM     15  N   UNL     1      -3.205  12.355  18.947  0.00  0.00    +0.000 NA
ATOM     16  N   UNL     1      -1.887  12.505  19.305  0.00  0.00    +0.000 NA
ATOM     17  C   UNL     1      -1.152  11.723  18.532  0.00  0.00    +0.000 A 
BRANCH  13  18
ATOM     18  N   UNL     1      -1.635  10.004  16.731  0.00  0.00    +0.000 N 
ATOM     19  H   UNL     1      -1.741  10.365  15.783  0.00  0.00    +0.000 HD
ATOM     20  H   UNL     1      -0.644   9.749  16.775  0.00  0.00    +0.000 HD
ENDBRANCH  13  18
BRANCH  14  21
ATOM     21  S   UNL     1      -4.675  10.944  17.156  0.00  0.00    +0.000 S 
ATOM     22  H   UNL     1      -4.978  12.105  16.561  0.00  0.00    +0.000 HD
ENDBRANCH  14  21
ENDBRANCH  12  17
ENDBRANCH   1  12
BRANCH   4  23
ATOM     23  C   UNL     1       2.626   7.122  18.610  0.00  0.00    +0.000 C 
BRANCH  23  24
ATOM     24  C   UNL     1       2.156   5.728  18.947  0.00  0.00    +0.000 A 
ATOM     25  C   UNL     1       1.854   4.816  17.925  0.00  0.00    +0.000 A 
ATOM     26  C   UNL     1       1.334   3.557  18.228  0.00  0.00    +0.000 A 
ATOM     27  C   UNL     1       1.132   3.189  19.557  0.00  0.00    +0.000 A 
ATOM     28  C   UNL     1       1.476   4.069  20.582  0.00  0.00    +0.000 A 
ATOM     29  C   UNL     1       1.988   5.333  20.280  0.00  0.00    +0.000 A 
ENDBRANCH  23  24
ENDBRANCH   4  23
TORSDOF 6
ENDMDL
