MODEL 1
REMARK VINA RESULT:      -7.8      0.000      0.000
REMARK  Name = 
REMARK  3 active torsions:
REMARK  status: ('A' for Active; 'I' for Inactive)
REMARK    1  A    between atoms: C_6  and  C_7
REMARK    2  A    between atoms: N_13  and  S_14
REMARK    3  A    between atoms: S_14  and  C_17
REMARK                            x       y       z     vdW  Elec       q    Type
REMARK                         _______ _______ _______ _____ _____    ______ ____
ROOT
ATOM      1  C   UNL     1       2.603   4.942  19.433  0.00  0.00    +0.000 C 
ATOM      2  O   UNL     1       2.409   5.737  20.353  0.00  0.00    +0.000 OA
ATOM      3  N   UNL     1       3.719   5.045  18.575  0.00  0.00    +0.000 N 
ATOM      4  C   UNL     1       4.732   6.071  18.835  0.00  0.00    +0.000 C 
ATOM      5  C   UNL     1       6.157   5.559  19.091  0.00  0.00    +0.000 C 
ATOM      6  C   UNL     1       6.782   4.521  18.157  0.00  0.00    +0.000 C 
ATOM      7  N   UNL     1       6.126   4.374  16.856  0.00  0.00    +0.000 NA
ATOM      8  C   UNL     1       4.859   3.616  16.869  0.00  0.00    +0.000 C 
ATOM      9  C   UNL     1       3.677   4.524  17.197  0.00  0.00    +0.000 C 
ENDROOT
BRANCH   1  15
ATOM     10  N   UNL     1       1.437   2.823  21.443  0.00  0.00    +0.000 N 
ATOM     11  C   UNL     1       1.156   2.899  20.125  0.00  0.00    +0.000 A 
ATOM     12  N   UNL     1       0.297   2.094  19.504  0.00  0.00    +0.000 NA
ATOM     13  O   UNL     1       0.286   2.515  18.183  0.00  0.00    +0.000 OA
ATOM     14  N   UNL     1       1.152   3.580  17.985  0.00  0.00    +0.000 NA
ATOM     15  C   UNL     1       1.660   3.846  19.201  0.00  0.00    +0.000 A 
ATOM     16  H   UNL     1       1.165   1.981  21.936  0.00  0.00    +0.000 HD
ATOM     17  H   UNL     1       2.275   3.266  21.817  0.00  0.00    +0.000 HD
ENDBRANCH   1  15
BRANCH   7  18
ATOM     18  S   UNL     1       6.369   5.517  15.643  0.00  0.00    +0.000 S 
ATOM     19  O   UNL     1       5.210   6.379  15.560  0.00  0.00    +0.000 OA
ATOM     20  O   UNL     1       7.703   6.058  15.787  0.00  0.00    +0.000 OA
BRANCH  18  21
ATOM     21  C   UNL     1       6.407   4.680  14.077  0.00  0.00    +0.000 A 
ATOM     22  C   UNL     1       5.573   3.733  13.517  0.00  0.00    +0.000 A 
ATOM     23  C   UNL     1       6.023   3.303  12.237  0.00  0.00    +0.000 A 
ATOM     24  C   UNL     1       7.189   3.936  11.865  0.00  0.00    +0.000 A 
ATOM     25  S   UNL     1       7.723   5.051  13.048  0.00  0.00    +0.000 S 
ENDBRANCH  18  21
ENDBRANCH   7  18
TORSDOF 3
ENDMDL
MODEL 2
REMARK VINA RESULT:      -7.7      1.331      1.391
REMARK  Name = 
REMARK  3 active torsions:
REMARK  status: ('A' for Active; 'I' for Inactive)
REMARK    1  A    between atoms: C_6  and  C_7
REMARK    2  A    between atoms: N_13  and  S_14
REMARK    3  A    between atoms: S_14  and  C_17
REMARK                            x       y       z     vdW  Elec       q    Type
REMARK                         _______ _______ _______ _____ _____    ______ ____
ROOT
ATOM      1  C   UNL     1       3.520   5.008  19.049  0.00  0.00    +0.000 C 
ATOM      2  O   UNL     1       3.397   5.929  19.857  0.00  0.00    +0.000 OA
ATOM      3  N   UNL     1       4.495   5.030  18.029  0.00  0.00    +0.000 N 
ATOM      4  C   UNL     1       5.456   6.135  17.978  0.00  0.00    +0.000 C 
ATOM      5  C   UNL     1       6.936   5.745  18.093  0.00  0.00    +0.000 C 
ATOM      6  C   UNL     1       7.501   4.605  17.245  0.00  0.00    +0.000 C 
ATOM      7  N   UNL     1       6.684   4.218  16.093  0.00  0.00    +0.000 NA
ATOM      8  C   UNL     1       5.492   3.407  16.408  0.00  0.00    +0.000 C 
ATOM      9  C   UNL     1       4.301   4.293  16.767  0.00  0.00    +0.000 C 
ENDROOT
BRANCH   1  15
ATOM     10  N   UNL     1       4.214   1.986  19.575  0.00  0.00    +0.000 N 
ATOM     11  C   UNL     1       2.979   2.486  19.359  0.00  0.00    +0.000 A 
ATOM     12  N   UNL     1       1.868   1.753  19.385  0.00  0.00    +0.000 NA
ATOM     13  O   UNL     1       0.833   2.641  19.138  0.00  0.00    +0.000 OA
ATOM     14  N   UNL     1       1.309   3.930  18.948  0.00  0.00    +0.000 NA
ATOM     15  C   UNL     1       2.638   3.841  19.128  0.00  0.00    +0.000 A 
ATOM     16  H   UNL     1       4.331   0.981  19.526  0.00  0.00    +0.000 HD
ATOM     17  H   UNL     1       5.038   2.511  19.289  0.00  0.00    +0.000 HD
ENDBRANCH   1  15
BRANCH   7  18
ATOM     18  S   UNL     1       6.671   5.163  14.699  0.00  0.00    +0.000 S 
ATOM     19  O   UNL     1       5.648   6.179  14.821  0.00  0.00    +0.000 OA
ATOM     20  O   UNL     1       8.036   5.504  14.366  0.00  0.00    +0.000 OA
BRANCH  18  21
ATOM     21  C   UNL     1       6.131   4.156  13.339  0.00  0.00    +0.000 A 
ATOM     22  C   UNL     1       4.885   3.680  12.982  0.00  0.00    +0.000 A 
ATOM     23  C   UNL     1       4.931   2.859  11.820  0.00  0.00    +0.000 A 
ATOM     24  C   UNL     1       6.214   2.734  11.332  0.00  0.00    +0.000 A 
ATOM     25  S   UNL     1       7.347   3.616  12.263  0.00  0.00    +0.000 S 
ENDBRANCH  18  21
ENDBRANCH   7  18
TORSDOF 3
ENDMDL
MODEL 3
REMARK VINA RESULT:      -7.4      3.327      5.076
REMARK  Name = 
REMARK  3 active torsions:
REMARK  status: ('A' for Active; 'I' for Inactive)
REMARK    1  A    between atoms: C_6  and  C_7
REMARK    2  A    between atoms: N_13  and  S_14
REMARK    3  A    between atoms: S_14  and  C_17
REMARK                            x       y       z     vdW  Elec       q    Type
REMARK                         _______ _______ _______ _____ _____    ______ ____
ROOT
ATOM      1  C   UNL     1       1.694   7.652  20.342  0.00  0.00    +0.000 C 
ATOM      2  O   UNL     1       1.453   7.890  21.526  0.00  0.00    +0.000 OA
ATOM      3  N   UNL     1       2.078   6.369  19.898  0.00  0.00    +0.000 N 
ATOM      4  C   UNL     1       2.104   5.257  20.852  0.00  0.00    +0.000 C 
ATOM      5  C   UNL     1       1.188   4.069  20.526  0.00  0.00    +0.000 C 
ATOM      6  C   UNL     1       1.175   3.469  19.119  0.00  0.00    +0.000 C 
ATOM      7  N   UNL     1       2.326   3.814  18.281  0.00  0.00    +0.000 NA
ATOM      8  C   UNL     1       2.305   5.176  17.712  0.00  0.00    +0.000 C 
ATOM      9  C   UNL     1       2.899   6.190  18.687  0.00  0.00    +0.000 C 
ENDROOT
BRANCH   1  15
ATOM     10  N   UNL     1      -0.233  10.135  20.242  0.00  0.00    +0.000 N 
ATOM     11  C   UNL     1       0.702   9.823  19.319  0.00  0.00    +0.000 A 
ATOM     12  N   UNL     1       0.961  10.568  18.247  0.00  0.00    +0.000 NA
ATOM     13  O   UNL     1       1.986   9.914  17.582  0.00  0.00    +0.000 OA
ATOM     14  N   UNL     1       2.355   8.751  18.242  0.00  0.00    +0.000 NA
ATOM     15  C   UNL     1       1.586   8.718  19.344  0.00  0.00    +0.000 A 
ATOM     16  H   UNL     1      -0.923  10.835  19.996  0.00  0.00    +0.000 HD
ATOM     17  H   UNL     1      -0.578   9.425  20.884  0.00  0.00    +0.000 HD
ENDBRANCH   1  15
BRANCH   7  18
ATOM     18  S   UNL     1       3.813   3.063  18.520  0.00  0.00    +0.000 S 
ATOM     19  O   UNL     1       4.307   3.390  19.840  0.00  0.00    +0.000 OA
ATOM     20  O   UNL     1       3.709   1.691  18.074  0.00  0.00    +0.000 OA
BRANCH  18  21
ATOM     21  C   UNL     1       4.998   3.789  17.414  0.00  0.00    +0.000 A 
ATOM     22  C   UNL     1       5.115   3.759  16.039  0.00  0.00    +0.000 A 
ATOM     23  C   UNL     1       6.267   4.455  15.577  0.00  0.00    +0.000 A 
ATOM     24  C   UNL     1       6.993   4.991  16.619  0.00  0.00    +0.000 A 
ATOM     25  S   UNL     1       6.276   4.667  18.138  0.00  0.00    +0.000 S 
ENDBRANCH  18  21
ENDBRANCH   7  18
TORSDOF 3
ENDMDL
MODEL 4
REMARK VINA RESULT:      -7.3      1.267      1.603
REMARK  Name = 
REMARK  3 active torsions:
REMARK  status: ('A' for Active; 'I' for Inactive)
REMARK    1  A    between atoms: C_6  and  C_7
REMARK    2  A    between atoms: N_13  and  S_14
REMARK    3  A    between atoms: S_14  and  C_17
REMARK                            x       y       z     vdW  Elec       q    Type
REMARK                         _______ _______ _______ _____ _____    ______ ____
ROOT
ATOM      1  C   UNL     1       3.575   4.963  19.127  0.00  0.00    +0.000 C 
ATOM      2  O   UNL     1       3.467   5.875  19.947  0.00  0.00    +0.000 OA
ATOM      3  N   UNL     1       4.536   4.994  18.093  0.00  0.00    +0.000 N 
ATOM      4  C   UNL     1       5.499   6.097  18.041  0.00  0.00    +0.000 C 
ATOM      5  C   UNL     1       6.980   5.702  18.130  0.00  0.00    +0.000 C 
ATOM      6  C   UNL     1       7.529   4.570  17.261  0.00  0.00    +0.000 C 
ATOM      7  N   UNL     1       6.694   4.199  16.116  0.00  0.00    +0.000 NA
ATOM      8  C   UNL     1       5.504   3.388  16.439  0.00  0.00    +0.000 C 
ATOM      9  C   UNL     1       4.322   4.273  16.825  0.00  0.00    +0.000 C 
ENDROOT
BRANCH   1  15
ATOM     10  N   UNL     1       0.965   4.298  17.504  0.00  0.00    +0.000 N 
ATOM     11  C   UNL     1       1.515   3.525  18.465  0.00  0.00    +0.000 A 
ATOM     12  N   UNL     1       1.035   2.338  18.826  0.00  0.00    +0.000 NA
ATOM     13  O   UNL     1       1.891   1.877  19.813  0.00  0.00    +0.000 OA
ATOM     14  N   UNL     1       2.902   2.793  20.073  0.00  0.00    +0.000 NA
ATOM     15  C   UNL     1       2.692   3.797  19.204  0.00  0.00    +0.000 A 
ATOM     16  H   UNL     1       0.022   4.078  17.205  0.00  0.00    +0.000 HD
ATOM     17  H   UNL     1       1.195   5.288  17.446  0.00  0.00    +0.000 HD
ENDBRANCH   1  15
BRANCH   7  18
ATOM     18  S   UNL     1       6.664   5.160  14.734  0.00  0.00    +0.000 S 
ATOM     19  O   UNL     1       5.633   6.165  14.874  0.00  0.00    +0.000 OA
ATOM     20  O   UNL     1       8.024   5.518  14.396  0.00  0.00    +0.000 OA
BRANCH  18  21
ATOM     21  C   UNL     1       6.125   4.165  13.365  0.00  0.00    +0.000 A 
ATOM     22  C   UNL     1       4.881   3.686  13.007  0.00  0.00    +0.000 A 
ATOM     23  C   UNL     1       4.927   2.877  11.836  0.00  0.00    +0.000 A 
ATOM     24  C   UNL     1       6.209   2.765  11.342  0.00  0.00    +0.000 A 
ATOM     25  S   UNL     1       7.340   3.644  12.278  0.00  0.00    +0.000 S 
ENDBRANCH  18  21
ENDBRANCH   7  18
TORSDOF 3
ENDMDL
MODEL 5
REMARK VINA RESULT:      -7.0      3.120      6.909
REMARK  Name = 
REMARK  3 active torsions:
REMARK  status: ('A' for Active; 'I' for Inactive)
REMARK    1  A    between atoms: C_6  and  C_7
REMARK    2  A    between atoms: N_13  and  S_14
REMARK    3  A    between atoms: S_14  and  C_17
REMARK                            x       y       z     vdW  Elec       q    Type
REMARK                         _______ _______ _______ _____ _____    ______ ____
ROOT
ATOM      1  C   UNL     1       6.736   4.630  13.998  0.00  0.00    +0.000 C 
ATOM      2  O   UNL     1       7.809   5.146  13.685  0.00  0.00    +0.000 OA
ATOM      3  N   UNL     1       6.194   4.754  15.295  0.00  0.00    +0.000 N 
ATOM      4  C   UNL     1       6.875   5.599  16.280  0.00  0.00    +0.000 C 
ATOM      5  C   UNL     1       6.057   6.770  16.842  0.00  0.00    +0.000 C 
ATOM      6  C   UNL     1       4.628   6.544  17.339  0.00  0.00    +0.000 C 
ATOM      7  N   UNL     1       4.273   5.149  17.609  0.00  0.00    +0.000 NA
ATOM      8  C   UNL     1       3.999   4.324  16.416  0.00  0.00    +0.000 C 
ATOM      9  C   UNL     1       5.288   3.732  15.849  0.00  0.00    +0.000 C 
ENDROOT
BRANCH   1  15
ATOM     10  N   UNL     1       7.730   2.497  11.912  0.00  0.00    +0.000 N 
ATOM     11  C   UNL     1       6.453   2.905  12.077  0.00  0.00    +0.000 A 
ATOM     12  N   UNL     1       5.425   2.413  11.390  0.00  0.00    +0.000 NA
ATOM     13  O   UNL     1       4.308   3.079  11.871  0.00  0.00    +0.000 OA
ATOM     14  N   UNL     1       4.651   3.996  12.854  0.00  0.00    +0.000 NA
ATOM     15  C   UNL     1       5.979   3.856  13.012  0.00  0.00    +0.000 A 
ATOM     16  H   UNL     1       7.952   1.965  11.079  0.00  0.00    +0.000 HD
ATOM     17  H   UNL     1       8.501   3.069  12.253  0.00  0.00    +0.000 HD
ENDBRANCH   1  15
BRANCH   7  18
ATOM     18  S   UNL     1       4.812   4.387  19.010  0.00  0.00    +0.000 S 
ATOM     19  O   UNL     1       5.506   3.168  18.653  0.00  0.00    +0.000 OA
ATOM     20  O   UNL     1       5.425   5.380  19.864  0.00  0.00    +0.000 OA
BRANCH  18  21
ATOM     21  C   UNL     1       3.399   3.833  19.933  0.00  0.00    +0.000 A 
ATOM     22  C   UNL     1       3.226   2.781  20.810  0.00  0.00    +0.000 A 
ATOM     23  C   UNL     1       1.887   2.688  21.286  0.00  0.00    +0.000 A 
ATOM     24  C   UNL     1       1.084   3.672  20.752  0.00  0.00    +0.000 A 
ATOM     25  S   UNL     1       1.947   4.707  19.698  0.00  0.00    +0.000 S 
ENDBRANCH  18  21
ENDBRANCH   7  18
TORSDOF 3
ENDMDL
MODEL 6
REMARK VINA RESULT:      -6.9      2.610      4.471
REMARK  Name = 
REMARK  3 active torsions:
REMARK  status: ('A' for Active; 'I' for Inactive)
REMARK    1  A    between atoms: C_6  and  C_7
REMARK    2  A    between atoms: N_13  and  S_14
REMARK    3  A    between atoms: S_14  and  C_17
REMARK                            x       y       z     vdW  Elec       q    Type
REMARK                         _______ _______ _______ _____ _____    ______ ____
ROOT
ATOM      1  C   UNL     1       3.432   2.408  18.814  0.00  0.00    +0.000 C 
ATOM      2  O   UNL     1       3.157   1.447  18.094  0.00  0.00    +0.000 OA
ATOM      3  N   UNL     1       4.297   3.439  18.390  0.00  0.00    +0.000 N 
ATOM      4  C   UNL     1       4.815   3.424  17.019  0.00  0.00    +0.000 C 
ATOM      5  C   UNL     1       4.463   4.641  16.153  0.00  0.00    +0.000 C 
ATOM      6  C   UNL     1       4.650   6.057  16.700  0.00  0.00    +0.000 C 
ATOM      7  N   UNL     1       5.524   6.164  17.871  0.00  0.00    +0.000 NA
ATOM      8  C   UNL     1       4.921   5.739  19.150  0.00  0.00    +0.000 C 
ATOM      9  C   UNL     1       5.075   4.234  19.358  0.00  0.00    +0.000 C 
ENDROOT
BRANCH   1  15
ATOM     10  N   UNL     1       0.502   3.116  19.707  0.00  0.00    +0.000 N 
ATOM     11  C   UNL     1       1.532   2.835  20.533  0.00  0.00    +0.000 A 
ATOM     12  N   UNL     1       1.425   2.778  21.858  0.00  0.00    +0.000 NA
ATOM     13  O   UNL     1       2.690   2.446  22.317  0.00  0.00    +0.000 OA
ATOM     14  N   UNL     1       3.587   2.306  21.268  0.00  0.00    +0.000 NA
ATOM     15  C   UNL     1       2.857   2.506  20.157  0.00  0.00    +0.000 A 
ATOM     16  H   UNL     1      -0.330   3.527  20.114  0.00  0.00    +0.000 HD
ATOM     17  H   UNL     1       0.676   3.407  18.747  0.00  0.00    +0.000 HD
ENDBRANCH   1  15
BRANCH   7  18
ATOM     18  S   UNL     1       7.196   6.077  17.700  0.00  0.00    +0.000 S 
ATOM     19  O   UNL     1       7.733   5.179  18.700  0.00  0.00    +0.000 OA
ATOM     20  O   UNL     1       7.504   5.913  16.296  0.00  0.00    +0.000 OA
BRANCH  18  21
ATOM     21  C   UNL     1       7.890   7.659  18.113  0.00  0.00    +0.000 A 
ATOM     22  C   UNL     1       8.834   8.036  19.048  0.00  0.00    +0.000 A 
ATOM     23  C   UNL     1       9.054   9.442  19.060  0.00  0.00    +0.000 A 
ATOM     24  C   UNL     1       8.266  10.092  18.134  0.00  0.00    +0.000 A 
ATOM     25  S   UNL     1       7.284   9.005  17.249  0.00  0.00    +0.000 S 
ENDBRANCH  18  21
ENDBRANCH   7  18
TORSDOF 3
ENDMDL
MODEL 7
REMARK VINA RESULT:      -6.8      3.124      6.891
REMARK  Name = 
REMARK  3 active torsions:
REMARK  status: ('A' for Active; 'I' for Inactive)
REMARK    1  A    between atoms: C_6  and  C_7
REMARK    2  A    between atoms: N_13  and  S_14
REMARK    3  A    between atoms: S_14  and  C_17
REMARK                            x       y       z     vdW  Elec       q    Type
REMARK                         _______ _______ _______ _____ _____    ______ ____
ROOT
ATOM      1  C   UNL     1       5.918   3.627  15.481  0.00  0.00    +0.000 C 
ATOM      2  O   UNL     1       5.837   2.414  15.284  0.00  0.00    +0.000 OA
ATOM      3  N   UNL     1       5.204   4.268  16.516  0.00  0.00    +0.000 N 
ATOM      4  C   UNL     1       4.411   3.462  17.448  0.00  0.00    +0.000 C 
ATOM      5  C   UNL     1       4.803   3.564  18.928  0.00  0.00    +0.000 C 
ATOM      6  C   UNL     1       5.021   4.933  19.575  0.00  0.00    +0.000 C 
ATOM      7  N   UNL     1       4.459   6.069  18.841  0.00  0.00    +0.000 NA
ATOM      8  C   UNL     1       5.226   6.495  17.654  0.00  0.00    +0.000 C 
ATOM      9  C   UNL     1       4.826   5.689  16.420  0.00  0.00    +0.000 C 
ENDROOT
BRANCH   1  15
ATOM     10  N   UNL     1       6.212   3.669  12.351  0.00  0.00    +0.000 N 
ATOM     11  C   UNL     1       6.895   4.446  13.219  0.00  0.00    +0.000 A 
ATOM     12  N   UNL     1       7.768   5.379  12.847  0.00  0.00    +0.000 NA
ATOM     13  O   UNL     1       8.222   5.950  14.025  0.00  0.00    +0.000 OA
ATOM     14  N   UNL     1       7.633   5.357  15.133  0.00  0.00    +0.000 NA
ATOM     15  C   UNL     1       6.777   4.452  14.629  0.00  0.00    +0.000 A 
ATOM     16  H   UNL     1       6.541   3.629  11.393  0.00  0.00    +0.000 HD
ATOM     17  H   UNL     1       5.769   2.809  12.670  0.00  0.00    +0.000 HD
ENDBRANCH   1  15
BRANCH   7  18
ATOM     18  S   UNL     1       2.805   6.382  18.887  0.00  0.00    +0.000 S 
ATOM     19  O   UNL     1       2.543   7.421  19.859  0.00  0.00    +0.000 OA
ATOM     20  O   UNL     1       2.321   6.481  17.528  0.00  0.00    +0.000 OA
BRANCH  18  21
ATOM     21  C   UNL     1       1.977   4.952  19.538  0.00  0.00    +0.000 A 
ATOM     22  C   UNL     1       1.802   4.497  20.830  0.00  0.00    +0.000 A 
ATOM     23  C   UNL     1       1.100   3.259  20.878  0.00  0.00    +0.000 A 
ATOM     24  C   UNL     1       0.767   2.810  19.619  0.00  0.00    +0.000 A 
ATOM     25  S   UNL     1       1.284   3.886  18.393  0.00  0.00    +0.000 S 
ENDBRANCH  18  21
ENDBRANCH   7  18
TORSDOF 3
ENDMDL
MODEL 8
REMARK VINA RESULT:      -6.7      3.248      6.940
REMARK  Name = 
REMARK  3 active torsions:
REMARK  status: ('A' for Active; 'I' for Inactive)
REMARK    1  A    between atoms: C_6  and  C_7
REMARK    2  A    between atoms: N_13  and  S_14
REMARK    3  A    between atoms: S_14  and  C_17
REMARK                            x       y       z     vdW  Elec       q    Type
REMARK                         _______ _______ _______ _____ _____    ______ ____
ROOT
ATOM      1  C   UNL     1       5.731   3.521  15.830  0.00  0.00    +0.000 C 
ATOM      2  O   UNL     1       5.709   2.305  15.640  0.00  0.00    +0.000 OA
ATOM      3  N   UNL     1       4.947   4.139  16.828  0.00  0.00    +0.000 N 
ATOM      4  C   UNL     1       4.149   3.307  17.731  0.00  0.00    +0.000 C 
ATOM      5  C   UNL     1       4.472   3.435  19.227  0.00  0.00    +0.000 C 
ATOM      6  C   UNL     1       4.605   4.816  19.870  0.00  0.00    +0.000 C 
ATOM      7  N   UNL     1       4.028   5.923  19.103  0.00  0.00    +0.000 NA
ATOM      8  C   UNL     1       4.827   6.373  17.946  0.00  0.00    +0.000 C 
ATOM      9  C   UNL     1       4.514   5.542  16.703  0.00  0.00    +0.000 C 
ENDROOT
BRANCH   1  15
ATOM     10  N   UNL     1       6.051   3.651  12.705  0.00  0.00    +0.000 N 
ATOM     11  C   UNL     1       6.721   4.409  13.599  0.00  0.00    +0.000 A 
ATOM     12  N   UNL     1       7.589   5.359  13.261  0.00  0.00    +0.000 NA
ATOM     13  O   UNL     1       8.029   5.901  14.458  0.00  0.00    +0.000 OA
ATOM     14  N   UNL     1       7.435   5.274  15.544  0.00  0.00    +0.000 NA
ATOM     15  C   UNL     1       6.590   4.376  15.008  0.00  0.00    +0.000 A 
ATOM     16  H   UNL     1       6.388   3.640  11.749  0.00  0.00    +0.000 HD
ATOM     17  H   UNL     1       5.612   2.780  12.996  0.00  0.00    +0.000 HD
ENDBRANCH   1  15
BRANCH   7  18
ATOM     18  S   UNL     1       2.363   6.166  19.076  0.00  0.00    +0.000 S 
ATOM     19  O   UNL     1       1.802   5.506  17.916  0.00  0.00    +0.000 OA
ATOM     20  O   UNL     1       1.844   5.925  20.404  0.00  0.00    +0.000 OA
BRANCH  18  21
ATOM     21  C   UNL     1       2.048   7.891  18.794  0.00  0.00    +0.000 A 
ATOM     22  C   UNL     1       2.307   8.711  17.713  0.00  0.00    +0.000 A 
ATOM     23  C   UNL     1       1.917  10.060  17.951  0.00  0.00    +0.000 A 
ATOM     24  C   UNL     1       1.376  10.223  19.208  0.00  0.00    +0.000 A 
ATOM     25  S   UNL     1       1.326   8.754  20.083  0.00  0.00    +0.000 S 
ENDBRANCH  18  21
ENDBRANCH   7  18
TORSDOF 3
ENDMDL
MODEL 9
REMARK VINA RESULT:      -6.6      1.138      1.280
REMARK  Name = 
REMARK  3 active torsions:
REMARK  status: ('A' for Active; 'I' for Inactive)
REMARK    1  A    between atoms: C_6  and  C_7
REMARK    2  A    between atoms: N_13  and  S_14
REMARK    3  A    between atoms: S_14  and  C_17
REMARK                            x       y       z     vdW  Elec       q    Type
REMARK                         _______ _______ _______ _____ _____    ______ ____
ROOT
ATOM      1  C   UNL     1       3.325   4.530  19.619  0.00  0.00    +0.000 C 
ATOM      2  O   UNL     1       3.153   5.260  20.596  0.00  0.00    +0.000 OA
ATOM      3  N   UNL     1       4.336   4.778  18.666  0.00  0.00    +0.000 N 
ATOM      4  C   UNL     1       5.275   5.880  18.885  0.00  0.00    +0.000 C 
ATOM      5  C   UNL     1       6.758   5.493  18.976  0.00  0.00    +0.000 C 
ATOM      6  C   UNL     1       7.377   4.563  17.931  0.00  0.00    +0.000 C 
ATOM      7  N   UNL     1       6.610   4.417  16.691  0.00  0.00    +0.000 NA
ATOM      8  C   UNL     1       5.424   3.543  16.782  0.00  0.00    +0.000 C 
ATOM      9  C   UNL     1       4.204   4.320  17.271  0.00  0.00    +0.000 C 
ENDROOT
BRANCH   1  15
ATOM     10  N   UNL     1       0.274   4.133  20.270  0.00  0.00    +0.000 N 
ATOM     11  C   UNL     1       1.092   3.207  19.726  0.00  0.00    +0.000 A 
ATOM     12  N   UNL     1       0.692   1.995  19.348  0.00  0.00    +0.000 NA
ATOM     13  O   UNL     1       1.819   1.378  18.831  0.00  0.00    +0.000 OA
ATOM     14  N   UNL     1       2.927   2.210  18.899  0.00  0.00    +0.000 NA
ATOM     15  C   UNL     1       2.465   3.362  19.416  0.00  0.00    +0.000 A 
ATOM     16  H   UNL     1      -0.624   3.821  20.619  0.00  0.00    +0.000 HD
ATOM     17  H   UNL     1       0.661   4.925  20.779  0.00  0.00    +0.000 HD
ENDBRANCH   1  15
BRANCH   7  18
ATOM     18  S   UNL     1       6.629   5.633  15.527  0.00  0.00    +0.000 S 
ATOM     19  O   UNL     1       5.325   6.256  15.466  0.00  0.00    +0.000 OA
ATOM     20  O   UNL     1       7.831   6.417  15.705  0.00  0.00    +0.000 OA
BRANCH  18  21
ATOM     21  C   UNL     1       6.834   4.883  13.930  0.00  0.00    +0.000 A 
ATOM     22  C   UNL     1       7.749   5.102  12.919  0.00  0.00    +0.000 A 
ATOM     23  C   UNL     1       7.501   4.289  11.777  0.00  0.00    +0.000 A 
ATOM     24  C   UNL     1       6.401   3.478  11.956  0.00  0.00    +0.000 A 
ATOM     25  S   UNL     1       5.688   3.689  13.497  0.00  0.00    +0.000 S 
ENDBRANCH  18  21
ENDBRANCH   7  18
TORSDOF 3
ENDMDL
