MODEL 1
REMARK VINA RESULT:      -7.4      0.000      0.000
REMARK  Name = 
REMARK  3 active torsions:
REMARK  status: ('A' for Active; 'I' for Inactive)
REMARK    1  A    between atoms: C_1  and  N_2
REMARK    2  A    between atoms: C_11  and  S_12
REMARK    3  A    between atoms: S_12  and  C_15
REMARK                            x       y       z     vdW  Elec       q    Type
REMARK                         _______ _______ _______ _____ _____    ______ ____
ROOT
ATOM      1  C   UNL     1       1.588   2.508  21.918  0.00  0.00    +0.000 C 
ATOM      2  N   UNL     1       2.472   2.816  20.808  0.00  0.00    +0.000 N 
ATOM      3  C   UNL     1       2.462   4.069  20.290  0.00  0.00    +0.000 A 
ATOM      4  N   UNL     1       2.075   5.150  20.967  0.00  0.00    +0.000 NA
ATOM      5  N   UNL     1       2.158   6.168  20.086  0.00  0.00    +0.000 N 
ATOM      6  C   UNL     1       1.817   7.499  20.310  0.00  0.00    +0.000 A 
ATOM      7  C   UNL     1       1.921   8.400  19.325  0.00  0.00    +0.000 A 
ATOM      8  C   UNL     1       2.424   7.863  18.033  0.00  0.00    +0.000 A 
ATOM      9  N   UNL     1       2.782   6.636  17.801  0.00  0.00    +0.000 NA
ATOM     10  C   UNL     1       2.637   5.753  18.839  0.00  0.00    +0.000 A 
ATOM     11  C   UNL     1       2.846   4.397  18.972  0.00  0.00    +0.000 A 
ATOM     12  H   UNL     1       2.529   2.044  20.134  0.00  0.00    +0.000 HD
ENDROOT
BRANCH  11  13
ATOM     13  S   UNL     1       3.436   3.306  17.797  0.00  0.00    +0.000 S 
ATOM     14  O   UNL     1       3.858   2.129  18.538  0.00  0.00    +0.000 OA
ATOM     15  O   UNL     1       2.417   3.211  16.770  0.00  0.00    +0.000 OA
BRANCH  13  16
ATOM     16  C   UNL     1       4.892   4.047  17.108  0.00  0.00    +0.000 A 
ATOM     17  C   UNL     1       5.942   4.414  17.957  0.00  0.00    +0.000 A 
ATOM     18  C   UNL     1       7.112   4.948  17.416  0.00  0.00    +0.000 A 
ATOM     19  C   UNL     1       7.235   5.101  16.035  0.00  0.00    +0.000 A 
ATOM     20  C   UNL     1       6.192   4.719  15.189  0.00  0.00    +0.000 A 
ATOM     21  C   UNL     1       5.015   4.188  15.723  0.00  0.00    +0.000 A 
ENDBRANCH  13  16
ENDBRANCH  11  13
TORSDOF 2
ENDMDL
MODEL 2
REMARK VINA RESULT:      -7.3      0.090      1.088
REMARK  Name = 
REMARK  3 active torsions:
REMARK  status: ('A' for Active; 'I' for Inactive)
REMARK    1  A    between atoms: C_1  and  N_2
REMARK    2  A    between atoms: C_11  and  S_12
REMARK    3  A    between atoms: S_12  and  C_15
REMARK                            x       y       z     vdW  Elec       q    Type
REMARK                         _______ _______ _______ _____ _____    ______ ____
ROOT
ATOM      1  C   UNL     1       1.472   2.515  21.871  0.00  0.00    +0.000 C 
ATOM      2  N   UNL     1       2.381   2.818  20.781  0.00  0.00    +0.000 N 
ATOM      3  C   UNL     1       2.399   4.073  20.271  0.00  0.00    +0.000 A 
ATOM      4  N   UNL     1       2.014   5.156  20.948  0.00  0.00    +0.000 NA
ATOM      5  N   UNL     1       2.128   6.179  20.075  0.00  0.00    +0.000 N 
ATOM      6  C   UNL     1       1.801   7.512  20.301  0.00  0.00    +0.000 A 
ATOM      7  C   UNL     1       1.937   8.418  19.325  0.00  0.00    +0.000 A 
ATOM      8  C   UNL     1       2.459   7.883  18.040  0.00  0.00    +0.000 A 
ATOM      9  N   UNL     1       2.804   6.652  17.806  0.00  0.00    +0.000 NA
ATOM     10  C   UNL     1       2.626   5.765  18.836  0.00  0.00    +0.000 A 
ATOM     11  C   UNL     1       2.814   4.405  18.963  0.00  0.00    +0.000 A 
ATOM     12  H   UNL     1       2.441   2.049  20.103  0.00  0.00    +0.000 HD
ENDROOT
BRANCH  11  13
ATOM     13  S   UNL     1       3.412   3.313  17.792  0.00  0.00    +0.000 S 
ATOM     14  O   UNL     1       3.796   2.123  18.533  0.00  0.00    +0.000 OA
ATOM     15  O   UNL     1       2.415   3.245  16.742  0.00  0.00    +0.000 OA
BRANCH  13  16
ATOM     16  C   UNL     1       4.896   4.034  17.144  0.00  0.00    +0.000 A 
ATOM     17  C   UNL     1       4.995   4.282  15.770  0.00  0.00    +0.000 A 
ATOM     18  C   UNL     1       6.138   4.899  15.261  0.00  0.00    +0.000 A 
ATOM     19  C   UNL     1       7.169   5.277  16.122  0.00  0.00    +0.000 A 
ATOM     20  C   UNL     1       7.060   5.042  17.494  0.00  0.00    +0.000 A 
ATOM     21  C   UNL     1       5.921   4.421  18.011  0.00  0.00    +0.000 A 
ENDBRANCH  13  16
ENDBRANCH  11  13
TORSDOF 2
ENDMDL
MODEL 3
REMARK VINA RESULT:      -7.2      1.737      5.121
REMARK  Name = 
REMARK  3 active torsions:
REMARK  status: ('A' for Active; 'I' for Inactive)
REMARK    1  A    between atoms: C_1  and  N_2
REMARK    2  A    between atoms: C_11  and  S_12
REMARK    3  A    between atoms: S_12  and  C_15
REMARK                            x       y       z     vdW  Elec       q    Type
REMARK                         _______ _______ _______ _____ _____    ______ ____
ROOT
ATOM      1  C   UNL     1       2.287   8.190  18.495  0.00  0.00    +0.000 C 
ATOM      2  N   UNL     1       2.415   6.744  18.517  0.00  0.00    +0.000 N 
ATOM      3  C   UNL     1       3.457   6.168  17.870  0.00  0.00    +0.000 A 
ATOM      4  N   UNL     1       4.606   6.791  17.610  0.00  0.00    +0.000 NA
ATOM      5  N   UNL     1       5.342   5.902  16.911  0.00  0.00    +0.000 N 
ATOM      6  C   UNL     1       6.610   6.103  16.373  0.00  0.00    +0.000 A 
ATOM      7  C   UNL     1       7.209   5.134  15.670  0.00  0.00    +0.000 A 
ATOM      8  C   UNL     1       6.425   3.878  15.538  0.00  0.00    +0.000 A 
ATOM      9  N   UNL     1       5.255   3.646  16.054  0.00  0.00    +0.000 NA
ATOM     10  C   UNL     1       4.682   4.680  16.748  0.00  0.00    +0.000 A 
ATOM     11  C   UNL     1       3.467   4.845  17.378  0.00  0.00    +0.000 A 
ATOM     12  H   UNL     1       1.506   6.275  18.427  0.00  0.00    +0.000 HD
ENDROOT
BRANCH  11  13
ATOM     13  S   UNL     1       2.203   3.706  17.537  0.00  0.00    +0.000 S 
ATOM     14  O   UNL     1       0.978   4.451  17.302  0.00  0.00    +0.000 OA
ATOM     15  O   UNL     1       2.557   2.575  16.701  0.00  0.00    +0.000 OA
BRANCH  13  16
ATOM     16  C   UNL     1       2.195   3.197  19.235  0.00  0.00    +0.000 A 
ATOM     17  C   UNL     1       3.382   2.745  19.822  0.00  0.00    +0.000 A 
ATOM     18  C   UNL     1       3.395   2.395  21.172  0.00  0.00    +0.000 A 
ATOM     19  C   UNL     1       2.231   2.508  21.933  0.00  0.00    +0.000 A 
ATOM     20  C   UNL     1       1.052   2.975  21.348  0.00  0.00    +0.000 A 
ATOM     21  C   UNL     1       1.029   3.323  19.996  0.00  0.00    +0.000 A 
ENDBRANCH  13  16
ENDBRANCH  11  13
TORSDOF 2
ENDMDL
MODEL 4
REMARK VINA RESULT:      -7.1      1.750      5.174
REMARK  Name = 
REMARK  3 active torsions:
REMARK  status: ('A' for Active; 'I' for Inactive)
REMARK    1  A    between atoms: C_1  and  N_2
REMARK    2  A    between atoms: C_11  and  S_12
REMARK    3  A    between atoms: S_12  and  C_15
REMARK                            x       y       z     vdW  Elec       q    Type
REMARK                         _______ _______ _______ _____ _____    ______ ____
ROOT
ATOM      1  C   UNL     1       2.233   8.239  18.426  0.00  0.00    +0.000 C 
ATOM      2  N   UNL     1       2.385   6.797  18.484  0.00  0.00    +0.000 N 
ATOM      3  C   UNL     1       3.433   6.221  17.846  0.00  0.00    +0.000 A 
ATOM      4  N   UNL     1       4.570   6.856  17.562  0.00  0.00    +0.000 NA
ATOM      5  N   UNL     1       5.316   5.961  16.881  0.00  0.00    +0.000 N 
ATOM      6  C   UNL     1       6.577   6.169  16.331  0.00  0.00    +0.000 A 
ATOM      7  C   UNL     1       7.188   5.192  15.649  0.00  0.00    +0.000 A 
ATOM      8  C   UNL     1       6.424   3.920  15.554  0.00  0.00    +0.000 A 
ATOM      9  N   UNL     1       5.261   3.683  16.084  0.00  0.00    +0.000 NA
ATOM     10  C   UNL     1       4.675   4.725  16.754  0.00  0.00    +0.000 A 
ATOM     11  C   UNL     1       3.461   4.886  17.387  0.00  0.00    +0.000 A 
ATOM     12  H   UNL     1       1.483   6.311  18.412  0.00  0.00    +0.000 HD
ENDROOT
BRANCH  11  13
ATOM     13  S   UNL     1       2.218   3.731  17.583  0.00  0.00    +0.000 S 
ATOM     14  O   UNL     1       0.979   4.446  17.324  0.00  0.00    +0.000 OA
ATOM     15  O   UNL     1       2.592   2.580  16.785  0.00  0.00    +0.000 OA
BRANCH  13  16
ATOM     16  C   UNL     1       2.217   3.278  19.297  0.00  0.00    +0.000 A 
ATOM     17  C   UNL     1       1.023   3.345  20.025  0.00  0.00    +0.000 A 
ATOM     18  C   UNL     1       1.004   2.939  21.359  0.00  0.00    +0.000 A 
ATOM     19  C   UNL     1       2.168   2.457  21.958  0.00  0.00    +0.000 A 
ATOM     20  C   UNL     1       3.354   2.377  21.225  0.00  0.00    +0.000 A 
ATOM     21  C   UNL     1       3.383   2.785  19.890  0.00  0.00    +0.000 A 
ENDBRANCH  13  16
ENDBRANCH  11  13
TORSDOF 2
ENDMDL
MODEL 5
REMARK VINA RESULT:      -7.1      1.343      1.847
REMARK  Name = 
REMARK  3 active torsions:
REMARK  status: ('A' for Active; 'I' for Inactive)
REMARK    1  A    between atoms: C_1  and  N_2
REMARK    2  A    between atoms: C_11  and  S_12
REMARK    3  A    between atoms: S_12  and  C_15
REMARK                            x       y       z     vdW  Elec       q    Type
REMARK                         _______ _______ _______ _____ _____    ______ ____
ROOT
ATOM      1  C   UNL     1       1.680   2.605  21.641  0.00  0.00    +0.000 C 
ATOM      2  N   UNL     1       2.702   3.236  20.825  0.00  0.00    +0.000 N 
ATOM      3  C   UNL     1       2.537   4.528  20.451  0.00  0.00    +0.000 A 
ATOM      4  N   UNL     1       1.782   5.403  21.115  0.00  0.00    +0.000 NA
ATOM      5  N   UNL     1       1.837   6.541  20.390  0.00  0.00    +0.000 N 
ATOM      6  C   UNL     1       1.174   7.735  20.655  0.00  0.00    +0.000 A 
ATOM      7  C   UNL     1       1.298   8.778  19.825  0.00  0.00    +0.000 A 
ATOM      8  C   UNL     1       2.183   8.545  18.653  0.00  0.00    +0.000 A 
ATOM      9  N   UNL     1       2.842   7.455  18.395  0.00  0.00    +0.000 NA
ATOM     10  C   UNL     1       2.663   6.414  19.269  0.00  0.00    +0.000 A 
ATOM     11  C   UNL     1       3.126   5.117  19.312  0.00  0.00    +0.000 A 
ATOM     12  H   UNL     1       3.075   2.598  20.113  0.00  0.00    +0.000 HD
ENDROOT
BRANCH  11  13
ATOM     13  S   UNL     1       4.188   4.345  18.218  0.00  0.00    +0.000 S 
ATOM     14  O   UNL     1       4.518   3.070  18.832  0.00  0.00    +0.000 OA
ATOM     15  O   UNL     1       3.553   4.400  16.916  0.00  0.00    +0.000 OA
BRANCH  13  16
ATOM     16  C   UNL     1       5.671   5.316  18.186  0.00  0.00    +0.000 A 
ATOM     17  C   UNL     1       5.872   6.230  17.145  0.00  0.00    +0.000 A 
ATOM     18  C   UNL     1       7.010   7.035  17.144  0.00  0.00    +0.000 A 
ATOM     19  C   UNL     1       7.936   6.936  18.183  0.00  0.00    +0.000 A 
ATOM     20  C   UNL     1       7.726   6.035  19.228  0.00  0.00    +0.000 A 
ATOM     21  C   UNL     1       6.590   5.221  19.235  0.00  0.00    +0.000 A 
ENDBRANCH  13  16
ENDBRANCH  11  13
TORSDOF 2
ENDMDL
MODEL 6
REMARK VINA RESULT:      -7.1      2.281      4.155
REMARK  Name = 
REMARK  3 active torsions:
REMARK  status: ('A' for Active; 'I' for Inactive)
REMARK    1  A    between atoms: C_1  and  N_2
REMARK    2  A    between atoms: C_11  and  S_12
REMARK    3  A    between atoms: S_12  and  C_15
REMARK                            x       y       z     vdW  Elec       q    Type
REMARK                         _______ _______ _______ _____ _____    ______ ____
ROOT
ATOM      1  C   UNL     1       2.836   8.327  17.770  0.00  0.00    +0.000 C 
ATOM      2  N   UNL     1       3.800   7.288  17.457  0.00  0.00    +0.000 N 
ATOM      3  C   UNL     1       3.744   6.116  18.136  0.00  0.00    +0.000 A 
ATOM      4  N   UNL     1       2.643   5.649  18.725  0.00  0.00    +0.000 NA
ATOM      5  N   UNL     1       3.023   4.506  19.332  0.00  0.00    +0.000 N 
ATOM      6  C   UNL     1       2.231   3.671  20.115  0.00  0.00    +0.000 A 
ATOM      7  C   UNL     1       2.755   2.578  20.684  0.00  0.00    +0.000 A 
ATOM      8  C   UNL     1       4.196   2.352  20.399  0.00  0.00    +0.000 A 
ATOM      9  N   UNL     1       4.955   3.092  19.647  0.00  0.00    +0.000 NA
ATOM     10  C   UNL     1       4.370   4.208  19.105  0.00  0.00    +0.000 A 
ATOM     11  C   UNL     1       4.837   5.242  18.322  0.00  0.00    +0.000 A 
ATOM     12  H   UNL     1       4.736   7.670  17.281  0.00  0.00    +0.000 HD
ENDROOT
BRANCH  11  13
ATOM     13  S   UNL     1       6.413   5.457  17.699  0.00  0.00    +0.000 S 
ATOM     14  O   UNL     1       6.614   6.896  17.643  0.00  0.00    +0.000 OA
ATOM     15  O   UNL     1       7.289   4.615  18.487  0.00  0.00    +0.000 OA
BRANCH  13  16
ATOM     16  C   UNL     1       6.379   4.864  16.028  0.00  0.00    +0.000 A 
ATOM     17  C   UNL     1       5.297   4.088  15.597  0.00  0.00    +0.000 A 
ATOM     18  C   UNL     1       5.237   3.664  14.270  0.00  0.00    +0.000 A 
ATOM     19  C   UNL     1       6.246   4.024  13.376  0.00  0.00    +0.000 A 
ATOM     20  C   UNL     1       7.317   4.811  13.806  0.00  0.00    +0.000 A 
ATOM     21  C   UNL     1       7.387   5.236  15.134  0.00  0.00    +0.000 A 
ENDBRANCH  13  16
ENDBRANCH  11  13
TORSDOF 2
ENDMDL
MODEL 7
REMARK VINA RESULT:      -7.0      1.524      1.694
REMARK  Name = 
REMARK  3 active torsions:
REMARK  status: ('A' for Active; 'I' for Inactive)
REMARK    1  A    between atoms: C_1  and  N_2
REMARK    2  A    between atoms: C_11  and  S_12
REMARK    3  A    between atoms: S_12  and  C_15
REMARK                            x       y       z     vdW  Elec       q    Type
REMARK                         _______ _______ _______ _____ _____    ______ ____
ROOT
ATOM      1  C   UNL     1       1.768   2.667  21.631  0.00  0.00    +0.000 C 
ATOM      2  N   UNL     1       2.754   3.357  20.819  0.00  0.00    +0.000 N 
ATOM      3  C   UNL     1       2.532   4.649  20.476  0.00  0.00    +0.000 A 
ATOM      4  N   UNL     1       1.751   5.479  21.167  0.00  0.00    +0.000 NA
ATOM      5  N   UNL     1       1.752   6.633  20.468  0.00  0.00    +0.000 N 
ATOM      6  C   UNL     1       1.044   7.793  20.766  0.00  0.00    +0.000 A 
ATOM      7  C   UNL     1       1.117   8.858  19.958  0.00  0.00    +0.000 A 
ATOM      8  C   UNL     1       1.997   8.687  18.772  0.00  0.00    +0.000 A 
ATOM      9  N   UNL     1       2.696   7.631  18.482  0.00  0.00    +0.000 NA
ATOM     10  C   UNL     1       2.569   6.565  19.335  0.00  0.00    +0.000 A 
ATOM     11  C   UNL     1       3.084   5.287  19.344  0.00  0.00    +0.000 A 
ATOM     12  H   UNL     1       3.144   2.751  20.089  0.00  0.00    +0.000 HD
ENDROOT
BRANCH  11  13
ATOM     13  S   UNL     1       4.163   4.582  18.221  0.00  0.00    +0.000 S 
ATOM     14  O   UNL     1       4.513   3.287  18.781  0.00  0.00    +0.000 OA
ATOM     15  O   UNL     1       3.533   4.684  16.920  0.00  0.00    +0.000 OA
BRANCH  13  16
ATOM     16  C   UNL     1       5.630   5.579  18.239  0.00  0.00    +0.000 A 
ATOM     17  C   UNL     1       6.636   5.302  19.171  0.00  0.00    +0.000 A 
ATOM     18  C   UNL     1       7.815   6.047  19.155  0.00  0.00    +0.000 A 
ATOM     19  C   UNL     1       7.992   7.054  18.206  0.00  0.00    +0.000 A 
ATOM     20  C   UNL     1       6.992   7.318  17.267  0.00  0.00    +0.000 A 
ATOM     21  C   UNL     1       5.806   6.579  17.279  0.00  0.00    +0.000 A 
ENDBRANCH  13  16
ENDBRANCH  11  13
TORSDOF 2
ENDMDL
MODEL 8
REMARK VINA RESULT:      -7.0      2.230      4.064
REMARK  Name = 
REMARK  3 active torsions:
REMARK  status: ('A' for Active; 'I' for Inactive)
REMARK    1  A    between atoms: C_1  and  N_2
REMARK    2  A    between atoms: C_11  and  S_12
REMARK    3  A    between atoms: S_12  and  C_15
REMARK                            x       y       z     vdW  Elec       q    Type
REMARK                         _______ _______ _______ _____ _____    ______ ____
ROOT
ATOM      1  C   UNL     1       2.619   8.400  17.986  0.00  0.00    +0.000 C 
ATOM      2  N   UNL     1       3.535   7.377  17.516  0.00  0.00    +0.000 N 
ATOM      3  C   UNL     1       3.277   6.080  17.813  0.00  0.00    +0.000 A 
ATOM      4  N   UNL     1       2.062   5.608  18.089  0.00  0.00    +0.000 NA
ATOM      5  N   UNL     1       2.246   4.304  18.384  0.00  0.00    +0.000 N 
ATOM      6  C   UNL     1       1.275   3.390  18.779  0.00  0.00    +0.000 A 
ATOM      7  C   UNL     1       1.611   2.127  19.073  0.00  0.00    +0.000 A 
ATOM      8  C   UNL     1       3.057   1.814  18.929  0.00  0.00    +0.000 A 
ATOM      9  N   UNL     1       3.983   2.634  18.532  0.00  0.00    +0.000 NA
ATOM     10  C   UNL     1       3.585   3.917  18.263  0.00  0.00    +0.000 A 
ATOM     11  C   UNL     1       4.253   5.062  17.883  0.00  0.00    +0.000 A 
ATOM     12  H   UNL     1       4.515   7.675  17.585  0.00  0.00    +0.000 HD
ENDROOT
BRANCH  11  13
ATOM     13  S   UNL     1       5.921   5.246  17.564  0.00  0.00    +0.000 S 
ATOM     14  O   UNL     1       6.196   6.662  17.745  0.00  0.00    +0.000 OA
ATOM     15  O   UNL     1       6.608   4.248  18.361  0.00  0.00    +0.000 OA
BRANCH  13  16
ATOM     16  C   UNL     1       6.149   4.879  15.845  0.00  0.00    +0.000 A 
ATOM     17  C   UNL     1       7.347   5.244  15.218  0.00  0.00    +0.000 A 
ATOM     18  C   UNL     1       7.554   4.910  13.880  0.00  0.00    +0.000 A 
ATOM     19  C   UNL     1       6.577   4.205  13.177  0.00  0.00    +0.000 A 
ATOM     20  C   UNL     1       5.390   3.829  13.809  0.00  0.00    +0.000 A 
ATOM     21  C   UNL     1       5.172   4.163  15.148  0.00  0.00    +0.000 A 
ENDBRANCH  13  16
ENDBRANCH  11  13
TORSDOF 2
ENDMDL
MODEL 9
REMARK VINA RESULT:      -7.0      2.505      5.535
REMARK  Name = 
REMARK  3 active torsions:
REMARK  status: ('A' for Active; 'I' for Inactive)
REMARK    1  A    between atoms: C_1  and  N_2
REMARK    2  A    between atoms: C_11  and  S_12
REMARK    3  A    between atoms: S_12  and  C_15
REMARK                            x       y       z     vdW  Elec       q    Type
REMARK                         _______ _______ _______ _____ _____    ______ ____
ROOT
ATOM      1  C   UNL     1       7.936   5.837  19.653  0.00  0.00    +0.000 C 
ATOM      2  N   UNL     1       6.908   4.899  19.239  0.00  0.00    +0.000 N 
ATOM      3  C   UNL     1       6.693   4.703  17.916  0.00  0.00    +0.000 A 
ATOM      4  N   UNL     1       7.609   4.925  16.973  0.00  0.00    +0.000 NA
ATOM      5  N   UNL     1       6.985   4.669  15.804  0.00  0.00    +0.000 N 
ATOM      6  C   UNL     1       7.516   4.800  14.525  0.00  0.00    +0.000 A 
ATOM      7  C   UNL     1       6.764   4.540  13.448  0.00  0.00    +0.000 A 
ATOM      8  C   UNL     1       5.373   4.107  13.745  0.00  0.00    +0.000 A 
ATOM      9  N   UNL     1       4.856   3.943  14.926  0.00  0.00    +0.000 NA
ATOM     10  C   UNL     1       5.666   4.242  15.991  0.00  0.00    +0.000 A 
ATOM     11  C   UNL     1       5.479   4.252  17.356  0.00  0.00    +0.000 A 
ATOM     12  H   UNL     1       6.074   4.953  19.834  0.00  0.00    +0.000 HD
ENDROOT
BRANCH  11  13
ATOM     13  S   UNL     1       4.071   3.823  18.225  0.00  0.00    +0.000 S 
ATOM     14  O   UNL     1       3.186   3.209  17.249  0.00  0.00    +0.000 OA
ATOM     15  O   UNL     1       4.513   3.087  19.393  0.00  0.00    +0.000 OA
BRANCH  13  16
ATOM     16  C   UNL     1       3.316   5.341  18.742  0.00  0.00    +0.000 A 
ATOM     17  C   UNL     1       3.329   6.443  17.878  0.00  0.00    +0.000 A 
ATOM     18  C   UNL     1       2.690   7.623  18.256  0.00  0.00    +0.000 A 
ATOM     19  C   UNL     1       2.031   7.698  19.484  0.00  0.00    +0.000 A 
ATOM     20  C   UNL     1       2.007   6.592  20.336  0.00  0.00    +0.000 A 
ATOM     21  C   UNL     1       2.648   5.408  19.967  0.00  0.00    +0.000 A 
ENDBRANCH  13  16
ENDBRANCH  11  13
TORSDOF 2
ENDMDL
