MODEL 1
REMARK VINA RESULT:      -8.7      0.000      0.000
REMARK  Name = 
REMARK  6 active torsions:
REMARK  status: ('A' for Active; 'I' for Inactive)
REMARK    1  A    between atoms: C_1  and  O_2
REMARK    2  A    between atoms: O_2  and  C_3
REMARK    3  A    between atoms: C_7  and  C_8
REMARK    4  A    between atoms: C_12  and  C_13
REMARK    5  A    between atoms: C_20  and  O_21
REMARK    6  A    between atoms: C_20  and  C_22
REMARK                            x       y       z     vdW  Elec       q    Type
REMARK                         _______ _______ _______ _____ _____    ______ ____
ROOT
ATOM      1  C   UNL     1       4.460   3.866  18.923  0.00  0.00    +0.000 C 
ATOM      2  O   UNL     1       4.527   2.636  18.912  0.00  0.00    +0.000 OA
ATOM      3  N   UNL     1       3.386   4.543  19.495  0.00  0.00    +0.000 N 
ATOM      4  N   UNL     1       3.167   5.874  19.239  0.00  0.00    +0.000 NA
ATOM      5  C   UNL     1       2.192   6.249  20.006  0.00  0.00    +0.000 C 
ATOM      6  C   UNL     1       1.655   5.187  20.912  0.00  0.00    +0.000 C 
ATOM      7  C   UNL     1       2.265   3.941  20.258  0.00  0.00    +0.000 C 
ENDROOT
BRANCH   1  12
ATOM      8  C   UNL     1       6.975   5.469  16.525  0.00  0.00    +0.000 A 
ATOM      9  C   UNL     1       7.799   6.140  17.425  0.00  0.00    +0.000 A 
ATOM     10  C   UNL     1       7.516   6.123  18.794  0.00  0.00    +0.000 A 
ATOM     11  C   UNL     1       6.433   5.385  19.282  0.00  0.00    +0.000 A 
ATOM     12  C   UNL     1       5.612   4.679  18.393  0.00  0.00    +0.000 A 
ATOM     13  C   UNL     1       5.853   4.798  17.012  0.00  0.00    +0.000 A 
BRANCH   8  15
ATOM     14  C   UNL     1       6.678   4.676  14.297  0.00  0.00    +0.000 C 
ATOM     15  O   UNL     1       7.360   5.529  15.213  0.00  0.00    +0.000 OA
ENDBRANCH   8  15
ENDBRANCH   1  12
BRANCH   5  16
ATOM     16  C   UNL     1       1.700   7.639  20.083  0.00  0.00    +0.000 A 
ATOM     17  C   UNL     1       1.094   8.095  21.246  0.00  0.00    +0.000 A 
ATOM     18  C   UNL     1       0.589   9.391  21.245  0.00  0.00    +0.000 A 
ATOM     19  C   UNL     1       0.715  10.168  20.096  0.00  0.00    +0.000 A 
ATOM     20  C   UNL     1       1.344   9.621  18.988  0.00  0.00    +0.000 A 
ATOM     21  N   UNL     1       1.834   8.366  18.953  0.00  0.00    +0.000 NA
ENDBRANCH   5  16
BRANCH   7  22
ATOM     22  C   UNL     1       1.216   3.181  19.379  0.00  0.00    +0.000 C 
ATOM     23  F   UNL     1       1.073   3.720  18.145  0.00  0.00    +0.000 F 
ATOM     24  F   UNL     1       1.529   1.874  19.212  0.00  0.00    +0.000 F 
ATOM     25  F   UNL     1      -0.023   3.202  19.941  0.00  0.00    +0.000 F 
ENDBRANCH   7  22
BRANCH   7  26
ATOM     26  O   UNL     1       2.811   3.164  21.333  0.00  0.00    +0.000 OA
ATOM     27  H   UNL     1       3.771   3.314  21.304  0.00  0.00    +0.000 HD
ENDBRANCH   7  26
TORSDOF 5
ENDMDL
MODEL 2
REMARK VINA RESULT:      -8.7      1.113      2.236
REMARK  Name = 
REMARK  6 active torsions:
REMARK  status: ('A' for Active; 'I' for Inactive)
REMARK    1  A    between atoms: C_1  and  O_2
REMARK    2  A    between atoms: O_2  and  C_3
REMARK    3  A    between atoms: C_7  and  C_8
REMARK    4  A    between atoms: C_12  and  C_13
REMARK    5  A    between atoms: C_20  and  O_21
REMARK    6  A    between atoms: C_20  and  C_22
REMARK                            x       y       z     vdW  Elec       q    Type
REMARK                         _______ _______ _______ _____ _____    ______ ____
ROOT
ATOM      1  C   UNL     1       4.171   3.493  17.881  0.00  0.00    +0.000 C 
ATOM      2  O   UNL     1       4.200   2.282  18.100  0.00  0.00    +0.000 OA
ATOM      3  N   UNL     1       3.346   4.356  18.598  0.00  0.00    +0.000 N 
ATOM      4  N   UNL     1       3.093   5.630  18.155  0.00  0.00    +0.000 NA
ATOM      5  C   UNL     1       2.414   6.224  19.085  0.00  0.00    +0.000 C 
ATOM      6  C   UNL     1       2.157   5.398  20.306  0.00  0.00    +0.000 C 
ATOM      7  C   UNL     1       2.502   4.004  19.766  0.00  0.00    +0.000 C 
ENDROOT
BRANCH   1  12
ATOM      8  C   UNL     1       6.937   5.632  16.325  0.00  0.00    +0.000 A 
ATOM      9  C   UNL     1       6.845   5.245  14.991  0.00  0.00    +0.000 A 
ATOM     10  C   UNL     1       5.932   4.260  14.600  0.00  0.00    +0.000 A 
ATOM     11  C   UNL     1       5.064   3.691  15.537  0.00  0.00    +0.000 A 
ATOM     12  C   UNL     1       5.123   4.091  16.878  0.00  0.00    +0.000 A 
ATOM     13  C   UNL     1       6.120   5.006  17.266  0.00  0.00    +0.000 A 
BRANCH   8  15
ATOM     14  C   UNL     1       7.460   7.615  17.540  0.00  0.00    +0.000 C 
ATOM     15  O   UNL     1       7.844   6.623  16.591  0.00  0.00    +0.000 OA
ENDBRANCH   8  15
ENDBRANCH   1  12
BRANCH   5  16
ATOM     16  C   UNL     1       2.007   7.641  19.023  0.00  0.00    +0.000 A 
ATOM     17  C   UNL     1       2.219   8.372  17.862  0.00  0.00    +0.000 A 
ATOM     18  C   UNL     1       1.877   9.721  17.877  0.00  0.00    +0.000 A 
ATOM     19  C   UNL     1       1.341  10.273  19.038  0.00  0.00    +0.000 A 
ATOM     20  C   UNL     1       1.162   9.455  20.143  0.00  0.00    +0.000 A 
ATOM     21  N   UNL     1       1.493   8.148  20.164  0.00  0.00    +0.000 NA
ENDBRANCH   5  16
BRANCH   7  22
ATOM     22  C   UNL     1       1.212   3.190  19.414  0.00  0.00    +0.000 C 
ATOM     23  F   UNL     1       1.378   1.853  19.558  0.00  0.00    +0.000 F 
ATOM     24  F   UNL     1       0.150   3.546  20.176  0.00  0.00    +0.000 F 
ATOM     25  F   UNL     1       0.830   3.381  18.123  0.00  0.00    +0.000 F 
ENDBRANCH   7  22
BRANCH   7  26
ATOM     26  O   UNL     1       3.333   3.395  20.763  0.00  0.00    +0.000 OA
ATOM     27  H   UNL     1       3.901   2.769  20.284  0.00  0.00    +0.000 HD
ENDBRANCH   7  26
TORSDOF 5
ENDMDL
MODEL 3
REMARK VINA RESULT:      -8.6      1.052      2.021
REMARK  Name = 
REMARK  6 active torsions:
REMARK  status: ('A' for Active; 'I' for Inactive)
REMARK    1  A    between atoms: C_1  and  O_2
REMARK    2  A    between atoms: O_2  and  C_3
REMARK    3  A    between atoms: C_7  and  C_8
REMARK    4  A    between atoms: C_12  and  C_13
REMARK    5  A    between atoms: C_20  and  O_21
REMARK    6  A    between atoms: C_20  and  C_22
REMARK                            x       y       z     vdW  Elec       q    Type
REMARK                         _______ _______ _______ _____ _____    ______ ____
ROOT
ATOM      1  C   UNL     1       4.158   3.426  17.821  0.00  0.00    +0.000 C 
ATOM      2  O   UNL     1       4.176   2.209  18.005  0.00  0.00    +0.000 OA
ATOM      3  N   UNL     1       3.357   4.278  18.577  0.00  0.00    +0.000 N 
ATOM      4  N   UNL     1       3.112   5.567  18.175  0.00  0.00    +0.000 NA
ATOM      5  C   UNL     1       2.457   6.142  19.134  0.00  0.00    +0.000 C 
ATOM      6  C   UNL     1       2.213   5.285  20.336  0.00  0.00    +0.000 C 
ATOM      7  C   UNL     1       2.531   3.903  19.750  0.00  0.00    +0.000 C 
ENDROOT
BRANCH   1  12
ATOM      8  C   UNL     1       6.895   5.605  16.267  0.00  0.00    +0.000 A 
ATOM      9  C   UNL     1       6.799   5.227  14.930  0.00  0.00    +0.000 A 
ATOM     10  C   UNL     1       5.894   4.236  14.537  0.00  0.00    +0.000 A 
ATOM     11  C   UNL     1       5.037   3.651  15.474  0.00  0.00    +0.000 A 
ATOM     12  C   UNL     1       5.099   4.041  16.817  0.00  0.00    +0.000 A 
ATOM     13  C   UNL     1       6.089   4.963  17.207  0.00  0.00    +0.000 A 
BRANCH   8  15
ATOM     14  C   UNL     1       7.441   7.533  17.557  0.00  0.00    +0.000 C 
ATOM     15  O   UNL     1       7.792   6.603  16.536  0.00  0.00    +0.000 OA
ENDBRANCH   8  15
ENDBRANCH   1  12
BRANCH   5  16
ATOM     16  C   UNL     1       2.066   7.565  19.120  0.00  0.00    +0.000 A 
ATOM     17  C   UNL     1       1.510   8.142  20.254  0.00  0.00    +0.000 A 
ATOM     18  C   UNL     1       1.099   9.468  20.168  0.00  0.00    +0.000 A 
ATOM     19  C   UNL     1       1.263  10.153  18.966  0.00  0.00    +0.000 A 
ATOM     20  C   UNL     1       1.836   9.488  17.893  0.00  0.00    +0.000 A 
ATOM     21  N   UNL     1       2.235   8.202  17.941  0.00  0.00    +0.000 NA
ENDBRANCH   5  16
BRANCH   7  22
ATOM     22  C   UNL     1       1.225   3.114  19.400  0.00  0.00    +0.000 C 
ATOM     23  F   UNL     1       0.193   3.411  20.226  0.00  0.00    +0.000 F 
ATOM     24  F   UNL     1       0.804   3.344  18.133  0.00  0.00    +0.000 F 
ATOM     25  F   UNL     1       1.405   1.770  19.498  0.00  0.00    +0.000 F 
ENDBRANCH   7  22
BRANCH   7  26
ATOM     26  O   UNL     1       3.373   3.256  20.715  0.00  0.00    +0.000 OA
ATOM     27  H   UNL     1       3.544   3.922  21.401  0.00  0.00    +0.000 HD
ENDBRANCH   7  26
TORSDOF 5
ENDMDL
MODEL 4
REMARK VINA RESULT:      -8.6      0.568      1.245
REMARK  Name = 
REMARK  6 active torsions:
REMARK  status: ('A' for Active; 'I' for Inactive)
REMARK    1  A    between atoms: C_1  and  O_2
REMARK    2  A    between atoms: O_2  and  C_3
REMARK    3  A    between atoms: C_7  and  C_8
REMARK    4  A    between atoms: C_12  and  C_13
REMARK    5  A    between atoms: C_20  and  O_21
REMARK    6  A    between atoms: C_20  and  C_22
REMARK                            x       y       z     vdW  Elec       q    Type
REMARK                         _______ _______ _______ _____ _____    ______ ____
ROOT
ATOM      1  C   UNL     1       4.487   3.950  19.040  0.00  0.00    +0.000 C 
ATOM      2  O   UNL     1       4.550   2.726  19.161  0.00  0.00    +0.000 OA
ATOM      3  N   UNL     1       3.399   4.684  19.504  0.00  0.00    +0.000 N 
ATOM      4  N   UNL     1       3.192   5.980  19.103  0.00  0.00    +0.000 NA
ATOM      5  C   UNL     1       2.195   6.434  19.795  0.00  0.00    +0.000 C 
ATOM      6  C   UNL     1       1.627   5.473  20.792  0.00  0.00    +0.000 C 
ATOM      7  C   UNL     1       2.253   4.165  20.291  0.00  0.00    +0.000 C 
ENDROOT
BRANCH   1  12
ATOM      8  C   UNL     1       7.012   5.381  16.546  0.00  0.00    +0.000 A 
ATOM      9  C   UNL     1       7.877   6.050  17.408  0.00  0.00    +0.000 A 
ATOM     10  C   UNL     1       7.621   6.086  18.783  0.00  0.00    +0.000 A 
ATOM     11  C   UNL     1       6.521   5.405  19.313  0.00  0.00    +0.000 A 
ATOM     12  C   UNL     1       5.658   4.702  18.463  0.00  0.00    +0.000 A 
ATOM     13  C   UNL     1       5.876   4.768  17.074  0.00  0.00    +0.000 A 
BRANCH   8  15
ATOM     14  C   UNL     1       6.618   4.559  14.343  0.00  0.00    +0.000 C 
ATOM     15  O   UNL     1       7.373   5.386  15.226  0.00  0.00    +0.000 OA
ENDBRANCH   8  15
ENDBRANCH   1  12
BRANCH   5  16
ATOM     16  C   UNL     1       1.706   7.824  19.711  0.00  0.00    +0.000 A 
ATOM     17  C   UNL     1       1.831   8.531  18.522  0.00  0.00    +0.000 A 
ATOM     18  C   UNL     1       1.414   9.858  18.514  0.00  0.00    +0.000 A 
ATOM     19  C   UNL     1       0.893  10.414  19.680  0.00  0.00    +0.000 A 
ATOM     20  C   UNL     1       0.804   9.620  20.813  0.00  0.00    +0.000 A 
ATOM     21  N   UNL     1       1.209   8.335  20.858  0.00  0.00    +0.000 NA
ENDBRANCH   5  16
BRANCH   7  22
ATOM     22  C   UNL     1       1.229   3.317  19.466  0.00  0.00    +0.000 C 
ATOM     23  F   UNL     1       1.539   1.999  19.437  0.00  0.00    +0.000 F 
ATOM     24  F   UNL     1      -0.035   3.421  19.944  0.00  0.00    +0.000 F 
ATOM     25  F   UNL     1       1.173   3.715  18.167  0.00  0.00    +0.000 F 
ENDBRANCH   7  22
BRANCH   7  26
ATOM     26  O   UNL     1       2.763   3.506  21.459  0.00  0.00    +0.000 OA
ATOM     27  H   UNL     1       3.724   3.446  21.327  0.00  0.00    +0.000 HD
ENDBRANCH   7  26
TORSDOF 5
ENDMDL
MODEL 5
REMARK VINA RESULT:      -8.4      0.941      1.642
REMARK  Name = 
REMARK  6 active torsions:
REMARK  status: ('A' for Active; 'I' for Inactive)
REMARK    1  A    between atoms: C_1  and  O_2
REMARK    2  A    between atoms: O_2  and  C_3
REMARK    3  A    between atoms: C_7  and  C_8
REMARK    4  A    between atoms: C_12  and  C_13
REMARK    5  A    between atoms: C_20  and  O_21
REMARK    6  A    between atoms: C_20  and  C_22
REMARK                            x       y       z     vdW  Elec       q    Type
REMARK                         _______ _______ _______ _____ _____    ______ ____
ROOT
ATOM      1  C   UNL     1       4.356   3.733  18.582  0.00  0.00    +0.000 C 
ATOM      2  O   UNL     1       4.416   2.503  18.618  0.00  0.00    +0.000 OA
ATOM      3  N   UNL     1       3.371   4.446  19.260  0.00  0.00    +0.000 N 
ATOM      4  N   UNL     1       3.125   5.766  18.976  0.00  0.00    +0.000 NA
ATOM      5  C   UNL     1       2.263   6.185  19.847  0.00  0.00    +0.000 C 
ATOM      6  C   UNL     1       1.847   5.169  20.865  0.00  0.00    +0.000 C 
ATOM      7  C   UNL     1       2.360   3.889  20.192  0.00  0.00    +0.000 C 
ENDROOT
BRANCH   1  12
ATOM      8  C   UNL     1       7.244   6.148  17.894  0.00  0.00    +0.000 A 
ATOM      9  C   UNL     1       7.383   6.000  16.517  0.00  0.00    +0.000 A 
ATOM     10  C   UNL     1       6.587   5.086  15.818  0.00  0.00    +0.000 A 
ATOM     11  C   UNL     1       5.604   4.350  16.487  0.00  0.00    +0.000 A 
ATOM     12  C   UNL     1       5.431   4.509  17.867  0.00  0.00    +0.000 A 
ATOM     13  C   UNL     1       6.313   5.355  18.566  0.00  0.00    +0.000 A 
BRANCH   8  15
ATOM     14  C   UNL     1       8.072   8.383  17.875  0.00  0.00    +0.000 C 
ATOM     15  O   UNL     1       8.053   7.089  18.472  0.00  0.00    +0.000 OA
ENDBRANCH   8  15
ENDBRANCH   1  12
BRANCH   5  16
ATOM     16  C   UNL     1       1.791   7.581  19.927  0.00  0.00    +0.000 A 
ATOM     17  C   UNL     1       1.234   8.058  21.105  0.00  0.00    +0.000 A 
ATOM     18  C   UNL     1       0.746   9.361  21.108  0.00  0.00    +0.000 A 
ATOM     19  C   UNL     1       0.839  10.123  19.946  0.00  0.00    +0.000 A 
ATOM     20  C   UNL     1       1.420   9.555  18.822  0.00  0.00    +0.000 A 
ATOM     21  N   UNL     1       1.892   8.294  18.784  0.00  0.00    +0.000 NA
ENDBRANCH   5  16
BRANCH   7  22
ATOM     22  C   UNL     1       1.199   3.102  19.496  0.00  0.00    +0.000 C 
ATOM     23  F   UNL     1       0.967   3.516  18.228  0.00  0.00    +0.000 F 
ATOM     24  F   UNL     1       1.435   1.769  19.445  0.00  0.00    +0.000 F 
ATOM     25  F   UNL     1       0.020   3.250  20.158  0.00  0.00    +0.000 F 
ENDBRANCH   7  22
BRANCH   7  26
ATOM     26  O   UNL     1       3.040   3.155  21.220  0.00  0.00    +0.000 OA
ATOM     27  H   UNL     1       2.797   3.588  22.055  0.00  0.00    +0.000 HD
ENDBRANCH   7  26
TORSDOF 5
ENDMDL
MODEL 6
REMARK VINA RESULT:      -8.3      1.165      1.816
REMARK  Name = 
REMARK  6 active torsions:
REMARK  status: ('A' for Active; 'I' for Inactive)
REMARK    1  A    between atoms: C_1  and  O_2
REMARK    2  A    between atoms: O_2  and  C_3
REMARK    3  A    between atoms: C_7  and  C_8
REMARK    4  A    between atoms: C_12  and  C_13
REMARK    5  A    between atoms: C_20  and  O_21
REMARK    6  A    between atoms: C_20  and  C_22
REMARK                            x       y       z     vdW  Elec       q    Type
REMARK                         _______ _______ _______ _____ _____    ______ ____
ROOT
ATOM      1  C   UNL     1       4.176   3.406  18.109  0.00  0.00    +0.000 C 
ATOM      2  O   UNL     1       4.185   2.198  18.350  0.00  0.00    +0.000 OA
ATOM      3  N   UNL     1       3.329   4.287  18.776  0.00  0.00    +0.000 N 
ATOM      4  N   UNL     1       3.105   5.555  18.301  0.00  0.00    +0.000 NA
ATOM      5  C   UNL     1       2.393   6.171  19.192  0.00  0.00    +0.000 C 
ATOM      6  C   UNL     1       2.079   5.369  20.416  0.00  0.00    +0.000 C 
ATOM      7  C   UNL     1       2.435   3.963  19.914  0.00  0.00    +0.000 C 
ENDROOT
BRANCH   1  12
ATOM      8  C   UNL     1       5.845   4.513  14.848  0.00  0.00    +0.000 A 
ATOM      9  C   UNL     1       7.064   4.983  15.328  0.00  0.00    +0.000 A 
ATOM     10  C   UNL     1       7.329   4.995  16.701  0.00  0.00    +0.000 A 
ATOM     11  C   UNL     1       6.392   4.483  17.604  0.00  0.00    +0.000 A 
ATOM     12  C   UNL     1       5.173   3.978  17.136  0.00  0.00    +0.000 A 
ATOM     13  C   UNL     1       4.886   4.074  15.761  0.00  0.00    +0.000 A 
BRANCH   8  15
ATOM     14  C   UNL     1       6.279   3.434  12.767  0.00  0.00    +0.000 C 
ATOM     15  O   UNL     1       5.702   4.521  13.486  0.00  0.00    +0.000 OA
ENDBRANCH   8  15
ENDBRANCH   1  12
BRANCH   5  16
ATOM     16  C   UNL     1       2.001   7.590  19.088  0.00  0.00    +0.000 A 
ATOM     17  C   UNL     1       2.212   8.282  17.903  0.00  0.00    +0.000 A 
ATOM     18  C   UNL     1       1.885   9.634  17.878  0.00  0.00    +0.000 A 
ATOM     19  C   UNL     1       1.364  10.228  19.025  0.00  0.00    +0.000 A 
ATOM     20  C   UNL     1       1.185   9.447  20.156  0.00  0.00    +0.000 A 
ATOM     21  N   UNL     1       1.502   8.138  20.217  0.00  0.00    +0.000 NA
ENDBRANCH   5  16
BRANCH   7  22
ATOM     22  C   UNL     1       1.154   3.152  19.524  0.00  0.00    +0.000 C 
ATOM     23  F   UNL     1       0.070   3.492  20.263  0.00  0.00    +0.000 F 
ATOM     24  F   UNL     1       0.817   3.310  18.222  0.00  0.00    +0.000 F 
ATOM     25  F   UNL     1       1.326   1.816  19.708  0.00  0.00    +0.000 F 
ENDBRANCH   7  22
BRANCH   7  26
ATOM     26  O   UNL     1       3.219   3.365  20.956  0.00  0.00    +0.000 OA
ATOM     27  H   UNL     1       2.688   3.451  21.765  0.00  0.00    +0.000 HD
ENDBRANCH   7  26
TORSDOF 5
ENDMDL
MODEL 7
REMARK VINA RESULT:      -8.2      4.291      6.331
REMARK  Name = 
REMARK  6 active torsions:
REMARK  status: ('A' for Active; 'I' for Inactive)
REMARK    1  A    between atoms: C_1  and  O_2
REMARK    2  A    between atoms: O_2  and  C_3
REMARK    3  A    between atoms: C_7  and  C_8
REMARK    4  A    between atoms: C_12  and  C_13
REMARK    5  A    between atoms: C_20  and  O_21
REMARK    6  A    between atoms: C_20  and  C_22
REMARK                            x       y       z     vdW  Elec       q    Type
REMARK                         _______ _______ _______ _____ _____    ______ ____
ROOT
ATOM      1  C   UNL     1       6.765   4.879  14.457  0.00  0.00    +0.000 C 
ATOM      2  O   UNL     1       7.776   5.570  14.325  0.00  0.00    +0.000 OA
ATOM      3  N   UNL     1       5.973   4.937  15.601  0.00  0.00    +0.000 N 
ATOM      4  N   UNL     1       5.041   3.966  15.871  0.00  0.00    +0.000 NA
ATOM      5  C   UNL     1       4.380   4.358  16.914  0.00  0.00    +0.000 C 
ATOM      6  C   UNL     1       4.786   5.693  17.456  0.00  0.00    +0.000 C 
ATOM      7  C   UNL     1       6.129   5.877  16.738  0.00  0.00    +0.000 C 
ENDROOT
BRANCH   1  12
ATOM      8  C   UNL     1       4.537   3.245  11.809  0.00  0.00    +0.000 A 
ATOM      9  C   UNL     1       5.433   2.347  11.235  0.00  0.00    +0.000 A 
ATOM     10  C   UNL     1       6.765   2.305  11.660  0.00  0.00    +0.000 A 
ATOM     11  C   UNL     1       7.198   3.126  12.706  0.00  0.00    +0.000 A 
ATOM     12  C   UNL     1       6.302   4.012  13.315  0.00  0.00    +0.000 A 
ATOM     13  C   UNL     1       4.996   4.113  12.800  0.00  0.00    +0.000 A 
BRANCH   8  15
ATOM     14  C   UNL     1       3.036   3.598   9.991  0.00  0.00    +0.000 C 
ATOM     15  O   UNL     1       3.253   3.182  11.337  0.00  0.00    +0.000 OA
ENDBRANCH   8  15
ENDBRANCH   1  12
BRANCH   5  16
ATOM     16  C   UNL     1       3.234   3.621  17.482  0.00  0.00    +0.000 A 
ATOM     17  C   UNL     1       2.020   4.266  17.669  0.00  0.00    +0.000 A 
ATOM     18  C   UNL     1       0.991   3.545  18.267  0.00  0.00    +0.000 A 
ATOM     19  C   UNL     1       1.218   2.224  18.645  0.00  0.00    +0.000 A 
ATOM     20  C   UNL     1       2.466   1.669  18.408  0.00  0.00    +0.000 A 
ATOM     21  N   UNL     1       3.486   2.343  17.840  0.00  0.00    +0.000 NA
ENDBRANCH   5  16
BRANCH   7  22
ATOM     22  C   UNL     1       7.334   5.557  17.684  0.00  0.00    +0.000 C 
ATOM     23  F   UNL     1       6.950   5.293  18.956  0.00  0.00    +0.000 F 
ATOM     24  F   UNL     1       8.062   4.498  17.257  0.00  0.00    +0.000 F 
ATOM     25  F   UNL     1       8.203   6.601  17.767  0.00  0.00    +0.000 F 
ENDBRANCH   7  22
BRANCH   7  26
ATOM     26  O   UNL     1       6.117   7.217  16.227  0.00  0.00    +0.000 OA
ATOM     27  H   UNL     1       7.033   7.405  15.962  0.00  0.00    +0.000 HD
ENDBRANCH   7  26
TORSDOF 5
ENDMDL
MODEL 8
REMARK VINA RESULT:      -8.2      1.125      1.638
REMARK  Name = 
REMARK  6 active torsions:
REMARK  status: ('A' for Active; 'I' for Inactive)
REMARK    1  A    between atoms: C_1  and  O_2
REMARK    2  A    between atoms: O_2  and  C_3
REMARK    3  A    between atoms: C_7  and  C_8
REMARK    4  A    between atoms: C_12  and  C_13
REMARK    5  A    between atoms: C_20  and  O_21
REMARK    6  A    between atoms: C_20  and  C_22
REMARK                            x       y       z     vdW  Elec       q    Type
REMARK                         _______ _______ _______ _____ _____    ______ ____
ROOT
ATOM      1  C   UNL     1       4.212   3.445  17.881  0.00  0.00    +0.000 C 
ATOM      2  O   UNL     1       4.213   2.227  18.059  0.00  0.00    +0.000 OA
ATOM      3  N   UNL     1       3.383   4.298  18.606  0.00  0.00    +0.000 N 
ATOM      4  N   UNL     1       3.165   5.591  18.201  0.00  0.00    +0.000 NA
ATOM      5  C   UNL     1       2.472   6.166  19.133  0.00  0.00    +0.000 C 
ATOM      6  C   UNL     1       2.167   5.304  20.318  0.00  0.00    +0.000 C 
ATOM      7  C   UNL     1       2.502   3.923  19.738  0.00  0.00    +0.000 C 
ENDROOT
BRANCH   1  12
ATOM      8  C   UNL     1       6.243   4.157  14.716  0.00  0.00    +0.000 A 
ATOM      9  C   UNL     1       7.091   5.162  15.173  0.00  0.00    +0.000 A 
ATOM     10  C   UNL     1       6.976   5.648  16.480  0.00  0.00    +0.000 A 
ATOM     11  C   UNL     1       6.042   5.091  17.359  0.00  0.00    +0.000 A 
ATOM     12  C   UNL     1       5.201   4.059  16.925  0.00  0.00    +0.000 A 
ATOM     13  C   UNL     1       5.264   3.660  15.576  0.00  0.00    +0.000 A 
BRANCH   8  15
ATOM     14  C   UNL     1       5.316   3.560  12.603  0.00  0.00    +0.000 C 
ATOM     15  O   UNL     1       6.462   3.738  13.432  0.00  0.00    +0.000 OA
ENDBRANCH   8  15
ENDBRANCH   1  12
BRANCH   5  16
ATOM     16  C   UNL     1       2.092   7.592  19.109  0.00  0.00    +0.000 A 
ATOM     17  C   UNL     1       1.499   8.169  20.224  0.00  0.00    +0.000 A 
ATOM     18  C   UNL     1       1.101   9.499  20.128  0.00  0.00    +0.000 A 
ATOM     19  C   UNL     1       1.314  10.187  18.936  0.00  0.00    +0.000 A 
ATOM     20  C   UNL     1       1.921   9.521  17.882  0.00  0.00    +0.000 A 
ATOM     21  N   UNL     1       2.308   8.231  17.939  0.00  0.00    +0.000 NA
ENDBRANCH   5  16
BRANCH   7  22
ATOM     22  C   UNL     1       1.208   3.145  19.325  0.00  0.00    +0.000 C 
ATOM     23  F   UNL     1       0.146   3.431  20.117  0.00  0.00    +0.000 F 
ATOM     24  F   UNL     1       0.835   3.400  18.048  0.00  0.00    +0.000 F 
ATOM     25  F   UNL     1       1.380   1.799  19.404  0.00  0.00    +0.000 F 
ENDBRANCH   7  22
BRANCH   7  26
ATOM     26  O   UNL     1       3.295   3.264  20.735  0.00  0.00    +0.000 OA
ATOM     27  H   UNL     1       4.199   3.242  20.378  0.00  0.00    +0.000 HD
ENDBRANCH   7  26
TORSDOF 5
ENDMDL
MODEL 9
REMARK VINA RESULT:      -8.1      4.245      6.317
REMARK  Name = 
REMARK  6 active torsions:
REMARK  status: ('A' for Active; 'I' for Inactive)
REMARK    1  A    between atoms: C_1  and  O_2
REMARK    2  A    between atoms: O_2  and  C_3
REMARK    3  A    between atoms: C_7  and  C_8
REMARK    4  A    between atoms: C_12  and  C_13
REMARK    5  A    between atoms: C_20  and  O_21
REMARK    6  A    between atoms: C_20  and  C_22
REMARK                            x       y       z     vdW  Elec       q    Type
REMARK                         _______ _______ _______ _____ _____    ______ ____
ROOT
ATOM      1  C   UNL     1       6.520   4.744  14.392  0.00  0.00    +0.000 C 
ATOM      2  O   UNL     1       7.553   5.389  14.209  0.00  0.00    +0.000 OA
ATOM      3  N   UNL     1       5.802   4.818  15.582  0.00  0.00    +0.000 N 
ATOM      4  N   UNL     1       4.844   3.887  15.895  0.00  0.00    +0.000 NA
ATOM      5  C   UNL     1       4.266   4.291  16.982  0.00  0.00    +0.000 C 
ATOM      6  C   UNL     1       4.767   5.595  17.517  0.00  0.00    +0.000 C 
ATOM      7  C   UNL     1       6.072   5.730  16.721  0.00  0.00    +0.000 C 
ENDROOT
BRANCH   1  12
ATOM      8  C   UNL     1       6.127   2.064  11.688  0.00  0.00    +0.000 A 
ATOM      9  C   UNL     1       4.906   2.434  11.132  0.00  0.00    +0.000 A 
ATOM     10  C   UNL     1       4.184   3.510  11.658  0.00  0.00    +0.000 A 
ATOM     11  C   UNL     1       4.707   4.260  12.716  0.00  0.00    +0.000 A 
ATOM     12  C   UNL     1       5.949   3.920  13.268  0.00  0.00    +0.000 A 
ATOM     13  C   UNL     1       6.606   2.770  12.791  0.00  0.00    +0.000 A 
BRANCH   8  15
ATOM     14  C   UNL     1       6.179  -0.276  11.235  0.00  0.00    +0.000 C 
ATOM     15  O   UNL     1       6.761   1.015  11.078  0.00  0.00    +0.000 OA
ENDBRANCH   8  15
ENDBRANCH   1  12
BRANCH   5  16
ATOM     16  C   UNL     1       3.123   3.597  17.608  0.00  0.00    +0.000 A 
ATOM     17  C   UNL     1       1.907   4.252  17.746  0.00  0.00    +0.000 A 
ATOM     18  C   UNL     1       0.881   3.578  18.400  0.00  0.00    +0.000 A 
ATOM     19  C   UNL     1       1.113   2.291  18.880  0.00  0.00    +0.000 A 
ATOM     20  C   UNL     1       2.362   1.723  18.685  0.00  0.00    +0.000 A 
ATOM     21  N   UNL     1       3.379   2.352  18.065  0.00  0.00    +0.000 NA
ENDBRANCH   5  16
BRANCH   7  22
ATOM     22  C   UNL     1       7.315   5.338  17.588  0.00  0.00    +0.000 C 
ATOM     23  F   UNL     1       6.985   4.984  18.853  0.00  0.00    +0.000 F 
ATOM     24  F   UNL     1       8.016   4.310  17.053  0.00  0.00    +0.000 F 
ATOM     25  F   UNL     1       8.193   6.370  17.707  0.00  0.00    +0.000 F 
ENDBRANCH   7  22
BRANCH   7  26
ATOM     26  O   UNL     1       6.092   7.078  16.232  0.00  0.00    +0.000 OA
ATOM     27  H   UNL     1       6.559   7.595  16.910  0.00  0.00    +0.000 HD
ENDBRANCH   7  26
TORSDOF 5
ENDMDL
