MODEL 1
REMARK VINA RESULT:      -6.1      0.000      0.000
REMARK  Name = 
REMARK  4 active torsions:
REMARK  status: ('A' for Active; 'I' for Inactive)
REMARK    1  A    between atoms: C_1  and  N_2
REMARK    2  A    between atoms: C_3  and  C_5
REMARK    3  A    between atoms: C_11  and  N_12
REMARK    4  A    between atoms: N_12  and  C_13
REMARK                            x       y       z     vdW  Elec       q    Type
REMARK                         _______ _______ _______ _____ _____    ______ ____
ROOT
ATOM      1  C   UNL     1       5.706   4.388  16.846  0.00  0.00    +0.000 A 
ATOM      2  C   UNL     1       4.333   4.110  16.769  0.00  0.00    +0.000 A 
ATOM      3  C   UNL     1       3.619   3.896  17.936  0.00  0.00    +0.000 A 
ATOM      4 BR   UNL     1       1.782   3.483  17.880  0.00  0.00    +0.000 Br
ATOM      5  C   UNL     1       4.293   3.981  19.139  0.00  0.00    +0.000 A 
ATOM      6  N   UNL     1       5.614   4.272  19.246  0.00  0.00    +0.000 NA
ATOM      7  C   UNL     1       6.321   4.489  18.110  0.00  0.00    +0.000 A 
ENDROOT
BRANCH   1  10
ATOM      8  C   UNL     1       6.633   3.873  13.211  0.00  0.00    +0.000 C 
ATOM      9  N   UNL     1       6.063   3.740  14.524  0.00  0.00    +0.000 N 
ATOM     10  C   UNL     1       6.429   4.568  15.561  0.00  0.00    +0.000 C 
ATOM     11  O   UNL     1       7.287   5.439  15.458  0.00  0.00    +0.000 OA
ATOM     12  H   UNL     1       5.264   3.124  14.661  0.00  0.00    +0.000 HD
ENDBRANCH   1  10
BRANCH   7  13
ATOM     13  N   UNL     1       7.704   4.746  18.219  0.00  0.00    +0.000 N 
ATOM     14  C   UNL     1       8.067   5.806  19.149  0.00  0.00    +0.000 C 
ATOM     15  H   UNL     1       8.071   4.945  17.287  0.00  0.00    +0.000 HD
ENDBRANCH   7  13
TORSDOF 2
ENDMDL
MODEL 2
REMARK VINA RESULT:      -5.9      2.653      4.093
REMARK  Name = 
REMARK  4 active torsions:
REMARK  status: ('A' for Active; 'I' for Inactive)
REMARK    1  A    between atoms: C_1  and  N_2
REMARK    2  A    between atoms: C_3  and  C_5
REMARK    3  A    between atoms: C_11  and  N_12
REMARK    4  A    between atoms: N_12  and  C_13
REMARK                            x       y       z     vdW  Elec       q    Type
REMARK                         _______ _______ _______ _____ _____    ______ ____
ROOT
ATOM      1  C   UNL     1       5.730   4.425  16.298  0.00  0.00    +0.000 A 
ATOM      2  C   UNL     1       5.379   3.824  15.081  0.00  0.00    +0.000 A 
ATOM      3  C   UNL     1       6.140   4.082  13.953  0.00  0.00    +0.000 A 
ATOM      4 BR   UNL     1       5.685   3.326  12.289  0.00  0.00    +0.000 Br
ATOM      5  C   UNL     1       7.231   4.919  14.080  0.00  0.00    +0.000 A 
ATOM      6  N   UNL     1       7.609   5.497  15.248  0.00  0.00    +0.000 NA
ATOM      7  C   UNL     1       6.875   5.245  16.360  0.00  0.00    +0.000 A 
ENDROOT
BRANCH   1  10
ATOM      8  C   UNL     1       3.715   2.426  18.804  0.00  0.00    +0.000 C 
ATOM      9  N   UNL     1       4.492   2.832  17.665  0.00  0.00    +0.000 N 
ATOM     10  C   UNL     1       4.854   4.144  17.464  0.00  0.00    +0.000 C 
ATOM     11  O   UNL     1       4.510   5.060  18.206  0.00  0.00    +0.000 OA
ATOM     12  H   UNL     1       4.914   2.122  17.070  0.00  0.00    +0.000 HD
ENDBRANCH   1  10
BRANCH   7  13
ATOM     13  N   UNL     1       7.240   5.882  17.564  0.00  0.00    +0.000 N 
ATOM     14  C   UNL     1       7.421   7.324  17.474  0.00  0.00    +0.000 C 
ATOM     15  H   UNL     1       8.086   5.436  17.923  0.00  0.00    +0.000 HD
ENDBRANCH   7  13
TORSDOF 2
ENDMDL
MODEL 3
REMARK VINA RESULT:      -5.7      2.234      2.794
REMARK  Name = 
REMARK  4 active torsions:
REMARK  status: ('A' for Active; 'I' for Inactive)
REMARK    1  A    between atoms: C_1  and  N_2
REMARK    2  A    between atoms: C_3  and  C_5
REMARK    3  A    between atoms: C_11  and  N_12
REMARK    4  A    between atoms: N_12  and  C_13
REMARK                            x       y       z     vdW  Elec       q    Type
REMARK                         _______ _______ _______ _____ _____    ______ ____
ROOT
ATOM      1  C   UNL     1       4.874   5.181  17.735  0.00  0.00    +0.000 A 
ATOM      2  C   UNL     1       4.204   6.369  17.409  0.00  0.00    +0.000 A 
ATOM      3  C   UNL     1       3.220   6.847  18.259  0.00  0.00    +0.000 A 
ATOM      4 BR   UNL     1       2.268   8.418  17.845  0.00  0.00    +0.000 Br
ATOM      5  C   UNL     1       2.949   6.132  19.410  0.00  0.00    +0.000 A 
ATOM      6  N   UNL     1       3.597   4.993  19.763  0.00  0.00    +0.000 NA
ATOM      7  C   UNL     1       4.565   4.520  18.941  0.00  0.00    +0.000 A 
ENDROOT
BRANCH   1  10
ATOM      8  C   UNL     1       6.406   4.203  14.413  0.00  0.00    +0.000 C 
ATOM      9  N   UNL     1       5.490   4.584  15.454  0.00  0.00    +0.000 N 
ATOM     10  C   UNL     1       5.890   4.695  16.766  0.00  0.00    +0.000 C 
ATOM     11  O   UNL     1       7.027   4.438  17.149  0.00  0.00    +0.000 OA
ATOM     12  H   UNL     1       4.565   4.926  15.203  0.00  0.00    +0.000 HD
ENDBRANCH   1  10
BRANCH   7  13
ATOM     13  N   UNL     1       5.207   3.312  19.284  0.00  0.00    +0.000 N 
ATOM     14  C   UNL     1       4.358   2.320  19.930  0.00  0.00    +0.000 C 
ATOM     15  H   UNL     1       6.014   3.529  19.871  0.00  0.00    +0.000 HD
ENDBRANCH   7  13
TORSDOF 2
ENDMDL
MODEL 4
REMARK VINA RESULT:      -5.7      1.600      1.600
REMARK  Name = 
REMARK  4 active torsions:
REMARK  status: ('A' for Active; 'I' for Inactive)
REMARK    1  A    between atoms: C_1  and  N_2
REMARK    2  A    between atoms: C_3  and  C_5
REMARK    3  A    between atoms: C_11  and  N_12
REMARK    4  A    between atoms: N_12  and  C_13
REMARK                            x       y       z     vdW  Elec       q    Type
REMARK                         _______ _______ _______ _____ _____    ______ ____
ROOT
ATOM      1  C   UNL     1       5.568   4.880  15.992  0.00  0.00    +0.000 A 
ATOM      2  C   UNL     1       4.659   3.856  16.297  0.00  0.00    +0.000 A 
ATOM      3  C   UNL     1       3.844   3.983  17.409  0.00  0.00    +0.000 A 
ATOM      4 BR   UNL     1       2.635   2.618  17.879  0.00  0.00    +0.000 Br
ATOM      5  C   UNL     1       3.952   5.131  18.169  0.00  0.00    +0.000 A 
ATOM      6  N   UNL     1       4.804   6.148  17.886  0.00  0.00    +0.000 NA
ATOM      7  C   UNL     1       5.602   6.037  16.796  0.00  0.00    +0.000 A 
ENDROOT
BRANCH   1  10
ATOM      8  C   UNL     1       6.637   3.755  12.538  0.00  0.00    +0.000 C 
ATOM      9  N   UNL     1       5.914   3.953  13.765  0.00  0.00    +0.000 N 
ATOM     10  C   UNL     1       6.445   4.671  14.811  0.00  0.00    +0.000 C 
ATOM     11  O   UNL     1       7.574   5.151  14.795  0.00  0.00    +0.000 OA
ATOM     12  H   UNL     1       4.932   3.689  13.813  0.00  0.00    +0.000 HD
ENDBRANCH   1  10
BRANCH   7  13
ATOM     13  N   UNL     1       6.520   7.073  16.527  0.00  0.00    +0.000 N 
ATOM     14  C   UNL     1       7.506   7.316  17.572  0.00  0.00    +0.000 C 
ATOM     15  H   UNL     1       5.996   7.926  16.323  0.00  0.00    +0.000 HD
ENDBRANCH   7  13
TORSDOF 2
ENDMDL
MODEL 5
REMARK VINA RESULT:      -5.7      2.628      3.956
REMARK  Name = 
REMARK  4 active torsions:
REMARK  status: ('A' for Active; 'I' for Inactive)
REMARK    1  A    between atoms: C_1  and  N_2
REMARK    2  A    between atoms: C_3  and  C_5
REMARK    3  A    between atoms: C_11  and  N_12
REMARK    4  A    between atoms: N_12  and  C_13
REMARK                            x       y       z     vdW  Elec       q    Type
REMARK                         _______ _______ _______ _____ _____    ______ ____
ROOT
ATOM      1  C   UNL     1       5.206   4.170  17.223  0.00  0.00    +0.000 A 
ATOM      2  C   UNL     1       5.059   3.886  15.858  0.00  0.00    +0.000 A 
ATOM      3  C   UNL     1       6.114   4.131  14.997  0.00  0.00    +0.000 A 
ATOM      4 BR   UNL     1       5.950   3.800  13.151  0.00  0.00    +0.000 Br
ATOM      5  C   UNL     1       7.285   4.639  15.528  0.00  0.00    +0.000 A 
ATOM      6  N   UNL     1       7.465   4.902  16.847  0.00  0.00    +0.000 NA
ATOM      7  C   UNL     1       6.440   4.659  17.699  0.00  0.00    +0.000 A 
ENDROOT
BRANCH   1  10
ATOM      8  C   UNL     1       1.582   4.069  18.318  0.00  0.00    +0.000 C 
ATOM      9  N   UNL     1       2.804   4.326  17.605  0.00  0.00    +0.000 N 
ATOM     10  C   UNL     1       4.026   3.925  18.093  0.00  0.00    +0.000 C 
ATOM     11  O   UNL     1       4.170   3.367  19.176  0.00  0.00    +0.000 OA
ATOM     12  H   UNL     1       2.759   4.676  16.650  0.00  0.00    +0.000 HD
ENDBRANCH   1  10
BRANCH   7  13
ATOM     13  N   UNL     1       6.610   4.975  19.063  0.00  0.00    +0.000 N 
ATOM     14  C   UNL     1       7.787   5.777  19.372  0.00  0.00    +0.000 C 
ATOM     15  H   UNL     1       6.618   4.106  19.599  0.00  0.00    +0.000 HD
ENDBRANCH   7  13
TORSDOF 2
ENDMDL
MODEL 6
REMARK VINA RESULT:      -5.5      1.087      1.087
REMARK  Name = 
REMARK  4 active torsions:
REMARK  status: ('A' for Active; 'I' for Inactive)
REMARK    1  A    between atoms: C_1  and  N_2
REMARK    2  A    between atoms: C_3  and  C_5
REMARK    3  A    between atoms: C_11  and  N_12
REMARK    4  A    between atoms: N_12  and  C_13
REMARK                            x       y       z     vdW  Elec       q    Type
REMARK                         _______ _______ _______ _____ _____    ______ ____
ROOT
ATOM      1  C   UNL     1       4.898   4.883  16.979  0.00  0.00    +0.000 A 
ATOM      2  C   UNL     1       3.748   4.088  17.088  0.00  0.00    +0.000 A 
ATOM      3  C   UNL     1       3.192   3.869  18.337  0.00  0.00    +0.000 A 
ATOM      4 BR   UNL     1       1.670   2.778  18.537  0.00  0.00    +0.000 Br
ATOM      5  C   UNL     1       3.793   4.460  19.431  0.00  0.00    +0.000 A 
ATOM      6  N   UNL     1       4.892   5.252  19.354  0.00  0.00    +0.000 NA
ATOM      7  C   UNL     1       5.440   5.479  18.136  0.00  0.00    +0.000 A 
ENDROOT
BRANCH   1  10
ATOM      8  C   UNL     1       6.313   3.930  13.598  0.00  0.00    +0.000 C 
ATOM      9  N   UNL     1       5.823   3.900  14.949  0.00  0.00    +0.000 N 
ATOM     10  C   UNL     1       5.473   5.050  15.619  0.00  0.00    +0.000 C 
ATOM     11  O   UNL     1       5.593   6.173  15.139  0.00  0.00    +0.000 OA
ATOM     12  H   UNL     1       5.584   3.006  15.374  0.00  0.00    +0.000 HD
ENDBRANCH   1  10
BRANCH   7  13
ATOM     13  N   UNL     1       6.609   6.265  18.060  0.00  0.00    +0.000 N 
ATOM     14  C   UNL     1       7.684   5.866  18.958  0.00  0.00    +0.000 C 
ATOM     15  H   UNL     1       6.353   7.241  18.218  0.00  0.00    +0.000 HD
ENDBRANCH   7  13
TORSDOF 2
ENDMDL
MODEL 7
REMARK VINA RESULT:      -5.4      2.687      4.017
REMARK  Name = 
REMARK  4 active torsions:
REMARK  status: ('A' for Active; 'I' for Inactive)
REMARK    1  A    between atoms: C_1  and  N_2
REMARK    2  A    between atoms: C_3  and  C_5
REMARK    3  A    between atoms: C_11  and  N_12
REMARK    4  A    between atoms: N_12  and  C_13
REMARK                            x       y       z     vdW  Elec       q    Type
REMARK                         _______ _______ _______ _____ _____    ______ ____
ROOT
ATOM      1  C   UNL     1       6.559   5.692  17.270  0.00  0.00    +0.000 A 
ATOM      2  C   UNL     1       6.812   5.388  15.924  0.00  0.00    +0.000 A 
ATOM      3  C   UNL     1       6.050   4.419  15.294  0.00  0.00    +0.000 A 
ATOM      4 BR   UNL     1       6.377   3.952  13.499  0.00  0.00    +0.000 Br
ATOM      5  C   UNL     1       5.055   3.796  16.022  0.00  0.00    +0.000 A 
ATOM      6  N   UNL     1       4.772   4.085  17.317  0.00  0.00    +0.000 NA
ATOM      7  C   UNL     1       5.507   5.036  17.942  0.00  0.00    +0.000 A 
ENDROOT
BRANCH   1  10
ATOM      8  C   UNL     1       8.197   9.047  17.898  0.00  0.00    +0.000 C 
ATOM      9  N   UNL     1       7.453   7.958  17.327  0.00  0.00    +0.000 N 
ATOM     10  C   UNL     1       7.435   6.710  17.906  0.00  0.00    +0.000 C 
ATOM     11  O   UNL     1       8.076   6.423  18.911  0.00  0.00    +0.000 OA
ATOM     12  H   UNL     1       6.804   8.143  16.564  0.00  0.00    +0.000 HD
ENDBRANCH   1  10
BRANCH   7  13
ATOM     13  N   UNL     1       5.244   5.304  19.301  0.00  0.00    +0.000 N 
ATOM     14  C   UNL     1       3.835   5.431  19.648  0.00  0.00    +0.000 C 
ATOM     15  H   UNL     1       5.757   6.146  19.571  0.00  0.00    +0.000 HD
ENDBRANCH   7  13
TORSDOF 2
ENDMDL
MODEL 8
REMARK VINA RESULT:      -5.3      2.616      3.526
REMARK  Name = 
REMARK  4 active torsions:
REMARK  status: ('A' for Active; 'I' for Inactive)
REMARK    1  A    between atoms: C_1  and  N_2
REMARK    2  A    between atoms: C_3  and  C_5
REMARK    3  A    between atoms: C_11  and  N_12
REMARK    4  A    between atoms: N_12  and  C_13
REMARK                            x       y       z     vdW  Elec       q    Type
REMARK                         _______ _______ _______ _____ _____    ______ ____
ROOT
ATOM      1  C   UNL     1       3.788   5.283  18.410  0.00  0.00    +0.000 A 
ATOM      2  C   UNL     1       2.617   4.512  18.437  0.00  0.00    +0.000 A 
ATOM      3  C   UNL     1       2.670   3.216  18.920  0.00  0.00    +0.000 A 
ATOM      4 BR   UNL     1       1.131   2.131  18.941  0.00  0.00    +0.000 Br
ATOM      5  C   UNL     1       3.885   2.737  19.371  0.00  0.00    +0.000 A 
ATOM      6  N   UNL     1       5.029   3.467  19.379  0.00  0.00    +0.000 NA
ATOM      7  C   UNL     1       4.986   4.739  18.915  0.00  0.00    +0.000 A 
ENDROOT
BRANCH   1  10
ATOM      8  C   UNL     1       2.406   8.755  17.798  0.00  0.00    +0.000 C 
ATOM      9  N   UNL     1       2.579   7.391  18.216  0.00  0.00    +0.000 N 
ATOM     10  C   UNL     1       3.679   6.653  17.844  0.00  0.00    +0.000 C 
ATOM     11  O   UNL     1       4.559   7.080  17.103  0.00  0.00    +0.000 OA
ATOM     12  H   UNL     1       1.958   7.003  18.923  0.00  0.00    +0.000 HD
ENDBRANCH   1  10
BRANCH   7  13
ATOM     13  N   UNL     1       6.185   5.483  18.880  0.00  0.00    +0.000 N 
ATOM     14  C   UNL     1       7.230   4.935  18.027  0.00  0.00    +0.000 C 
ATOM     15  H   UNL     1       6.525   5.594  19.837  0.00  0.00    +0.000 HD
ENDBRANCH   7  13
TORSDOF 2
ENDMDL
MODEL 9
REMARK VINA RESULT:      -5.3      1.992      3.341
REMARK  Name = 
REMARK  4 active torsions:
REMARK  status: ('A' for Active; 'I' for Inactive)
REMARK    1  A    between atoms: C_1  and  N_2
REMARK    2  A    between atoms: C_3  and  C_5
REMARK    3  A    between atoms: C_11  and  N_12
REMARK    4  A    between atoms: N_12  and  C_13
REMARK                            x       y       z     vdW  Elec       q    Type
REMARK                         _______ _______ _______ _____ _____    ______ ____
ROOT
ATOM      1  C   UNL     1       5.352   4.904  18.208  0.00  0.00    +0.000 A 
ATOM      2  C   UNL     1       4.445   5.237  19.224  0.00  0.00    +0.000 A 
ATOM      3  C   UNL     1       3.208   4.617  19.258  0.00  0.00    +0.000 A 
ATOM      4 BR   UNL     1       1.943   5.059  20.582  0.00  0.00    +0.000 Br
ATOM      5  C   UNL     1       2.922   3.676  18.287  0.00  0.00    +0.000 A 
ATOM      6  N   UNL     1       3.787   3.316  17.306  0.00  0.00    +0.000 NA
ATOM      7  C   UNL     1       5.004   3.913  17.268  0.00  0.00    +0.000 A 
ENDROOT
BRANCH   1  10
ATOM      8  C   UNL     1       7.813   7.732  17.677  0.00  0.00    +0.000 C 
ATOM      9  N   UNL     1       6.640   6.901  17.668  0.00  0.00    +0.000 N 
ATOM     10  C   UNL     1       6.648   5.631  18.197  0.00  0.00    +0.000 C 
ATOM     11  O   UNL     1       7.649   5.102  18.669  0.00  0.00    +0.000 OA
ATOM     12  H   UNL     1       5.744   7.306  17.404  0.00  0.00    +0.000 HD
ENDBRANCH   1  10
BRANCH   7  13
ATOM     13  N   UNL     1       5.886   3.572  16.221  0.00  0.00    +0.000 N 
ATOM     14  C   UNL     1       5.632   4.242  14.953  0.00  0.00    +0.000 C 
ATOM     15  H   UNL     1       5.870   2.558  16.101  0.00  0.00    +0.000 HD
ENDBRANCH   7  13
TORSDOF 2
ENDMDL
