MODEL 1
REMARK VINA RESULT:      -7.7      0.000      0.000
REMARK  Name = 
REMARK  7 active torsions:
REMARK  status: ('A' for Active; 'I' for Inactive)
REMARK    1  A    between atoms: C_1  and  C_2
REMARK    2  A    between atoms: C_7  and  O_8
REMARK    3  A    between atoms: C_12  and  C_13
REMARK    4  A    between atoms: N_16  and  C_17
REMARK    5  A    between atoms: C_17  and  C_18
REMARK    6  A    between atoms: C_18  and  C_19
REMARK    7  A    between atoms: C_22  and  N_23
REMARK                            x       y       z     vdW  Elec       q    Type
REMARK                         _______ _______ _______ _____ _____    ______ ____
ROOT
ATOM      1  C   UNL     1       1.304   2.326  19.754  0.00  0.00    +0.000 C 
ATOM      2  C   UNL     1       2.413   2.920  18.831  0.00  0.00    +0.000 C 
ATOM      3  C   UNL     1       2.012   4.077  17.796  0.00  0.00    +0.000 C 
ATOM      4  C   UNL     1       3.062   3.842  16.706  0.00  0.00    +0.000 C 
ATOM      5  C   UNL     1       4.357   4.359  17.281  0.00  0.00    +0.000 A 
ATOM      6  C   UNL     1       5.125   5.251  16.538  0.00  0.00    +0.000 A 
ATOM      7  C   UNL     1       6.151   5.975  17.153  0.00  0.00    +0.000 A 
ATOM      8  C   UNL     1       6.496   5.719  18.476  0.00  0.00    +0.000 A 
ATOM      9  C   UNL     1       5.768   4.798  19.217  0.00  0.00    +0.000 A 
ATOM     10  C   UNL     1       4.650   4.157  18.642  0.00  0.00    +0.000 A 
ATOM     11  C   UNL     1       3.677   3.415  19.574  0.00  0.00    +0.000 C 
ATOM     12  C   UNL     1       4.451   2.223  20.212  0.00  0.00    +0.000 C 
ATOM     13  C   UNL     1       3.141   4.508  20.547  0.00  0.00    +0.000 C 
ATOM     14  C   UNL     1       2.166   5.554  19.841  0.00  0.00    +0.000 C 
ATOM     15  N   UNL     1       2.077   5.521  18.334  0.00  0.00    +0.000 NA
ENDROOT
BRANCH   7  16
ATOM     16  O   UNL     1       6.753   6.980  16.493  0.00  0.00    +0.000 OA
ATOM     17  H   UNL     1       7.585   6.829  16.020  0.00  0.00    +0.000 HD
ENDBRANCH   7  16
BRANCH  15  18
ATOM     18  C   UNL     1       2.637   6.798  17.610  0.00  0.00    +0.000 C 
BRANCH  18  19
ATOM     19  C   UNL     1       2.511   8.285  18.282  0.00  0.00    +0.000 C 
BRANCH  19  20
ATOM     20  C   UNL     1       1.284   9.070  18.948  0.00  0.00    +0.000 A 
ATOM     21  C   UNL     1       1.067   9.005  20.373  0.00  0.00    +0.000 A 
ATOM     22  C   UNL     1       0.155   9.834  21.057  0.00  0.00    +0.000 A 
ATOM     23  C   UNL     1      -0.598  10.797  20.355  0.00  0.00    +0.000 A 
ATOM     24  C   UNL     1      -0.446  10.856  18.954  0.00  0.00    +0.000 A 
ATOM     25  C   UNL     1       0.459  10.013  18.277  0.00  0.00    +0.000 A 
BRANCH  23  26
ATOM     26  N   UNL     1      -1.435  11.723  21.047  0.00  0.00    +0.000 N 
ATOM     27  H   UNL     1      -1.067  12.629  21.383  0.00  0.00    +0.000 HD
ATOM     28  H   UNL     1      -2.453  11.573  21.123  0.00  0.00    +0.000 HD
ENDBRANCH  23  26
ENDBRANCH  19  20
ENDBRANCH  18  19
ENDBRANCH  15  18
TORSDOF 5
ENDMDL
MODEL 2
REMARK VINA RESULT:      -7.6      0.539      1.056
REMARK  Name = 
REMARK  7 active torsions:
REMARK  status: ('A' for Active; 'I' for Inactive)
REMARK    1  A    between atoms: C_1  and  C_2
REMARK    2  A    between atoms: C_7  and  O_8
REMARK    3  A    between atoms: C_12  and  C_13
REMARK    4  A    between atoms: N_16  and  C_17
REMARK    5  A    between atoms: C_17  and  C_18
REMARK    6  A    between atoms: C_18  and  C_19
REMARK    7  A    between atoms: C_22  and  N_23
REMARK                            x       y       z     vdW  Elec       q    Type
REMARK                         _______ _______ _______ _____ _____    ______ ____
ROOT
ATOM      1  C   UNL     1       1.325   2.315  19.584  0.00  0.00    +0.000 C 
ATOM      2  C   UNL     1       2.461   2.967  18.737  0.00  0.00    +0.000 C 
ATOM      3  C   UNL     1       2.096   4.210  17.792  0.00  0.00    +0.000 C 
ATOM      4  C   UNL     1       3.167   4.050  16.708  0.00  0.00    +0.000 C 
ATOM      5  C   UNL     1       4.456   4.501  17.350  0.00  0.00    +0.000 A 
ATOM      6  C   UNL     1       5.251   5.439  16.699  0.00  0.00    +0.000 A 
ATOM      7  C   UNL     1       6.272   6.096  17.393  0.00  0.00    +0.000 A 
ATOM      8  C   UNL     1       6.585   5.728  18.698  0.00  0.00    +0.000 A 
ATOM      9  C   UNL     1       5.830   4.760  19.345  0.00  0.00    +0.000 A 
ATOM     10  C   UNL     1       4.717   4.184  18.697  0.00  0.00    +0.000 A 
ATOM     11  C   UNL     1       3.714   3.382  19.543  0.00  0.00    +0.000 C 
ATOM     12  C   UNL     1       4.459   2.130  20.098  0.00  0.00    +0.000 C 
ATOM     13  C   UNL     1       3.171   4.398  20.592  0.00  0.00    +0.000 C 
ATOM     14  C   UNL     1       2.224   5.512  19.954  0.00  0.00    +0.000 C 
ATOM     15  N   UNL     1       2.167   5.605  18.448  0.00  0.00    +0.000 NA
ENDROOT
BRANCH   7  16
ATOM     16  O   UNL     1       6.901   7.143  16.831  0.00  0.00    +0.000 OA
ATOM     17  H   UNL     1       6.610   7.489  15.974  0.00  0.00    +0.000 HD
ENDBRANCH   7  16
BRANCH  15  18
ATOM     18  C   UNL     1       2.759   6.928  17.843  0.00  0.00    +0.000 C 
BRANCH  18  19
ATOM     19  C   UNL     1       1.909   8.327  17.855  0.00  0.00    +0.000 C 
BRANCH  19  20
ATOM     20  C   UNL     1       1.451   9.303  19.039  0.00  0.00    +0.000 A 
ATOM     21  C   UNL     1       1.151  10.688  18.764  0.00  0.00    +0.000 A 
ATOM     22  C   UNL     1       0.536  11.548  19.697  0.00  0.00    +0.000 A 
ATOM     23  C   UNL     1       0.168  11.071  20.971  0.00  0.00    +0.000 A 
ATOM     24  C   UNL     1       0.489   9.735  21.291  0.00  0.00    +0.000 A 
ATOM     25  C   UNL     1       1.117   8.887  20.356  0.00  0.00    +0.000 A 
BRANCH  23  26
ATOM     26  N   UNL     1      -0.562  11.894  21.881  0.00  0.00    +0.000 N 
ATOM     27  H   UNL     1      -0.477  11.766  22.904  0.00  0.00    +0.000 HD
ATOM     28  H   UNL     1      -1.095  12.714  21.553  0.00  0.00    +0.000 HD
ENDBRANCH  23  26
ENDBRANCH  19  20
ENDBRANCH  18  19
ENDBRANCH  15  18
TORSDOF 5
ENDMDL
MODEL 3
REMARK VINA RESULT:      -7.6      1.262      1.820
REMARK  Name = 
REMARK  7 active torsions:
REMARK  status: ('A' for Active; 'I' for Inactive)
REMARK    1  A    between atoms: C_1  and  C_2
REMARK    2  A    between atoms: C_7  and  O_8
REMARK    3  A    between atoms: C_12  and  C_13
REMARK    4  A    between atoms: N_16  and  C_17
REMARK    5  A    between atoms: C_17  and  C_18
REMARK    6  A    between atoms: C_18  and  C_19
REMARK    7  A    between atoms: C_22  and  N_23
REMARK                            x       y       z     vdW  Elec       q    Type
REMARK                         _______ _______ _______ _____ _____    ______ ____
ROOT
ATOM      1  C   UNL     1       0.620   2.034  19.396  0.00  0.00    +0.000 C 
ATOM      2  C   UNL     1       1.597   2.981  18.632  0.00  0.00    +0.000 C 
ATOM      3  C   UNL     1       1.317   4.558  18.664  0.00  0.00    +0.000 C 
ATOM      4  C   UNL     1       1.954   4.973  17.334  0.00  0.00    +0.000 C 
ATOM      5  C   UNL     1       3.443   4.906  17.566  0.00  0.00    +0.000 A 
ATOM      6  C   UNL     1       4.237   5.998  17.229  0.00  0.00    +0.000 A 
ATOM      7  C   UNL     1       5.548   6.088  17.707  0.00  0.00    +0.000 A 
ATOM      8  C   UNL     1       6.111   5.031  18.415  0.00  0.00    +0.000 A 
ATOM      9  C   UNL     1       5.346   3.914  18.718  0.00  0.00    +0.000 A 
ATOM     10  C   UNL     1       3.984   3.871  18.351  0.00  0.00    +0.000 A 
ATOM     11  C   UNL     1       3.091   2.793  18.988  0.00  0.00    +0.000 C 
ATOM     12  C   UNL     1       3.609   1.405  18.504  0.00  0.00    +0.000 C 
ATOM     13  C   UNL     1       3.154   3.072  20.520  0.00  0.00    +0.000 C 
ATOM     14  C   UNL     1       2.391   4.406  20.946  0.00  0.00    +0.000 C 
ATOM     15  N   UNL     1       1.934   5.334  19.846  0.00  0.00    +0.000 NA
ENDROOT
BRANCH   7  16
ATOM     16  O   UNL     1       6.241   7.230  17.557  0.00  0.00    +0.000 OA
ATOM     17  H   UNL     1       6.098   7.794  16.783  0.00  0.00    +0.000 HD
ENDBRANCH   7  16
BRANCH  15  18
ATOM     18  C   UNL     1       2.654   6.730  19.816  0.00  0.00    +0.000 C 
BRANCH  18  19
ATOM     19  C   UNL     1       1.811   8.121  19.634  0.00  0.00    +0.000 C 
BRANCH  19  20
ATOM     20  C   UNL     1       1.066   9.079  20.679  0.00  0.00    +0.000 A 
ATOM     21  C   UNL     1       0.271  10.188  20.211  0.00  0.00    +0.000 A 
ATOM     22  C   UNL     1      -0.586  10.935  21.045  0.00  0.00    +0.000 A 
ATOM     23  C   UNL     1      -0.711  10.611  22.411  0.00  0.00    +0.000 A 
ATOM     24  C   UNL     1       0.088   9.562  22.914  0.00  0.00    +0.000 A 
ATOM     25  C   UNL     1       0.952   8.830  22.074  0.00  0.00    +0.000 A 
BRANCH  23  26
ATOM     26  N   UNL     1      -1.661  11.279  23.241  0.00  0.00    +0.000 N 
ATOM     27  H   UNL     1      -2.566  11.606  22.861  0.00  0.00    +0.000 HD
ATOM     28  H   UNL     1      -1.530  11.344  24.262  0.00  0.00    +0.000 HD
ENDBRANCH  23  26
ENDBRANCH  19  20
ENDBRANCH  18  19
ENDBRANCH  15  18
TORSDOF 5
ENDMDL
MODEL 4
REMARK VINA RESULT:      -7.5      0.517      1.073
REMARK  Name = 
REMARK  7 active torsions:
REMARK  status: ('A' for Active; 'I' for Inactive)
REMARK    1  A    between atoms: C_1  and  C_2
REMARK    2  A    between atoms: C_7  and  O_8
REMARK    3  A    between atoms: C_12  and  C_13
REMARK    4  A    between atoms: N_16  and  C_17
REMARK    5  A    between atoms: C_17  and  C_18
REMARK    6  A    between atoms: C_18  and  C_19
REMARK    7  A    between atoms: C_22  and  N_23
REMARK                            x       y       z     vdW  Elec       q    Type
REMARK                         _______ _______ _______ _____ _____    ______ ____
ROOT
ATOM      1  C   UNL     1       1.271   2.132  19.797  0.00  0.00    +0.000 C 
ATOM      2  C   UNL     1       2.336   2.803  18.875  0.00  0.00    +0.000 C 
ATOM      3  C   UNL     1       1.869   3.987  17.900  0.00  0.00    +0.000 C 
ATOM      4  C   UNL     1       2.899   3.835  16.776  0.00  0.00    +0.000 C 
ATOM      5  C   UNL     1       4.189   4.374  17.342  0.00  0.00    +0.000 A 
ATOM      6  C   UNL     1       4.907   5.323  16.620  0.00  0.00    +0.000 A 
ATOM      7  C   UNL     1       5.923   6.057  17.241  0.00  0.00    +0.000 A 
ATOM      8  C   UNL     1       6.308   5.759  18.544  0.00  0.00    +0.000 A 
ATOM      9  C   UNL     1       5.632   4.783  19.261  0.00  0.00    +0.000 A 
ATOM     10  C   UNL     1       4.523   4.127  18.686  0.00  0.00    +0.000 A 
ATOM     11  C   UNL     1       3.599   3.312  19.608  0.00  0.00    +0.000 C 
ATOM     12  C   UNL     1       4.430   2.123  20.177  0.00  0.00    +0.000 C 
ATOM     13  C   UNL     1       3.051   4.343  20.639  0.00  0.00    +0.000 C 
ATOM     14  C   UNL     1       2.022   5.382  20.000  0.00  0.00    +0.000 C 
ATOM     15  N   UNL     1       1.897   5.409  18.496  0.00  0.00    +0.000 NA
ENDROOT
BRANCH   7  16
ATOM     16  O   UNL     1       6.473   7.110  16.611  0.00  0.00    +0.000 OA
ATOM     17  H   UNL     1       6.182   7.356  15.720  0.00  0.00    +0.000 HD
ENDBRANCH   7  16
BRANCH  15  18
ATOM     18  C   UNL     1       2.394   6.734  17.814  0.00  0.00    +0.000 C 
BRANCH  18  19
ATOM     19  C   UNL     1       2.427   8.153  18.628  0.00  0.00    +0.000 C 
BRANCH  19  20
ATOM     20  C   UNL     1       1.313   9.273  18.893  0.00  0.00    +0.000 A 
ATOM     21  C   UNL     1       0.425   9.680  17.831  0.00  0.00    +0.000 A 
ATOM     22  C   UNL     1      -0.712  10.488  18.038  0.00  0.00    +0.000 A 
ATOM     23  C   UNL     1      -1.043  10.936  19.333  0.00  0.00    +0.000 A 
ATOM     24  C   UNL     1      -0.170  10.595  20.388  0.00  0.00    +0.000 A 
ATOM     25  C   UNL     1       0.972   9.798  20.169  0.00  0.00    +0.000 A 
BRANCH  23  26
ATOM     26  N   UNL     1      -2.253  11.652  19.577  0.00  0.00    +0.000 N 
ATOM     27  H   UNL     1      -3.044  11.211  20.078  0.00  0.00    +0.000 HD
ATOM     28  H   UNL     1      -2.330  12.660  19.373  0.00  0.00    +0.000 HD
ENDBRANCH  23  26
ENDBRANCH  19  20
ENDBRANCH  18  19
ENDBRANCH  15  18
TORSDOF 5
ENDMDL
MODEL 5
REMARK VINA RESULT:      -7.5      3.861      5.703
REMARK  Name = 
REMARK  7 active torsions:
REMARK  status: ('A' for Active; 'I' for Inactive)
REMARK    1  A    between atoms: C_1  and  C_2
REMARK    2  A    between atoms: C_7  and  O_8
REMARK    3  A    between atoms: C_12  and  C_13
REMARK    4  A    between atoms: N_16  and  C_17
REMARK    5  A    between atoms: C_17  and  C_18
REMARK    6  A    between atoms: C_18  and  C_19
REMARK    7  A    between atoms: C_22  and  N_23
REMARK                            x       y       z     vdW  Elec       q    Type
REMARK                         _______ _______ _______ _____ _____    ______ ____
ROOT
ATOM      1  C   UNL     1       2.662   5.223  19.831  0.00  0.00    +0.000 C 
ATOM      2  C   UNL     1       3.343   5.458  18.447  0.00  0.00    +0.000 C 
ATOM      3  C   UNL     1       4.430   6.628  18.317  0.00  0.00    +0.000 C 
ATOM      4  C   UNL     1       4.277   6.976  16.833  0.00  0.00    +0.000 C 
ATOM      5  C   UNL     1       4.933   5.842  16.087  0.00  0.00    +0.000 A 
ATOM      6  C   UNL     1       5.881   6.126  15.107  0.00  0.00    +0.000 A 
ATOM      7  C   UNL     1       6.717   5.115  14.624  0.00  0.00    +0.000 A 
ATOM      8  C   UNL     1       6.526   3.796  15.022  0.00  0.00    +0.000 A 
ATOM      9  C   UNL     1       5.554   3.489  15.964  0.00  0.00    +0.000 A 
ATOM     10  C   UNL     1       4.792   4.521  16.552  0.00  0.00    +0.000 A 
ATOM     11  C   UNL     1       3.977   4.196  17.816  0.00  0.00    +0.000 C 
ATOM     12  C   UNL     1       2.882   3.161  17.419  0.00  0.00    +0.000 C 
ATOM     13  C   UNL     1       5.032   3.736  18.866  0.00  0.00    +0.000 C 
ATOM     14  C   UNL     1       5.960   4.925  19.386  0.00  0.00    +0.000 C 
ATOM     15  N   UNL     1       5.886   6.243  18.654  0.00  0.00    +0.000 NA
ENDROOT
BRANCH   7  16
ATOM     16  O   UNL     1       7.762   5.426  13.838  0.00  0.00    +0.000 OA
ATOM     17  H   UNL     1       7.627   5.640  12.903  0.00  0.00    +0.000 HD
ENDBRANCH   7  16
BRANCH  15  18
ATOM     18  C   UNL     1       7.195   6.650  17.888  0.00  0.00    +0.000 C 
BRANCH  18  19
ATOM     19  C   UNL     1       7.466   8.194  17.419  0.00  0.00    +0.000 C 
BRANCH  19  20
ATOM     20  C   UNL     1       8.339   9.378  18.051  0.00  0.00    +0.000 A 
ATOM     21  C   UNL     1       8.309  10.696  17.465  0.00  0.00    +0.000 A 
ATOM     22  C   UNL     1       8.868  11.833  18.084  0.00  0.00    +0.000 A 
ATOM     23  C   UNL     1       9.489  11.726  19.344  0.00  0.00    +0.000 A 
ATOM     24  C   UNL     1       9.578  10.444  19.926  0.00  0.00    +0.000 A 
ATOM     25  C   UNL     1       9.028   9.310  19.292  0.00  0.00    +0.000 A 
BRANCH  23  26
ATOM     26  N   UNL     1       9.952  12.885  20.037  0.00  0.00    +0.000 N 
ATOM     27  H   UNL     1      10.947  13.164  20.006  0.00  0.00    +0.000 HD
ATOM     28  H   UNL     1       9.294  13.543  20.481  0.00  0.00    +0.000 HD
ENDBRANCH  23  26
ENDBRANCH  19  20
ENDBRANCH  18  19
ENDBRANCH  15  18
TORSDOF 5
ENDMDL
MODEL 6
REMARK VINA RESULT:      -7.4      1.115      1.117
REMARK  Name = 
REMARK  7 active torsions:
REMARK  status: ('A' for Active; 'I' for Inactive)
REMARK    1  A    between atoms: C_1  and  C_2
REMARK    2  A    between atoms: C_7  and  O_8
REMARK    3  A    between atoms: C_12  and  C_13
REMARK    4  A    between atoms: N_16  and  C_17
REMARK    5  A    between atoms: C_17  and  C_18
REMARK    6  A    between atoms: C_18  and  C_19
REMARK    7  A    between atoms: C_22  and  N_23
REMARK                            x       y       z     vdW  Elec       q    Type
REMARK                         _______ _______ _______ _____ _____    ______ ____
ROOT
ATOM      1  C   UNL     1       1.141   2.585  19.869  0.00  0.00    +0.000 C 
ATOM      2  C   UNL     1       2.254   3.172  18.947  0.00  0.00    +0.000 C 
ATOM      3  C   UNL     1       1.904   4.446  18.039  0.00  0.00    +0.000 C 
ATOM      4  C   UNL     1       2.883   4.231  16.881  0.00  0.00    +0.000 C 
ATOM      5  C   UNL     1       4.240   4.591  17.433  0.00  0.00    +0.000 A 
ATOM      6  C   UNL     1       5.047   5.484  16.733  0.00  0.00    +0.000 A 
ATOM      7  C   UNL     1       6.155   6.066  17.356  0.00  0.00    +0.000 A 
ATOM      8  C   UNL     1       6.534   5.664  18.633  0.00  0.00    +0.000 A 
ATOM      9  C   UNL     1       5.765   4.739  19.326  0.00  0.00    +0.000 A 
ATOM     10  C   UNL     1       4.575   4.243  18.755  0.00  0.00    +0.000 A 
ATOM     11  C   UNL     1       3.585   3.497  19.665  0.00  0.00    +0.000 C 
ATOM     12  C   UNL     1       4.285   2.194  20.157  0.00  0.00    +0.000 C 
ATOM     13  C   UNL     1       3.184   4.534  20.757  0.00  0.00    +0.000 C 
ATOM     14  C   UNL     1       2.268   5.713  20.194  0.00  0.00    +0.000 C 
ATOM     15  N   UNL     1       2.111   5.826  18.697  0.00  0.00    +0.000 NA
ENDROOT
BRANCH   7  16
ATOM     16  O   UNL     1       6.808   7.077  16.758  0.00  0.00    +0.000 OA
ATOM     17  H   UNL     1       6.484   7.446  15.923  0.00  0.00    +0.000 HD
ENDBRANCH   7  16
BRANCH  15  18
ATOM     18  C   UNL     1       2.743   7.116  18.061  0.00  0.00    +0.000 C 
BRANCH  18  19
ATOM     19  C   UNL     1       1.822   8.406  17.654  0.00  0.00    +0.000 C 
BRANCH  19  20
ATOM     20  C   UNL     1       1.486   9.776  18.414  0.00  0.00    +0.000 A 
ATOM     21  C   UNL     1       0.789   9.754  19.677  0.00  0.00    +0.000 A 
ATOM     22  C   UNL     1       0.653  10.886  20.507  0.00  0.00    +0.000 A 
ATOM     23  C   UNL     1       1.218  12.120  20.128  0.00  0.00    +0.000 A 
ATOM     24  C   UNL     1       1.866  12.189  18.876  0.00  0.00    +0.000 A 
ATOM     25  C   UNL     1       1.986  11.055  18.048  0.00  0.00    +0.000 A 
BRANCH  23  26
ATOM     26  N   UNL     1       1.192  13.242  21.009  0.00  0.00    +0.000 N 
ATOM     27  H   UNL     1       1.012  14.197  20.655  0.00  0.00    +0.000 HD
ATOM     28  H   UNL     1       1.229  13.121  22.033  0.00  0.00    +0.000 HD
ENDBRANCH  23  26
ENDBRANCH  19  20
ENDBRANCH  18  19
ENDBRANCH  15  18
TORSDOF 5
ENDMDL
MODEL 7
REMARK VINA RESULT:      -7.2      1.234      1.784
REMARK  Name = 
REMARK  7 active torsions:
REMARK  status: ('A' for Active; 'I' for Inactive)
REMARK    1  A    between atoms: C_1  and  C_2
REMARK    2  A    between atoms: C_7  and  O_8
REMARK    3  A    between atoms: C_12  and  C_13
REMARK    4  A    between atoms: N_16  and  C_17
REMARK    5  A    between atoms: C_17  and  C_18
REMARK    6  A    between atoms: C_18  and  C_19
REMARK    7  A    between atoms: C_22  and  N_23
REMARK                            x       y       z     vdW  Elec       q    Type
REMARK                         _______ _______ _______ _____ _____    ______ ____
ROOT
ATOM      1  C   UNL     1       0.765   1.672  19.394  0.00  0.00    +0.000 C 
ATOM      2  C   UNL     1       1.645   2.728  18.656  0.00  0.00    +0.000 C 
ATOM      3  C   UNL     1       1.264   4.278  18.798  0.00  0.00    +0.000 C 
ATOM      4  C   UNL     1       1.817   4.816  17.474  0.00  0.00    +0.000 C 
ATOM      5  C   UNL     1       3.316   4.836  17.646  0.00  0.00    +0.000 A 
ATOM      6  C   UNL     1       4.022   5.998  17.350  0.00  0.00    +0.000 A 
ATOM      7  C   UNL     1       5.343   6.147  17.784  0.00  0.00    +0.000 A 
ATOM      8  C   UNL     1       6.003   5.090  18.402  0.00  0.00    +0.000 A 
ATOM      9  C   UNL     1       5.325   3.907  18.662  0.00  0.00    +0.000 A 
ATOM     10  C   UNL     1       3.955   3.794  18.344  0.00  0.00    +0.000 A 
ATOM     11  C   UNL     1       3.162   2.621  18.943  0.00  0.00    +0.000 C 
ATOM     12  C   UNL     1       3.749   1.303  18.354  0.00  0.00    +0.000 C 
ATOM     13  C   UNL     1       3.270   2.810  20.486  0.00  0.00    +0.000 C 
ATOM     14  C   UNL     1       2.438   4.061  21.024  0.00  0.00    +0.000 C 
ATOM     15  N   UNL     1       1.877   5.021  20.003  0.00  0.00    +0.000 NA
ENDROOT
BRANCH   7  16
ATOM     16  O   UNL     1       5.953   7.341  17.682  0.00  0.00    +0.000 OA
ATOM     17  H   UNL     1       6.919   7.403  17.717  0.00  0.00    +0.000 HD
ENDBRANCH   7  16
BRANCH  15  18
ATOM     18  C   UNL     1       2.502   6.461  20.035  0.00  0.00    +0.000 C 
BRANCH  18  19
ATOM     19  C   UNL     1       1.687   7.732  20.668  0.00  0.00    +0.000 C 
BRANCH  19  20
ATOM     20  C   UNL     1       1.069   9.055  20.011  0.00  0.00    +0.000 A 
ATOM     21  C   UNL     1       1.248   9.320  18.604  0.00  0.00    +0.000 A 
ATOM     22  C   UNL     1       0.556  10.335  17.912  0.00  0.00    +0.000 A 
ATOM     23  C   UNL     1      -0.373  11.152  18.587  0.00  0.00    +0.000 A 
ATOM     24  C   UNL     1      -0.538  10.952  19.973  0.00  0.00    +0.000 A 
ATOM     25  C   UNL     1       0.168   9.943  20.659  0.00  0.00    +0.000 A 
BRANCH  23  26
ATOM     26  N   UNL     1      -1.167  12.102  17.877  0.00  0.00    +0.000 N 
ATOM     27  H   UNL     1      -2.197  12.113  17.969  0.00  0.00    +0.000 HD
ATOM     28  H   UNL     1      -0.734  12.879  17.354  0.00  0.00    +0.000 HD
ENDBRANCH  23  26
ENDBRANCH  19  20
ENDBRANCH  18  19
ENDBRANCH  15  18
TORSDOF 5
ENDMDL
MODEL 8
REMARK VINA RESULT:      -7.2      2.008      3.980
REMARK  Name = 
REMARK  7 active torsions:
REMARK  status: ('A' for Active; 'I' for Inactive)
REMARK    1  A    between atoms: C_1  and  C_2
REMARK    2  A    between atoms: C_7  and  O_8
REMARK    3  A    between atoms: C_12  and  C_13
REMARK    4  A    between atoms: N_16  and  C_17
REMARK    5  A    between atoms: C_17  and  C_18
REMARK    6  A    between atoms: C_18  and  C_19
REMARK    7  A    between atoms: C_22  and  N_23
REMARK                            x       y       z     vdW  Elec       q    Type
REMARK                         _______ _______ _______ _____ _____    ______ ____
ROOT
ATOM      1  C   UNL     1       7.353   6.263  17.197  0.00  0.00    +0.000 C 
ATOM      2  C   UNL     1       6.411   5.180  17.807  0.00  0.00    +0.000 C 
ATOM      3  C   UNL     1       5.603   5.533  19.146  0.00  0.00    +0.000 C 
ATOM      4  C   UNL     1       5.446   4.132  19.746  0.00  0.00    +0.000 C 
ATOM      5  C   UNL     1       4.395   3.452  18.904  0.00  0.00    +0.000 A 
ATOM      6  C   UNL     1       3.315   2.835  19.528  0.00  0.00    +0.000 A 
ATOM      7  C   UNL     1       2.187   2.474  18.785  0.00  0.00    +0.000 A 
ATOM      8  C   UNL     1       2.185   2.610  17.400  0.00  0.00    +0.000 A 
ATOM      9  C   UNL     1       3.275   3.181  16.758  0.00  0.00    +0.000 A 
ATOM     10  C   UNL     1       4.364   3.666  17.513  0.00  0.00    +0.000 A 
ATOM     11  C   UNL     1       5.382   4.584  16.817  0.00  0.00    +0.000 C 
ATOM     12  C   UNL     1       6.093   3.748  15.711  0.00  0.00    +0.000 C 
ATOM     13  C   UNL     1       4.554   5.817  16.344  0.00  0.00    +0.000 C 
ATOM     14  C   UNL     1       4.065   6.743  17.547  0.00  0.00    +0.000 C 
ATOM     15  N   UNL     1       4.232   6.215  18.951  0.00  0.00    +0.000 NA
ENDROOT
BRANCH   7  16
ATOM     16  O   UNL     1       1.069   2.072  19.413  0.00  0.00    +0.000 OA
ATOM     17  H   UNL     1       1.081   1.874  20.361  0.00  0.00    +0.000 HD
ENDBRANCH   7  16
BRANCH  15  18
ATOM     18  C   UNL     1       2.890   5.921  19.712  0.00  0.00    +0.000 C 
BRANCH  18  19
ATOM     19  C   UNL     1       2.068   7.108  20.482  0.00  0.00    +0.000 C 
BRANCH  19  20
ATOM     20  C   UNL     1       1.395   8.467  19.966  0.00  0.00    +0.000 A 
ATOM     21  C   UNL     1       1.659   8.948  18.632  0.00  0.00    +0.000 A 
ATOM     22  C   UNL     1       0.942  10.003  18.031  0.00  0.00    +0.000 A 
ATOM     23  C   UNL     1      -0.101  10.644  18.729  0.00  0.00    +0.000 A 
ATOM     24  C   UNL     1      -0.356  10.231  20.054  0.00  0.00    +0.000 A 
ATOM     25  C   UNL     1       0.376   9.184  20.650  0.00  0.00    +0.000 A 
BRANCH  23  26
ATOM     26  N   UNL     1      -0.913  11.630  18.093  0.00  0.00    +0.000 N 
ATOM     27  H   UNL     1      -0.651  12.029  17.176  0.00  0.00    +0.000 HD
ATOM     28  H   UNL     1      -1.842  11.882  18.466  0.00  0.00    +0.000 HD
ENDBRANCH  23  26
ENDBRANCH  19  20
ENDBRANCH  18  19
ENDBRANCH  15  18
TORSDOF 5
ENDMDL
MODEL 9
REMARK VINA RESULT:      -7.1      2.014      3.896
REMARK  Name = 
REMARK  7 active torsions:
REMARK  status: ('A' for Active; 'I' for Inactive)
REMARK    1  A    between atoms: C_1  and  C_2
REMARK    2  A    between atoms: C_7  and  O_8
REMARK    3  A    between atoms: C_12  and  C_13
REMARK    4  A    between atoms: N_16  and  C_17
REMARK    5  A    between atoms: C_17  and  C_18
REMARK    6  A    between atoms: C_18  and  C_19
REMARK    7  A    between atoms: C_22  and  N_23
REMARK                            x       y       z     vdW  Elec       q    Type
REMARK                         _______ _______ _______ _____ _____    ______ ____
ROOT
ATOM      1  C   UNL     1       7.333   6.597  17.513  0.00  0.00    +0.000 C 
ATOM      2  C   UNL     1       6.457   5.390  17.973  0.00  0.00    +0.000 C 
ATOM      3  C   UNL     1       5.543   5.560  19.278  0.00  0.00    +0.000 C 
ATOM      4  C   UNL     1       5.477   4.105  19.754  0.00  0.00    +0.000 C 
ATOM      5  C   UNL     1       4.542   3.413  18.794  0.00  0.00    +0.000 A 
ATOM      6  C   UNL     1       3.486   2.657  19.295  0.00  0.00    +0.000 A 
ATOM      7  C   UNL     1       2.441   2.266  18.453  0.00  0.00    +0.000 A 
ATOM      8  C   UNL     1       2.508   2.518  17.086  0.00  0.00    +0.000 A 
ATOM      9  C   UNL     1       3.579   3.230  16.564  0.00  0.00    +0.000 A 
ATOM     10  C   UNL     1       4.573   3.740  17.426  0.00  0.00    +0.000 A 
ATOM     11  C   UNL     1       5.545   4.796  16.873  0.00  0.00    +0.000 C 
ATOM     12  C   UNL     1       6.391   4.119  15.753  0.00  0.00    +0.000 C 
ATOM     13  C   UNL     1       4.640   5.990  16.445  0.00  0.00    +0.000 C 
ATOM     14  C   UNL     1       4.000   6.767  17.683  0.00  0.00    +0.000 C 
ATOM     15  N   UNL     1       4.131   6.138  19.049  0.00  0.00    +0.000 NA
ENDROOT
BRANCH   7  16
ATOM     16  O   UNL     1       1.328   1.720  18.972  0.00  0.00    +0.000 OA
ATOM     17  H   UNL     1       1.141   0.777  18.853  0.00  0.00    +0.000 HD
ENDBRANCH   7  16
BRANCH  15  18
ATOM     18  C   UNL     1       2.778   5.669  19.694  0.00  0.00    +0.000 C 
BRANCH  18  19
ATOM     19  C   UNL     1       1.898   6.665  20.649  0.00  0.00    +0.000 C 
BRANCH  19  20
ATOM     20  C   UNL     1       1.332   8.148  20.433  0.00  0.00    +0.000 A 
ATOM     21  C   UNL     1       0.872   8.921  21.561  0.00  0.00    +0.000 A 
ATOM     22  C   UNL     1       0.571  10.297  21.487  0.00  0.00    +0.000 A 
ATOM     23  C   UNL     1       0.721  10.995  20.272  0.00  0.00    +0.000 A 
ATOM     24  C   UNL     1       1.124  10.260  19.137  0.00  0.00    +0.000 A 
ATOM     25  C   UNL     1       1.410   8.882  19.219  0.00  0.00    +0.000 A 
BRANCH  23  26
ATOM     26  N   UNL     1       0.536  12.409  20.209  0.00  0.00    +0.000 N 
ATOM     27  H   UNL     1      -0.331  12.818  19.821  0.00  0.00    +0.000 HD
ATOM     28  H   UNL     1       1.201  13.057  20.658  0.00  0.00    +0.000 HD
ENDBRANCH  23  26
ENDBRANCH  19  20
ENDBRANCH  18  19
ENDBRANCH  15  18
TORSDOF 5
ENDMDL
