MODEL 1
REMARK VINA RESULT:      -9.4      0.000      0.000
REMARK  Name = 
REMARK  2 active torsions:
REMARK  status: ('A' for Active; 'I' for Inactive)
REMARK    1  A    between atoms: N_3  and  C_4
REMARK    2  A    between atoms: C_4  and  C_5
REMARK                            x       y       z     vdW  Elec       q    Type
REMARK                         _______ _______ _______ _____ _____    ______ ____
ROOT
ATOM      1  O   UNL     1       1.831   8.162  17.677  0.00  0.00    +0.000 OA
ATOM      2  C   UNL     1       1.840   8.365  18.897  0.00  0.00    +0.000 C 
ATOM      3  N   UNL     1       2.583   7.526  19.659  0.00  0.00    +0.000 N 
ATOM      4  N   UNL     1       1.106   9.396  19.490  0.00  0.00    +0.000 N 
ATOM      5  C   UNL     1       0.266   9.923  18.437  0.00  0.00    +0.000 C 
ATOM      6  C   UNL     1      -0.864  10.822  18.790  0.00  0.00    +0.000 C 
ATOM      7  N   UNL     1      -1.060  11.211  20.141  0.00  0.00    +0.000 N 
ATOM      8  C   UNL     1      -1.968  12.241  20.177  0.00  0.00    +0.000 C 
ATOM      9  O   UNL     1      -2.943  12.351  19.458  0.00  0.00    +0.000 OA
ATOM     10  O   UNL     1      -1.529  13.217  20.960  0.00  0.00    +0.000 OA
ATOM     11  C   UNL     1      -0.537  12.704  21.950  0.00  0.00    +0.000 C 
ATOM     12  C   UNL     1       0.150  14.099  22.074  0.00  0.00    +0.000 A 
ATOM     13  C   UNL     1       1.031  14.705  21.182  0.00  0.00    +0.000 A 
ATOM     14  C   UNL     1       1.181  16.102  21.201  0.00  0.00    +0.000 A 
ATOM     15  C   UNL     1       0.460  16.899  22.100  0.00  0.00    +0.000 A 
ATOM     16  C   UNL     1      -0.425  16.310  23.002  0.00  0.00    +0.000 A 
ATOM     17  C   UNL     1      -0.582  14.919  22.985  0.00  0.00    +0.000 A 
ATOM     18  C   UNL     1      -1.636  14.132  23.610  0.00  0.00    +0.000 A 
ATOM     19  C   UNL     1      -2.729  14.637  24.332  0.00  0.00    +0.000 A 
ATOM     20  C   UNL     1      -3.814  13.800  24.570  0.00  0.00    +0.000 A 
ATOM     21  C   UNL     1      -3.792  12.481  24.096  0.00  0.00    +0.000 A 
ATOM     22  C   UNL     1      -2.688  11.961  23.374  0.00  0.00    +0.000 A 
ATOM     23  C   UNL     1      -1.587  12.779  23.115  0.00  0.00    +0.000 A 
ATOM     24  C   UNL     1       0.097  11.501  20.950  0.00  0.00    +0.000 C 
ATOM     25  C   UNL     1       0.984  10.091  20.956  0.00  0.00    +0.000 C 
ATOM     26  H   UNL     1       2.785   7.798  20.613  0.00  0.00    +0.000 HD
ENDROOT
BRANCH   3  27
ATOM     27  C   UNL     1       3.313   6.402  19.055  0.00  0.00    +0.000 C 
BRANCH  27  28
ATOM     28  C   UNL     1       2.475   5.148  19.009  0.00  0.00    +0.000 A 
ATOM     29  C   UNL     1       1.792   4.706  20.151  0.00  0.00    +0.000 A 
ATOM     30  C   UNL     1       1.081   3.505  20.129  0.00  0.00    +0.000 A 
ATOM     31  C   UNL     1       1.039   2.753  18.961  0.00  0.00    +0.000 A 
ATOM     32  F   UNL     1       0.381   1.586  18.951  0.00  0.00    +0.000 F 
ATOM     33  C   UNL     1       1.668   3.195  17.803  0.00  0.00    +0.000 A 
ATOM     34  C   UNL     1       2.381   4.396  17.825  0.00  0.00    +0.000 A 
ENDBRANCH  27  28
ENDBRANCH   3  27
TORSDOF 2
ENDMDL
MODEL 2
REMARK VINA RESULT:      -9.4      3.657      5.870
REMARK  Name = 
REMARK  2 active torsions:
REMARK  status: ('A' for Active; 'I' for Inactive)
REMARK    1  A    between atoms: N_3  and  C_4
REMARK    2  A    between atoms: C_4  and  C_5
REMARK                            x       y       z     vdW  Elec       q    Type
REMARK                         _______ _______ _______ _____ _____    ______ ____
ROOT
ATOM      1  O   UNL     1       3.604   4.477  18.818  0.00  0.00    +0.000 OA
ATOM      2  C   UNL     1       3.675   5.537  18.185  0.00  0.00    +0.000 C 
ATOM      3  N   UNL     1       4.556   5.584  17.156  0.00  0.00    +0.000 N 
ATOM      4  N   UNL     1       2.905   6.656  18.510  0.00  0.00    +0.000 N 
ATOM      5  C   UNL     1       2.275   6.335  19.770  0.00  0.00    +0.000 C 
ATOM      6  C   UNL     1       1.632   7.419  20.559  0.00  0.00    +0.000 C 
ATOM      7  N   UNL     1       1.578   8.737  20.034  0.00  0.00    +0.000 N 
ATOM      8  C   UNL     1       0.710   9.481  20.794  0.00  0.00    +0.000 C 
ATOM      9  O   UNL     1       0.573   9.396  22.000  0.00  0.00    +0.000 OA
ATOM     10  O   UNL     1      -0.119  10.163  20.014  0.00  0.00    +0.000 OA
ATOM     11  C   UNL     1       0.466  10.360  18.656  0.00  0.00    +0.000 C 
ATOM     12  C   UNL     1      -0.946  10.480  18.001  0.00  0.00    +0.000 A 
ATOM     13  C   UNL     1      -1.844   9.458  17.703  0.00  0.00    +0.000 A 
ATOM     14  C   UNL     1      -3.209   9.757  17.564  0.00  0.00    +0.000 A 
ATOM     15  C   UNL     1      -3.687  11.065  17.721  0.00  0.00    +0.000 A 
ATOM     16  C   UNL     1      -2.803  12.101  18.018  0.00  0.00    +0.000 A 
ATOM     17  C   UNL     1      -1.442  11.809  18.162  0.00  0.00    +0.000 A 
ATOM     18  C   UNL     1      -0.405  12.648  18.746  0.00  0.00    +0.000 A 
ATOM     19  C   UNL     1      -0.591  13.919  19.313  0.00  0.00    +0.000 A 
ATOM     20  C   UNL     1       0.412  14.441  20.123  0.00  0.00    +0.000 A 
ATOM     21  C   UNL     1       1.581  13.698  20.348  0.00  0.00    +0.000 A 
ATOM     22  C   UNL     1       1.779  12.418  19.772  0.00  0.00    +0.000 A 
ATOM     23  C   UNL     1       0.787  11.867  18.959  0.00  0.00    +0.000 A 
ATOM     24  C   UNL     1       1.324   8.907  18.625  0.00  0.00    +0.000 C 
ATOM     25  C   UNL     1       2.572   8.111  17.861  0.00  0.00    +0.000 C 
ATOM     26  H   UNL     1       4.477   6.345  16.493  0.00  0.00    +0.000 HD
ENDROOT
BRANCH   3  27
ATOM     27  C   UNL     1       5.415   4.433  16.840  0.00  0.00    +0.000 C 
BRANCH  27  28
ATOM     28  C   UNL     1       5.904   4.472  15.413  0.00  0.00    +0.000 A 
ATOM     29  C   UNL     1       5.206   3.794  14.402  0.00  0.00    +0.000 A 
ATOM     30  C   UNL     1       5.702   3.765  13.098  0.00  0.00    +0.000 A 
ATOM     31  C   UNL     1       6.888   4.428  12.799  0.00  0.00    +0.000 A 
ATOM     32  F   UNL     1       7.377   4.374  11.554  0.00  0.00    +0.000 F 
ATOM     33  C   UNL     1       7.570   5.146  13.773  0.00  0.00    +0.000 A 
ATOM     34  C   UNL     1       7.075   5.174  15.079  0.00  0.00    +0.000 A 
ENDBRANCH  27  28
ENDBRANCH   3  27
TORSDOF 2
ENDMDL
MODEL 3
REMARK VINA RESULT:      -9.1      4.098      9.977
REMARK  Name = 
REMARK  2 active torsions:
REMARK  status: ('A' for Active; 'I' for Inactive)
REMARK    1  A    between atoms: N_3  and  C_4
REMARK    2  A    between atoms: C_4  and  C_5
REMARK                            x       y       z     vdW  Elec       q    Type
REMARK                         _______ _______ _______ _____ _____    ______ ____
ROOT
ATOM      1  O   UNL     1      -0.048  11.413  19.915  0.00  0.00    +0.000 OA
ATOM      2  C   UNL     1       0.007  10.686  18.916  0.00  0.00    +0.000 C 
ATOM      3  N   UNL     1      -0.705  11.072  17.829  0.00  0.00    +0.000 N 
ATOM      4  N   UNL     1       0.749   9.502  18.892  0.00  0.00    +0.000 N 
ATOM      5  C   UNL     1       1.171   9.287  20.258  0.00  0.00    +0.000 C 
ATOM      6  C   UNL     1       1.715   7.960  20.650  0.00  0.00    +0.000 C 
ATOM      7  N   UNL     1       1.885   6.949  19.668  0.00  0.00    +0.000 N 
ATOM      8  C   UNL     1       2.646   5.938  20.201  0.00  0.00    +0.000 C 
ATOM      9  O   UNL     1       2.596   5.543  21.350  0.00  0.00    +0.000 OA
ATOM     10  O   UNL     1       3.603   5.585  19.352  0.00  0.00    +0.000 OA
ATOM     11  C   UNL     1       3.238   5.951  17.952  0.00  0.00    +0.000 C 
ATOM     12  C   UNL     1       4.736   6.046  17.524  0.00  0.00    +0.000 A 
ATOM     13  C   UNL     1       5.641   7.073  17.786  0.00  0.00    +0.000 A 
ATOM     14  C   UNL     1       7.019   6.804  17.749  0.00  0.00    +0.000 A 
ATOM     15  C   UNL     1       7.503   5.522  17.456  0.00  0.00    +0.000 A 
ATOM     16  C   UNL     1       6.612   4.483  17.189  0.00  0.00    +0.000 A 
ATOM     17  C   UNL     1       5.238   4.743  17.228  0.00  0.00    +0.000 A 
ATOM     18  C   UNL     1       4.148   3.779  17.276  0.00  0.00    +0.000 A 
ATOM     19  C   UNL     1       4.279   2.382  17.325  0.00  0.00    +0.000 A 
ATOM     20  C   UNL     1       3.179   1.621  17.706  0.00  0.00    +0.000 A 
ATOM     21  C   UNL     1       1.970   2.258  18.023  0.00  0.00    +0.000 A 
ATOM     22  C   UNL     1       1.827   3.667  17.967  0.00  0.00    +0.000 A 
ATOM     23  C   UNL     1       2.916   4.456  17.593  0.00  0.00    +0.000 A 
ATOM     24  C   UNL     1       2.355   7.330  18.360  0.00  0.00    +0.000 C 
ATOM     25  C   UNL     1       1.217   8.403  17.787  0.00  0.00    +0.000 C 
ATOM     26  H   UNL     1      -0.505  10.626  16.943  0.00  0.00    +0.000 HD
ENDROOT
BRANCH   3  27
ATOM     27  C   UNL     1      -1.537  12.285  17.860  0.00  0.00    +0.000 C 
BRANCH  27  28
ATOM     28  C   UNL     1      -2.986  11.965  18.134  0.00  0.00    +0.000 A 
ATOM     29  C   UNL     1      -3.786  11.381  17.141  0.00  0.00    +0.000 A 
ATOM     30  C   UNL     1      -5.145  11.159  17.368  0.00  0.00    +0.000 A 
ATOM     31  C   UNL     1      -5.701  11.505  18.595  0.00  0.00    +0.000 A 
ATOM     32  F   UNL     1      -7.012  11.318  18.799  0.00  0.00    +0.000 F 
ATOM     33  C   UNL     1      -4.918  12.040  19.610  0.00  0.00    +0.000 A 
ATOM     34  C   UNL     1      -3.559  12.264  19.383  0.00  0.00    +0.000 A 
ENDBRANCH  27  28
ENDBRANCH   3  27
TORSDOF 2
ENDMDL
MODEL 4
REMARK VINA RESULT:      -8.9      1.024      1.069
REMARK  Name = 
REMARK  2 active torsions:
REMARK  status: ('A' for Active; 'I' for Inactive)
REMARK    1  A    between atoms: N_3  and  C_4
REMARK    2  A    between atoms: C_4  and  C_5
REMARK                            x       y       z     vdW  Elec       q    Type
REMARK                         _______ _______ _______ _____ _____    ______ ____
ROOT
ATOM      1  O   UNL     1       1.743   8.220  17.619  0.00  0.00    +0.000 OA
ATOM      2  C   UNL     1       1.736   8.390  18.845  0.00  0.00    +0.000 C 
ATOM      3  N   UNL     1       2.439   7.507  19.596  0.00  0.00    +0.000 N 
ATOM      4  N   UNL     1       1.026   9.428  19.452  0.00  0.00    +0.000 N 
ATOM      5  C   UNL     1       0.223  10.010  18.401  0.00  0.00    +0.000 C 
ATOM      6  C   UNL     1      -0.883  10.936  18.759  0.00  0.00    +0.000 C 
ATOM      7  N   UNL     1      -1.091  11.296  20.116  0.00  0.00    +0.000 N 
ATOM      8  C   UNL     1      -1.966  12.353  20.164  0.00  0.00    +0.000 C 
ATOM      9  O   UNL     1      -2.923  12.515  19.432  0.00  0.00    +0.000 OA
ATOM     10  O   UNL     1      -1.509  13.293  20.982  0.00  0.00    +0.000 OA
ATOM     11  C   UNL     1      -0.553  12.721  21.974  0.00  0.00    +0.000 C 
ATOM     12  C   UNL     1       0.178  14.089  22.148  0.00  0.00    +0.000 A 
ATOM     13  C   UNL     1       1.094  14.689  21.288  0.00  0.00    +0.000 A 
ATOM     14  C   UNL     1       1.289  16.079  21.348  0.00  0.00    +0.000 A 
ATOM     15  C   UNL     1       0.578  16.875  22.256  0.00  0.00    +0.000 A 
ATOM     16  C   UNL     1      -0.342  16.292  23.126  0.00  0.00    +0.000 A 
ATOM     17  C   UNL     1      -0.544  14.908  23.068  0.00  0.00    +0.000 A 
ATOM     18  C   UNL     1      -1.634  14.140  23.653  0.00  0.00    +0.000 A 
ATOM     19  C   UNL     1      -2.723  14.661  24.370  0.00  0.00    +0.000 A 
ATOM     20  C   UNL     1      -3.839  13.855  24.566  0.00  0.00    +0.000 A 
ATOM     21  C   UNL     1      -3.851  12.548  24.057  0.00  0.00    +0.000 A 
ATOM     22  C   UNL     1      -2.752  12.012  23.339  0.00  0.00    +0.000 A 
ATOM     23  C   UNL     1      -1.621  12.800  23.123  0.00  0.00    +0.000 A 
ATOM     24  C   UNL     1       0.060  11.526  20.952  0.00  0.00    +0.000 C 
ATOM     25  C   UNL     1       0.901  10.087  20.935  0.00  0.00    +0.000 C 
ATOM     26  H   UNL     1       2.631   7.746  20.560  0.00  0.00    +0.000 HD
ENDROOT
BRANCH   3  27
ATOM     27  C   UNL     1       3.142   6.375  18.974  0.00  0.00    +0.000 C 
BRANCH  27  28
ATOM     28  C   UNL     1       2.887   5.082  19.708  0.00  0.00    +0.000 A 
ATOM     29  C   UNL     1       1.767   4.947  20.543  0.00  0.00    +0.000 A 
ATOM     30  C   UNL     1       1.574   3.779  21.283  0.00  0.00    +0.000 A 
ATOM     31  C   UNL     1       2.491   2.740  21.177  0.00  0.00    +0.000 A 
ATOM     32  F   UNL     1       2.319   1.632  21.911  0.00  0.00    +0.000 F 
ATOM     33  C   UNL     1       3.581   2.832  20.320  0.00  0.00    +0.000 A 
ATOM     34  C   UNL     1       3.775   4.001  19.580  0.00  0.00    +0.000 A 
ENDBRANCH  27  28
ENDBRANCH   3  27
TORSDOF 2
ENDMDL
MODEL 5
REMARK VINA RESULT:      -8.4      1.151      1.363
REMARK  Name = 
REMARK  2 active torsions:
REMARK  status: ('A' for Active; 'I' for Inactive)
REMARK    1  A    between atoms: N_3  and  C_4
REMARK    2  A    between atoms: C_4  and  C_5
REMARK                            x       y       z     vdW  Elec       q    Type
REMARK                         _______ _______ _______ _____ _____    ______ ____
ROOT
ATOM      1  O   UNL     1       1.419   8.902  17.357  0.00  0.00    +0.000 OA
ATOM      2  C   UNL     1       1.455   8.974  18.591  0.00  0.00    +0.000 C 
ATOM      3  N   UNL     1       2.203   8.050  19.243  0.00  0.00    +0.000 N 
ATOM      4  N   UNL     1       0.748   9.944  19.306  0.00  0.00    +0.000 N 
ATOM      5  C   UNL     1      -0.105  10.590  18.334  0.00  0.00    +0.000 C 
ATOM      6  C   UNL     1      -1.216  11.459  18.805  0.00  0.00    +0.000 C 
ATOM      7  N   UNL     1      -1.379  11.705  20.193  0.00  0.00    +0.000 N 
ATOM      8  C   UNL     1      -2.271  12.735  20.358  0.00  0.00    +0.000 C 
ATOM      9  O   UNL     1      -3.259  12.933  19.676  0.00  0.00    +0.000 OA
ATOM     10  O   UNL     1      -1.802  13.617  21.231  0.00  0.00    +0.000 OA
ATOM     11  C   UNL     1      -0.798  12.990  22.139  0.00  0.00    +0.000 C 
ATOM     12  C   UNL     1      -0.089  14.356  22.396  0.00  0.00    +0.000 A 
ATOM     13  C   UNL     1       0.782  15.044  21.554  0.00  0.00    +0.000 A 
ATOM     14  C   UNL     1       0.952  16.428  21.718  0.00  0.00    +0.000 A 
ATOM     15  C   UNL     1       0.261  17.134  22.712  0.00  0.00    +0.000 A 
ATOM     16  C   UNL     1      -0.614  16.462  23.565  0.00  0.00    +0.000 A 
ATOM     17  C   UNL     1      -0.791  15.083  23.404  0.00  0.00    +0.000 A 
ATOM     18  C   UNL     1      -1.843  14.246  23.964  0.00  0.00    +0.000 A 
ATOM     19  C   UNL     1      -2.913  14.684  24.760  0.00  0.00    +0.000 A 
ATOM     20  C   UNL     1      -4.005  13.840  24.932  0.00  0.00    +0.000 A 
ATOM     21  C   UNL     1      -4.011  12.578  24.319  0.00  0.00    +0.000 A 
ATOM     22  C   UNL     1      -2.930  12.126  23.522  0.00  0.00    +0.000 A 
ATOM     23  C   UNL     1      -1.823  12.954  23.328  0.00  0.00    +0.000 A 
ATOM     24  C   UNL     1      -0.201  11.894  21.003  0.00  0.00    +0.000 C 
ATOM     25  C   UNL     1       0.666  10.481  20.840  0.00  0.00    +0.000 C 
ATOM     26  H   UNL     1       2.427   8.217  20.216  0.00  0.00    +0.000 HD
ENDROOT
BRANCH   3  27
ATOM     27  C   UNL     1       2.904   6.988  18.507  0.00  0.00    +0.000 C 
BRANCH  27  28
ATOM     28  C   UNL     1       2.946   5.697  19.288  0.00  0.00    +0.000 A 
ATOM     29  C   UNL     1       3.915   4.724  19.004  0.00  0.00    +0.000 A 
ATOM     30  C   UNL     1       3.904   3.498  19.672  0.00  0.00    +0.000 A 
ATOM     31  C   UNL     1       2.933   3.251  20.636  0.00  0.00    +0.000 A 
ATOM     32  F   UNL     1       2.906   2.063  21.254  0.00  0.00    +0.000 F 
ATOM     33  C   UNL     1       1.993   4.218  20.968  0.00  0.00    +0.000 A 
ATOM     34  C   UNL     1       2.003   5.444  20.299  0.00  0.00    +0.000 A 
ENDBRANCH  27  28
ENDBRANCH   3  27
TORSDOF 2
ENDMDL
MODEL 6
REMARK VINA RESULT:      -8.3      7.337      9.683
REMARK  Name = 
REMARK  2 active torsions:
REMARK  status: ('A' for Active; 'I' for Inactive)
REMARK    1  A    between atoms: N_3  and  C_4
REMARK    2  A    between atoms: C_4  and  C_5
REMARK                            x       y       z     vdW  Elec       q    Type
REMARK                         _______ _______ _______ _____ _____    ______ ____
ROOT
ATOM      1  O   UNL     1       8.612   7.756  18.970  0.00  0.00    +0.000 OA
ATOM      2  C   UNL     1       8.267   8.647  18.185  0.00  0.00    +0.000 C 
ATOM      3  N   UNL     1       7.579   8.266  17.081  0.00  0.00    +0.000 N 
ATOM      4  N   UNL     1       8.579   9.993  18.394  0.00  0.00    +0.000 N 
ATOM      5  C   UNL     1       9.499  10.003  19.510  0.00  0.00    +0.000 C 
ATOM      6  C   UNL     1      10.273  11.238  19.802  0.00  0.00    +0.000 C 
ATOM      7  N   UNL     1      10.048  12.411  19.035  0.00  0.00    +0.000 N 
ATOM      8  C   UNL     1      10.657  13.471  19.658  0.00  0.00    +0.000 C 
ATOM      9  O   UNL     1      11.722  13.431  20.245  0.00  0.00    +0.000 OA
ATOM     10  O   UNL     1       9.830  14.507  19.721  0.00  0.00    +0.000 OA
ATOM     11  C   UNL     1       8.779  14.417  18.666  0.00  0.00    +0.000 C 
ATOM     12  C   UNL     1       7.778  15.268  19.508  0.00  0.00    +0.000 A 
ATOM     13  C   UNL     1       7.018  14.865  20.604  0.00  0.00    +0.000 A 
ATOM     14  C   UNL     1       6.548  15.829  21.510  0.00  0.00    +0.000 A 
ATOM     15  C   UNL     1       6.831  17.190  21.337  0.00  0.00    +0.000 A 
ATOM     16  C   UNL     1       7.588  17.613  20.245  0.00  0.00    +0.000 A 
ATOM     17  C   UNL     1       8.063  16.657  19.340  0.00  0.00    +0.000 A 
ATOM     18  C   UNL     1       9.091  16.823  18.322  0.00  0.00    +0.000 A 
ATOM     19  C   UNL     1       9.834  17.989  18.079  0.00  0.00    +0.000 A 
ATOM     20  C   UNL     1      10.995  17.894  17.319  0.00  0.00    +0.000 A 
ATOM     21  C   UNL     1      11.392  16.649  16.811  0.00  0.00    +0.000 A 
ATOM     22  C   UNL     1      10.643  15.468  17.045  0.00  0.00    +0.000 A 
ATOM     23  C   UNL     1       9.476  15.533  17.808  0.00  0.00    +0.000 A 
ATOM     24  C   UNL     1       8.697  12.732  18.648  0.00  0.00    +0.000 C 
ATOM     25  C   UNL     1       8.185  11.431  17.742  0.00  0.00    +0.000 C 
ATOM     26  H   UNL     1       7.099   8.980  16.546  0.00  0.00    +0.000 HD
ENDROOT
BRANCH   3  27
ATOM     27  C   UNL     1       7.294   6.848  16.818  0.00  0.00    +0.000 C 
BRANCH  27  28
ATOM     28  C   UNL     1       6.026   6.394  17.498  0.00  0.00    +0.000 A 
ATOM     29  C   UNL     1       4.783   6.915  17.110  0.00  0.00    +0.000 A 
ATOM     30  C   UNL     1       3.621   6.554  17.792  0.00  0.00    +0.000 A 
ATOM     31  C   UNL     1       3.697   5.659  18.853  0.00  0.00    +0.000 A 
ATOM     32  F   UNL     1       2.584   5.337  19.525  0.00  0.00    +0.000 F 
ATOM     33  C   UNL     1       4.910   5.092  19.224  0.00  0.00    +0.000 A 
ATOM     34  C   UNL     1       6.074   5.454  18.543  0.00  0.00    +0.000 A 
ENDBRANCH  27  28
ENDBRANCH   3  27
TORSDOF 2
ENDMDL
MODEL 7
REMARK VINA RESULT:      -8.2      3.212      5.260
REMARK  Name = 
REMARK  2 active torsions:
REMARK  status: ('A' for Active; 'I' for Inactive)
REMARK    1  A    between atoms: N_3  and  C_4
REMARK    2  A    between atoms: C_4  and  C_5
REMARK                            x       y       z     vdW  Elec       q    Type
REMARK                         _______ _______ _______ _____ _____    ______ ____
ROOT
ATOM      1  O   UNL     1       3.767   5.761  17.881  0.00  0.00    +0.000 OA
ATOM      2  C   UNL     1       3.638   6.936  17.513  0.00  0.00    +0.000 C 
ATOM      3  N   UNL     1       4.463   7.370  16.530  0.00  0.00    +0.000 N 
ATOM      4  N   UNL     1       2.703   7.801  18.086  0.00  0.00    +0.000 N 
ATOM      5  C   UNL     1       2.178   7.094  19.233  0.00  0.00    +0.000 C 
ATOM      6  C   UNL     1       1.390   7.840  20.249  0.00  0.00    +0.000 C 
ATOM      7  N   UNL     1       1.098   9.214  20.046  0.00  0.00    +0.000 N 
ATOM      8  C   UNL     1       0.144   9.602  20.954  0.00  0.00    +0.000 C 
ATOM      9  O   UNL     1       0.064   9.218  22.106  0.00  0.00    +0.000 OA
ATOM     10  O   UNL     1      -0.813  10.295  20.350  0.00  0.00    +0.000 OA
ATOM     11  C   UNL     1      -0.316  10.898  19.079  0.00  0.00    +0.000 C 
ATOM     12  C   UNL     1      -1.750  10.923  18.462  0.00  0.00    +0.000 A 
ATOM     13  C   UNL     1      -2.473   9.860  17.927  0.00  0.00    +0.000 A 
ATOM     14  C   UNL     1      -3.873   9.946  17.853  0.00  0.00    +0.000 A 
ATOM     15  C   UNL     1      -4.558  11.080  18.309  0.00  0.00    +0.000 A 
ATOM     16  C   UNL     1      -3.850  12.155  18.846  0.00  0.00    +0.000 A 
ATOM     17  C   UNL     1      -2.455  12.074  18.926  0.00  0.00    +0.000 A 
ATOM     18  C   UNL     1      -1.555  12.920  19.697  0.00  0.00    +0.000 A 
ATOM     19  C   UNL     1      -1.931  13.974  20.544  0.00  0.00    +0.000 A 
ATOM     20  C   UNL     1      -1.003  14.457  21.460  0.00  0.00    +0.000 A 
ATOM     21  C   UNL     1       0.280  13.893  21.512  0.00  0.00    +0.000 A 
ATOM     22  C   UNL     1       0.671  12.835  20.654  0.00  0.00    +0.000 A 
ATOM     23  C   UNL     1      -0.242  12.326  19.729  0.00  0.00    +0.000 A 
ATOM     24  C   UNL     1       0.772   9.660  18.715  0.00  0.00    +0.000 C 
ATOM     25  C   UNL     1       2.109   9.288  17.794  0.00  0.00    +0.000 C 
ATOM     26  H   UNL     1       4.235   8.239  16.063  0.00  0.00    +0.000 HD
ENDROOT
BRANCH   3  27
ATOM     27  C   UNL     1       5.491   6.487  15.959  0.00  0.00    +0.000 C 
BRANCH  27  28
ATOM     28  C   UNL     1       6.531   6.100  16.981  0.00  0.00    +0.000 A 
ATOM     29  C   UNL     1       6.887   4.755  17.162  0.00  0.00    +0.000 A 
ATOM     30  C   UNL     1       7.790   4.392  18.162  0.00  0.00    +0.000 A 
ATOM     31  C   UNL     1       8.352   5.373  18.971  0.00  0.00    +0.000 A 
ATOM     32  F   UNL     1       9.195   5.018  19.948  0.00  0.00    +0.000 F 
ATOM     33  C   UNL     1       8.051   6.716  18.778  0.00  0.00    +0.000 A 
ATOM     34  C   UNL     1       7.146   7.081  17.779  0.00  0.00    +0.000 A 
ENDBRANCH  27  28
ENDBRANCH   3  27
TORSDOF 2
ENDMDL
MODEL 8
REMARK VINA RESULT:      -8.1      4.232     10.329
REMARK  Name = 
REMARK  2 active torsions:
REMARK  status: ('A' for Active; 'I' for Inactive)
REMARK    1  A    between atoms: N_3  and  C_4
REMARK    2  A    between atoms: C_4  and  C_5
REMARK                            x       y       z     vdW  Elec       q    Type
REMARK                         _______ _______ _______ _____ _____    ______ ____
ROOT
ATOM      1  O   UNL     1       0.490  11.686  20.503  0.00  0.00    +0.000 OA
ATOM      2  C   UNL     1       0.513  11.049  19.442  0.00  0.00    +0.000 C 
ATOM      3  N   UNL     1      -0.094  11.612  18.369  0.00  0.00    +0.000 N 
ATOM      4  N   UNL     1       1.115   9.793  19.337  0.00  0.00    +0.000 N 
ATOM      5  C   UNL     1       1.439   9.408  20.692  0.00  0.00    +0.000 C 
ATOM      6  C   UNL     1       1.808   7.997  20.979  0.00  0.00    +0.000 C 
ATOM      7  N   UNL     1       1.910   7.064  19.914  0.00  0.00    +0.000 N 
ATOM      8  C   UNL     1       2.523   5.927  20.379  0.00  0.00    +0.000 C 
ATOM      9  O   UNL     1       2.369   5.440  21.483  0.00  0.00    +0.000 OA
ATOM     10  O   UNL     1       3.475   5.540  19.540  0.00  0.00    +0.000 OA
ATOM     11  C   UNL     1       3.227   6.070  18.167  0.00  0.00    +0.000 C 
ATOM     12  C   UNL     1       4.746   6.025  17.811  0.00  0.00    +0.000 A 
ATOM     13  C   UNL     1       5.747   6.909  18.205  0.00  0.00    +0.000 A 
ATOM     14  C   UNL     1       7.085   6.483  18.199  0.00  0.00    +0.000 A 
ATOM     15  C   UNL     1       7.435   5.185  17.805  0.00  0.00    +0.000 A 
ATOM     16  C   UNL     1       6.446   4.286  17.406  0.00  0.00    +0.000 A 
ATOM     17  C   UNL     1       5.110   4.703  17.414  0.00  0.00    +0.000 A 
ATOM     18  C   UNL     1       3.916   3.874  17.326  0.00  0.00    +0.000 A 
ATOM     19  C   UNL     1       3.884   2.473  17.248  0.00  0.00    +0.000 A 
ATOM     20  C   UNL     1       2.686   1.817  17.512  0.00  0.00    +0.000 A 
ATOM     21  C   UNL     1       1.544   2.562  17.838  0.00  0.00    +0.000 A 
ATOM     22  C   UNL     1       1.565   3.977  17.910  0.00  0.00    +0.000 A 
ATOM     23  C   UNL     1       2.755   4.662  17.656  0.00  0.00    +0.000 A 
ATOM     24  C   UNL     1       2.487   7.502  18.668  0.00  0.00    +0.000 C 
ATOM     25  C   UNL     1       1.510   8.749  18.153  0.00  0.00    +0.000 C 
ATOM     26  H   UNL     1       0.099  11.226  17.454  0.00  0.00    +0.000 HD
ENDROOT
BRANCH   3  27
ATOM     27  C   UNL     1      -0.782  12.907  18.481  0.00  0.00    +0.000 C 
BRANCH  27  28
ATOM     28  C   UNL     1       0.191  14.061  18.500  0.00  0.00    +0.000 A 
ATOM     29  C   UNL     1       1.538  13.860  18.166  0.00  0.00    +0.000 A 
ATOM     30  C   UNL     1       2.453  14.910  18.260  0.00  0.00    +0.000 A 
ATOM     31  C   UNL     1       2.018  16.165  18.672  0.00  0.00    +0.000 A 
ATOM     32  F   UNL     1       2.904  17.163  18.790  0.00  0.00    +0.000 F 
ATOM     33  C   UNL     1       0.680  16.398  18.962  0.00  0.00    +0.000 A 
ATOM     34  C   UNL     1      -0.236  15.348  18.870  0.00  0.00    +0.000 A 
ENDBRANCH  27  28
ENDBRANCH   3  27
TORSDOF 2
ENDMDL
MODEL 9
REMARK VINA RESULT:      -8.0      7.605     10.947
REMARK  Name = 
REMARK  2 active torsions:
REMARK  status: ('A' for Active; 'I' for Inactive)
REMARK    1  A    between atoms: N_3  and  C_4
REMARK    2  A    between atoms: C_4  and  C_5
REMARK                            x       y       z     vdW  Elec       q    Type
REMARK                         _______ _______ _______ _____ _____    ______ ____
ROOT
ATOM      1  O   UNL     1       2.518  16.545  20.642  0.00  0.00    +0.000 OA
ATOM      2  C   UNL     1       2.987  16.052  19.608  0.00  0.00    +0.000 C 
ATOM      3  N   UNL     1       2.129  15.835  18.582  0.00  0.00    +0.000 N 
ATOM      4  N   UNL     1       4.336  15.707  19.489  0.00  0.00    +0.000 N 
ATOM      5  C   UNL     1       4.887  15.848  20.818  0.00  0.00    +0.000 C 
ATOM      6  C   UNL     1       6.221  15.266  21.117  0.00  0.00    +0.000 C 
ATOM      7  N   UNL     1       6.969  14.646  20.082  0.00  0.00    +0.000 N 
ATOM      8  C   UNL     1       8.253  14.443  20.524  0.00  0.00    +0.000 C 
ATOM      9  O   UNL     1       8.571  14.127  21.655  0.00  0.00    +0.000 OA
ATOM     10  O   UNL     1       9.126  14.843  19.608  0.00  0.00    +0.000 OA
ATOM     11  C   UNL     1       8.510  14.850  18.249  0.00  0.00    +0.000 C 
ATOM     12  C   UNL     1       9.494  15.951  17.744  0.00  0.00    +0.000 A 
ATOM     13  C   UNL     1       9.459  17.319  18.003  0.00  0.00    +0.000 A 
ATOM     14  C   UNL     1      10.636  18.075  17.878  0.00  0.00    +0.000 A 
ATOM     15  C   UNL     1      11.847  17.481  17.499  0.00  0.00    +0.000 A 
ATOM     16  C   UNL     1      11.900  16.112  17.234  0.00  0.00    +0.000 A 
ATOM     17  C   UNL     1      10.732  15.353  17.361  0.00  0.00    +0.000 A 
ATOM     18  C   UNL     1      10.613  13.903  17.424  0.00  0.00    +0.000 A 
ATOM     19  C   UNL     1      11.673  12.983  17.401  0.00  0.00    +0.000 A 
ATOM     20  C   UNL     1      11.430  11.675  17.807  0.00  0.00    +0.000 A 
ATOM     21  C   UNL     1      10.142  11.303  18.219  0.00  0.00    +0.000 A 
ATOM     22  C   UNL     1       9.065  12.224  18.237  0.00  0.00    +0.000 A 
ATOM     23  C   UNL     1       9.280  13.545  17.840  0.00  0.00    +0.000 A 
ATOM     24  C   UNL     1       6.952  15.241  18.769  0.00  0.00    +0.000 C 
ATOM     25  C   UNL     1       5.351  15.229  18.310  0.00  0.00    +0.000 C 
ATOM     26  H   UNL     1       2.517  15.646  17.666  0.00  0.00    +0.000 HD
ENDROOT
BRANCH   3  27
ATOM     27  C   UNL     1       0.696  16.139  18.715  0.00  0.00    +0.000 C 
BRANCH  27  28
ATOM     28  C   UNL     1      -0.107  14.913  19.071  0.00  0.00    +0.000 A 
ATOM     29  C   UNL     1      -0.868  14.878  20.249  0.00  0.00    +0.000 A 
ATOM     30  C   UNL     1      -1.547  13.715  20.618  0.00  0.00    +0.000 A 
ATOM     31  C   UNL     1      -1.481  12.593  19.800  0.00  0.00    +0.000 A 
ATOM     32  F   UNL     1      -2.110  11.470  20.171  0.00  0.00    +0.000 F 
ATOM     33  C   UNL     1      -0.773  12.620  18.605  0.00  0.00    +0.000 A 
ATOM     34  C   UNL     1      -0.092  13.782  18.236  0.00  0.00    +0.000 A 
ENDBRANCH  27  28
ENDBRANCH   3  27
TORSDOF 2
ENDMDL
