MODEL 1
REMARK VINA RESULT:      -8.2      0.000      0.000
REMARK  Name = 
REMARK  5 active torsions:
REMARK  status: ('A' for Active; 'I' for Inactive)
REMARK    1  A    between atoms: C_1  and  C_2
REMARK    2  A    between atoms: C_6  and  C_7
REMARK    3  A    between atoms: C_12  and  O_13
REMARK    4  A    between atoms: C_15  and  C_16
REMARK    5  A    between atoms: C_20  and  O_21
REMARK                            x       y       z     vdW  Elec       q    Type
REMARK                         _______ _______ _______ _____ _____    ______ ____
ROOT
ATOM      1  C   UNL     1       2.630   8.179  17.623  0.00  0.00    +0.000 C 
ATOM      2  C   UNL     1       2.963   7.043  18.558  0.00  0.00    +0.000 C 
ATOM      3  O   UNL     1       2.619   7.069  19.740  0.00  0.00    +0.000 OA
ATOM      4  N   UNL     1       3.660   5.995  17.984  0.00  0.00    +0.000 N 
ATOM      5  N   UNL     1       4.199   6.082  16.726  0.00  0.00    +0.000 NA
ATOM      6  C   UNL     1       4.946   5.029  16.556  0.00  0.00    +0.000 C 
ATOM      7  C   UNL     1       4.991   4.082  17.727  0.00  0.00    +0.000 C 
ATOM      8  C   UNL     1       4.081   4.806  18.715  0.00  0.00    +0.000 C 
ENDROOT
BRANCH   6   9
ATOM      9  C   UNL     1       5.718   4.798  15.305  0.00  0.00    +0.000 A 
ATOM     10  C   UNL     1       5.156   3.939  14.346  0.00  0.00    +0.000 A 
ATOM     11  C   UNL     1       5.815   3.681  13.142  0.00  0.00    +0.000 A 
ATOM     12  C   UNL     1       7.046   4.278  12.883  0.00  0.00    +0.000 A 
ATOM     13  C   UNL     1       7.618   5.130  13.827  0.00  0.00    +0.000 A 
ATOM     14  C   UNL     1       6.960   5.389  15.032  0.00  0.00    +0.000 A 
BRANCH  14  15
ATOM     15  O   UNL     1       7.556   6.228  15.931  0.00  0.00    +0.000 OA
ATOM     16  H   UNL     1       8.022   6.934  15.453  0.00  0.00    +0.000 HD
ENDBRANCH  14  15
ENDBRANCH   6   9
BRANCH   8  17
ATOM     17  C   UNL     1       2.923   3.934  19.161  0.00  0.00    +0.000 A 
ATOM     18  C   UNL     1       1.993   3.464  18.221  0.00  0.00    +0.000 A 
ATOM     19  C   UNL     1       0.913   2.675  18.623  0.00  0.00    +0.000 A 
ATOM     20  C   UNL     1       0.745   2.348  19.969  0.00  0.00    +0.000 A 
ATOM     21  C   UNL     1       1.665   2.811  20.902  0.00  0.00    +0.000 A 
ATOM     22  C   UNL     1       2.749   3.590  20.511  0.00  0.00    +0.000 A 
BRANCH  21  23
ATOM     23  O   UNL     1       1.539   2.526  22.229  0.00  0.00    +0.000 OA
ATOM     24  H   UNL     1       0.712   2.034  22.359  0.00  0.00    +0.000 HD
ENDBRANCH  21  23
ENDBRANCH   8  17
TORSDOF 4
ENDMDL
MODEL 2
REMARK VINA RESULT:      -8.1      1.039      1.453
REMARK  Name = 
REMARK  5 active torsions:
REMARK  status: ('A' for Active; 'I' for Inactive)
REMARK    1  A    between atoms: C_1  and  C_2
REMARK    2  A    between atoms: C_6  and  C_7
REMARK    3  A    between atoms: C_12  and  O_13
REMARK    4  A    between atoms: C_15  and  C_16
REMARK    5  A    between atoms: C_20  and  O_21
REMARK                            x       y       z     vdW  Elec       q    Type
REMARK                         _______ _______ _______ _____ _____    ______ ____
ROOT
ATOM      1  C   UNL     1       2.224   8.346  17.721  0.00  0.00    +0.000 C 
ATOM      2  C   UNL     1       2.643   7.344  18.767  0.00  0.00    +0.000 C 
ATOM      3  O   UNL     1       2.286   7.459  19.940  0.00  0.00    +0.000 OA
ATOM      4  N   UNL     1       3.435   6.308  18.304  0.00  0.00    +0.000 N 
ATOM      5  N   UNL     1       3.978   6.314  17.045  0.00  0.00    +0.000 NA
ATOM      6  C   UNL     1       4.815   5.319  16.983  0.00  0.00    +0.000 C 
ATOM      7  C   UNL     1       4.929   4.503  18.245  0.00  0.00    +0.000 C 
ATOM      8  C   UNL     1       3.949   5.240  19.153  0.00  0.00    +0.000 C 
ENDROOT
BRANCH   6   9
ATOM      9  C   UNL     1       5.617   5.031  15.764  0.00  0.00    +0.000 A 
ATOM     10  C   UNL     1       5.044   4.191  14.794  0.00  0.00    +0.000 A 
ATOM     11  C   UNL     1       5.731   3.884  13.618  0.00  0.00    +0.000 A 
ATOM     12  C   UNL     1       7.001   4.410  13.398  0.00  0.00    +0.000 A 
ATOM     13  C   UNL     1       7.585   5.241  14.353  0.00  0.00    +0.000 A 
ATOM     14  C   UNL     1       6.899   5.551  15.530  0.00  0.00    +0.000 A 
BRANCH  14  15
ATOM     15  O   UNL     1       7.507   6.367  16.442  0.00  0.00    +0.000 OA
ATOM     16  H   UNL     1       6.949   7.147  16.599  0.00  0.00    +0.000 HD
ENDBRANCH  14  15
ENDBRANCH   6   9
BRANCH   8  17
ATOM     17  C   UNL     1       2.866   4.320  19.682  0.00  0.00    +0.000 A 
ATOM     18  C   UNL     1       2.665   4.192  21.065  0.00  0.00    +0.000 A 
ATOM     19  C   UNL     1       1.681   3.334  21.563  0.00  0.00    +0.000 A 
ATOM     20  C   UNL     1       0.890   2.590  20.689  0.00  0.00    +0.000 A 
ATOM     21  C   UNL     1       1.086   2.716  19.318  0.00  0.00    +0.000 A 
ATOM     22  C   UNL     1       2.056   3.573  18.811  0.00  0.00    +0.000 A 
BRANCH  21  23
ATOM     23  O   UNL     1       0.344   2.003  18.424  0.00  0.00    +0.000 OA
ATOM     24  H   UNL     1       0.924   1.350  17.997  0.00  0.00    +0.000 HD
ENDBRANCH  21  23
ENDBRANCH   8  17
TORSDOF 4
ENDMDL
MODEL 3
REMARK VINA RESULT:      -8.0      1.919      2.688
REMARK  Name = 
REMARK  5 active torsions:
REMARK  status: ('A' for Active; 'I' for Inactive)
REMARK    1  A    between atoms: C_1  and  C_2
REMARK    2  A    between atoms: C_6  and  C_7
REMARK    3  A    between atoms: C_12  and  O_13
REMARK    4  A    between atoms: C_15  and  C_16
REMARK    5  A    between atoms: C_20  and  O_21
REMARK                            x       y       z     vdW  Elec       q    Type
REMARK                         _______ _______ _______ _____ _____    ______ ____
ROOT
ATOM      1  C   UNL     1       8.202   6.736  18.476  0.00  0.00    +0.000 C 
ATOM      2  C   UNL     1       7.162   5.724  18.890  0.00  0.00    +0.000 C 
ATOM      3  O   UNL     1       6.951   5.477  20.077  0.00  0.00    +0.000 OA
ATOM      4  N   UNL     1       6.480   5.123  17.847  0.00  0.00    +0.000 N 
ATOM      5  N   UNL     1       6.871   5.270  16.541  0.00  0.00    +0.000 NA
ATOM      6  C   UNL     1       6.162   4.439  15.832  0.00  0.00    +0.000 C 
ATOM      7  C   UNL     1       5.176   3.612  16.617  0.00  0.00    +0.000 C 
ATOM      8  C   UNL     1       5.441   4.117  18.032  0.00  0.00    +0.000 C 
ENDROOT
BRANCH   6   9
ATOM      9  C   UNL     1       6.336   4.302  14.362  0.00  0.00    +0.000 A 
ATOM     10  C   UNL     1       5.413   3.497  13.672  0.00  0.00    +0.000 A 
ATOM     11  C   UNL     1       5.505   3.329  12.288  0.00  0.00    +0.000 A 
ATOM     12  C   UNL     1       6.520   3.962  11.577  0.00  0.00    +0.000 A 
ATOM     13  C   UNL     1       7.446   4.761  12.248  0.00  0.00    +0.000 A 
ATOM     14  C   UNL     1       7.356   4.930  13.633  0.00  0.00    +0.000 A 
BRANCH  14  15
ATOM     15  O   UNL     1       8.284   5.718  14.252  0.00  0.00    +0.000 OA
ATOM     16  H   UNL     1       9.154   5.286  14.210  0.00  0.00    +0.000 HD
ENDBRANCH  14  15
ENDBRANCH   6   9
BRANCH   8  17
ATOM     17  C   UNL     1       4.185   4.665  18.682  0.00  0.00    +0.000 A 
ATOM     18  C   UNL     1       3.588   5.833  18.186  0.00  0.00    +0.000 A 
ATOM     19  C   UNL     1       2.440   6.356  18.788  0.00  0.00    +0.000 A 
ATOM     20  C   UNL     1       1.877   5.720  19.895  0.00  0.00    +0.000 A 
ATOM     21  C   UNL     1       2.466   4.562  20.388  0.00  0.00    +0.000 A 
ATOM     22  C   UNL     1       3.603   4.028  19.791  0.00  0.00    +0.000 A 
BRANCH  21  23
ATOM     23  O   UNL     1       1.958   3.910  21.472  0.00  0.00    +0.000 OA
ATOM     24  H   UNL     1       2.278   2.993  21.454  0.00  0.00    +0.000 HD
ENDBRANCH  21  23
ENDBRANCH   8  17
TORSDOF 4
ENDMDL
MODEL 4
REMARK VINA RESULT:      -8.0      2.246      3.334
REMARK  Name = 
REMARK  5 active torsions:
REMARK  status: ('A' for Active; 'I' for Inactive)
REMARK    1  A    between atoms: C_1  and  C_2
REMARK    2  A    between atoms: C_6  and  C_7
REMARK    3  A    between atoms: C_12  and  O_13
REMARK    4  A    between atoms: C_15  and  C_16
REMARK    5  A    between atoms: C_20  and  O_21
REMARK                            x       y       z     vdW  Elec       q    Type
REMARK                         _______ _______ _______ _____ _____    ______ ____
ROOT
ATOM      1  C   UNL     1       8.222   5.493  18.781  0.00  0.00    +0.000 C 
ATOM      2  C   UNL     1       6.751   5.198  18.935  0.00  0.00    +0.000 C 
ATOM      3  O   UNL     1       6.226   5.135  20.048  0.00  0.00    +0.000 OA
ATOM      4  N   UNL     1       6.061   5.017  17.749  0.00  0.00    +0.000 N 
ATOM      5  N   UNL     1       6.704   4.896  16.545  0.00  0.00    +0.000 NA
ATOM      6  C   UNL     1       5.809   4.544  15.666  0.00  0.00    +0.000 C 
ATOM      7  C   UNL     1       4.411   4.388  16.207  0.00  0.00    +0.000 C 
ATOM      8  C   UNL     1       4.635   4.719  17.679  0.00  0.00    +0.000 C 
ENDROOT
BRANCH   6   9
ATOM      9  C   UNL     1       6.153   4.292  14.241  0.00  0.00    +0.000 A 
ATOM     10  C   UNL     1       5.303   3.446  13.509  0.00  0.00    +0.000 A 
ATOM     11  C   UNL     1       5.554   3.171  12.163  0.00  0.00    +0.000 A 
ATOM     12  C   UNL     1       6.659   3.736  11.533  0.00  0.00    +0.000 A 
ATOM     13  C   UNL     1       7.514   4.575  12.247  0.00  0.00    +0.000 A 
ATOM     14  C   UNL     1       7.265   4.852  13.594  0.00  0.00    +0.000 A 
BRANCH  14  15
ATOM     15  O   UNL     1       8.128   5.676  14.259  0.00  0.00    +0.000 OA
ATOM     16  H   UNL     1       8.623   5.160  14.918  0.00  0.00    +0.000 HD
ENDBRANCH  14  15
ENDBRANCH   6   9
BRANCH   8  17
ATOM     17  C   UNL     1       3.758   5.867  18.141  0.00  0.00    +0.000 A 
ATOM     18  C   UNL     1       3.650   7.028  17.361  0.00  0.00    +0.000 A 
ATOM     19  C   UNL     1       2.858   8.098  17.786  0.00  0.00    +0.000 A 
ATOM     20  C   UNL     1       2.169   8.024  18.996  0.00  0.00    +0.000 A 
ATOM     21  C   UNL     1       2.274   6.875  19.771  0.00  0.00    +0.000 A 
ATOM     22  C   UNL     1       3.052   5.800  19.353  0.00  0.00    +0.000 A 
BRANCH  21  23
ATOM     23  O   UNL     1       1.627   6.759  20.965  0.00  0.00    +0.000 OA
ATOM     24  H   UNL     1       0.977   7.478  21.031  0.00  0.00    +0.000 HD
ENDBRANCH  21  23
ENDBRANCH   8  17
TORSDOF 4
ENDMDL
MODEL 5
REMARK VINA RESULT:      -7.9      2.015      6.715
REMARK  Name = 
REMARK  5 active torsions:
REMARK  status: ('A' for Active; 'I' for Inactive)
REMARK    1  A    between atoms: C_1  and  C_2
REMARK    2  A    between atoms: C_6  and  C_7
REMARK    3  A    between atoms: C_12  and  O_13
REMARK    4  A    between atoms: C_15  and  C_16
REMARK    5  A    between atoms: C_20  and  O_21
REMARK                            x       y       z     vdW  Elec       q    Type
REMARK                         _______ _______ _______ _____ _____    ______ ____
ROOT
ATOM      1  C   UNL     1       8.106   5.973  19.290  0.00  0.00    +0.000 C 
ATOM      2  C   UNL     1       7.365   6.299  18.018  0.00  0.00    +0.000 C 
ATOM      3  O   UNL     1       7.862   7.031  17.161  0.00  0.00    +0.000 OA
ATOM      4  N   UNL     1       6.117   5.712  17.898  0.00  0.00    +0.000 N 
ATOM      5  N   UNL     1       5.512   5.069  18.946  0.00  0.00    +0.000 NA
ATOM      6  C   UNL     1       4.291   4.806  18.581  0.00  0.00    +0.000 C 
ATOM      7  C   UNL     1       3.929   5.260  17.190  0.00  0.00    +0.000 C 
ATOM      8  C   UNL     1       5.240   5.903  16.749  0.00  0.00    +0.000 C 
ENDROOT
BRANCH   6   9
ATOM      9  C   UNL     1       3.321   4.130  19.483  0.00  0.00    +0.000 A 
ATOM     10  C   UNL     1       2.063   4.733  19.652  0.00  0.00    +0.000 A 
ATOM     11  C   UNL     1       1.096   4.152  20.476  0.00  0.00    +0.000 A 
ATOM     12  C   UNL     1       1.374   2.962  21.141  0.00  0.00    +0.000 A 
ATOM     13  C   UNL     1       2.619   2.353  20.986  0.00  0.00    +0.000 A 
ATOM     14  C   UNL     1       3.589   2.932  20.163  0.00  0.00    +0.000 A 
BRANCH  14  15
ATOM     15  O   UNL     1       4.796   2.306  20.041  0.00  0.00    +0.000 OA
ATOM     16  H   UNL     1       5.195   2.538  19.185  0.00  0.00    +0.000 HD
ENDBRANCH  14  15
ENDBRANCH   6   9
BRANCH   8  17
ATOM     17  C   UNL     1       5.776   5.280  15.474  0.00  0.00    +0.000 A 
ATOM     18  C   UNL     1       5.126   4.175  14.904  0.00  0.00    +0.000 A 
ATOM     19  C   UNL     1       5.622   3.582  13.740  0.00  0.00    +0.000 A 
ATOM     20  C   UNL     1       6.773   4.083  13.133  0.00  0.00    +0.000 A 
ATOM     21  C   UNL     1       7.419   5.178  13.695  0.00  0.00    +0.000 A 
ATOM     22  C   UNL     1       6.929   5.781  14.849  0.00  0.00    +0.000 A 
BRANCH  21  23
ATOM     23  O   UNL     1       8.552   5.697  13.144  0.00  0.00    +0.000 OA
ATOM     24  H   UNL     1       8.399   6.639  12.960  0.00  0.00    +0.000 HD
ENDBRANCH  21  23
ENDBRANCH   8  17
TORSDOF 4
ENDMDL
MODEL 6
REMARK VINA RESULT:      -7.8      2.133      3.092
REMARK  Name = 
REMARK  5 active torsions:
REMARK  status: ('A' for Active; 'I' for Inactive)
REMARK    1  A    between atoms: C_1  and  C_2
REMARK    2  A    between atoms: C_6  and  C_7
REMARK    3  A    between atoms: C_12  and  O_13
REMARK    4  A    between atoms: C_15  and  C_16
REMARK    5  A    between atoms: C_20  and  O_21
REMARK                            x       y       z     vdW  Elec       q    Type
REMARK                         _______ _______ _______ _____ _____    ______ ____
ROOT
ATOM      1  C   UNL     1       8.231   6.743  18.484  0.00  0.00    +0.000 C 
ATOM      2  C   UNL     1       7.169   5.761  18.910  0.00  0.00    +0.000 C 
ATOM      3  O   UNL     1       6.956   5.528  20.101  0.00  0.00    +0.000 OA
ATOM      4  N   UNL     1       6.468   5.168  17.875  0.00  0.00    +0.000 N 
ATOM      5  N   UNL     1       6.857   5.295  16.566  0.00  0.00    +0.000 NA
ATOM      6  C   UNL     1       6.125   4.477  15.867  0.00  0.00    +0.000 C 
ATOM      7  C   UNL     1       5.122   3.681  16.662  0.00  0.00    +0.000 C 
ATOM      8  C   UNL     1       5.405   4.190  18.072  0.00  0.00    +0.000 C 
ENDROOT
BRANCH   6   9
ATOM      9  C   UNL     1       6.289   4.324  14.397  0.00  0.00    +0.000 A 
ATOM     10  C   UNL     1       5.349   3.530  13.718  0.00  0.00    +0.000 A 
ATOM     11  C   UNL     1       5.431   3.348  12.336  0.00  0.00    +0.000 A 
ATOM     12  C   UNL     1       6.454   3.957  11.615  0.00  0.00    +0.000 A 
ATOM     13  C   UNL     1       7.397   4.745  12.274  0.00  0.00    +0.000 A 
ATOM     14  C   UNL     1       7.316   4.928  13.658  0.00  0.00    +0.000 A 
BRANCH  14  15
ATOM     15  O   UNL     1       8.261   5.705  14.266  0.00  0.00    +0.000 OA
ATOM     16  H   UNL     1       7.901   6.596  14.411  0.00  0.00    +0.000 HD
ENDBRANCH  14  15
ENDBRANCH   6   9
BRANCH   8  17
ATOM     17  C   UNL     1       4.165   4.773  18.723  0.00  0.00    +0.000 A 
ATOM     18  C   UNL     1       3.444   4.022  19.662  0.00  0.00    +0.000 A 
ATOM     19  C   UNL     1       2.290   4.543  20.255  0.00  0.00    +0.000 A 
ATOM     20  C   UNL     1       1.841   5.818  19.913  0.00  0.00    +0.000 A 
ATOM     21  C   UNL     1       2.554   6.566  18.983  0.00  0.00    +0.000 A 
ATOM     22  C   UNL     1       3.709   6.060  18.394  0.00  0.00    +0.000 A 
BRANCH  21  23
ATOM     23  O   UNL     1       2.150   7.813  18.610  0.00  0.00    +0.000 OA
ATOM     24  H   UNL     1       2.746   8.131  17.912  0.00  0.00    +0.000 HD
ENDBRANCH  21  23
ENDBRANCH   8  17
TORSDOF 4
ENDMDL
MODEL 7
REMARK VINA RESULT:      -7.4      1.592      6.698
REMARK  Name = 
REMARK  5 active torsions:
REMARK  status: ('A' for Active; 'I' for Inactive)
REMARK    1  A    between atoms: C_1  and  C_2
REMARK    2  A    between atoms: C_6  and  C_7
REMARK    3  A    between atoms: C_12  and  O_13
REMARK    4  A    between atoms: C_15  and  C_16
REMARK    5  A    between atoms: C_20  and  O_21
REMARK                            x       y       z     vdW  Elec       q    Type
REMARK                         _______ _______ _______ _____ _____    ______ ____
ROOT
ATOM      1  C   UNL     1       7.948   5.856  19.259  0.00  0.00    +0.000 C 
ATOM      2  C   UNL     1       7.287   6.227  17.955  0.00  0.00    +0.000 C 
ATOM      3  O   UNL     1       7.845   6.967  17.145  0.00  0.00    +0.000 OA
ATOM      4  N   UNL     1       6.036   5.669  17.752  0.00  0.00    +0.000 N 
ATOM      5  N   UNL     1       5.360   5.015  18.749  0.00  0.00    +0.000 NA
ATOM      6  C   UNL     1       4.156   4.786  18.310  0.00  0.00    +0.000 C 
ATOM      7  C   UNL     1       3.883   5.279  16.912  0.00  0.00    +0.000 C 
ATOM      8  C   UNL     1       5.229   5.904  16.561  0.00  0.00    +0.000 C 
ENDROOT
BRANCH   6   9
ATOM      9  C   UNL     1       3.124   4.111  19.141  0.00  0.00    +0.000 A 
ATOM     10  C   UNL     1       2.771   2.796  18.794  0.00  0.00    +0.000 A 
ATOM     11  C   UNL     1       1.817   2.093  19.533  0.00  0.00    +0.000 A 
ATOM     12  C   UNL     1       1.203   2.696  20.627  0.00  0.00    +0.000 A 
ATOM     13  C   UNL     1       1.540   4.002  20.981  0.00  0.00    +0.000 A 
ATOM     14  C   UNL     1       2.494   4.707  20.243  0.00  0.00    +0.000 A 
BRANCH  14  15
ATOM     15  O   UNL     1       2.793   5.986  20.621  0.00  0.00    +0.000 OA
ATOM     16  H   UNL     1       3.758   6.093  20.661  0.00  0.00    +0.000 HD
ENDBRANCH  14  15
ENDBRANCH   6   9
BRANCH   8  17
ATOM     17  C   UNL     1       5.824   5.299  15.303  0.00  0.00    +0.000 A 
ATOM     18  C   UNL     1       5.207   4.196  14.694  0.00  0.00    +0.000 A 
ATOM     19  C   UNL     1       5.756   3.619  13.546  0.00  0.00    +0.000 A 
ATOM     20  C   UNL     1       6.929   4.135  12.994  0.00  0.00    +0.000 A 
ATOM     21  C   UNL     1       7.541   5.228  13.595  0.00  0.00    +0.000 A 
ATOM     22  C   UNL     1       6.999   5.815  14.733  0.00  0.00    +0.000 A 
BRANCH  21  23
ATOM     23  O   UNL     1       8.694   5.761  13.099  0.00  0.00    +0.000 OA
ATOM     24  H   UNL     1       9.442   5.245  13.443  0.00  0.00    +0.000 HD
ENDBRANCH  21  23
ENDBRANCH   8  17
TORSDOF 4
ENDMDL
MODEL 8
REMARK VINA RESULT:      -7.3      1.972      6.618
REMARK  Name = 
REMARK  5 active torsions:
REMARK  status: ('A' for Active; 'I' for Inactive)
REMARK    1  A    between atoms: C_1  and  C_2
REMARK    2  A    between atoms: C_6  and  C_7
REMARK    3  A    between atoms: C_12  and  O_13
REMARK    4  A    between atoms: C_15  and  C_16
REMARK    5  A    between atoms: C_20  and  O_21
REMARK                            x       y       z     vdW  Elec       q    Type
REMARK                         _______ _______ _______ _____ _____    ______ ____
ROOT
ATOM      1  C   UNL     1       3.069   3.117  20.166  0.00  0.00    +0.000 C 
ATOM      2  C   UNL     1       4.252   3.734  19.461  0.00  0.00    +0.000 C 
ATOM      3  O   UNL     1       5.318   3.126  19.354  0.00  0.00    +0.000 OA
ATOM      4  N   UNL     1       4.036   5.003  18.952  0.00  0.00    +0.000 N 
ATOM      5  N   UNL     1       2.913   5.728  19.257  0.00  0.00    +0.000 NA
ATOM      6  C   UNL     1       3.097   6.931  18.794  0.00  0.00    +0.000 C 
ATOM      7  C   UNL     1       4.415   7.152  18.098  0.00  0.00    +0.000 C 
ATOM      8  C   UNL     1       5.050   5.773  18.241  0.00  0.00    +0.000 C 
ENDROOT
BRANCH   6   9
ATOM      9  C   UNL     1       2.087   8.010  18.966  0.00  0.00    +0.000 A 
ATOM     10  C   UNL     1       1.700   8.724  17.820  0.00  0.00    +0.000 A 
ATOM     11  C   UNL     1       0.749   9.744  17.901  0.00  0.00    +0.000 A 
ATOM     12  C   UNL     1       0.175  10.063  19.128  0.00  0.00    +0.000 A 
ATOM     13  C   UNL     1       0.552   9.366  20.275  0.00  0.00    +0.000 A 
ATOM     14  C   UNL     1       1.503   8.345  20.197  0.00  0.00    +0.000 A 
BRANCH  14  15
ATOM     15  O   UNL     1       1.847   7.687  21.344  0.00  0.00    +0.000 OA
ATOM     16  H   UNL     1       1.405   8.107  22.101  0.00  0.00    +0.000 HD
ENDBRANCH  14  15
ENDBRANCH   6   9
BRANCH   8  17
ATOM     17  C   UNL     1       5.422   5.178  16.897  0.00  0.00    +0.000 A 
ATOM     18  C   UNL     1       4.627   4.172  16.327  0.00  0.00    +0.000 A 
ATOM     19  C   UNL     1       4.971   3.606  15.097  0.00  0.00    +0.000 A 
ATOM     20  C   UNL     1       6.115   4.033  14.423  0.00  0.00    +0.000 A 
ATOM     21  C   UNL     1       6.904   5.030  14.984  0.00  0.00    +0.000 A 
ATOM     22  C   UNL     1       6.566   5.607  16.204  0.00  0.00    +0.000 A 
BRANCH  21  23
ATOM     23  O   UNL     1       8.036   5.475  14.368  0.00  0.00    +0.000 OA
ATOM     24  H   UNL     1       8.611   4.711  14.197  0.00  0.00    +0.000 HD
ENDBRANCH  21  23
ENDBRANCH   8  17
TORSDOF 4
ENDMDL
MODEL 9
REMARK VINA RESULT:      -7.3      2.245      6.566
REMARK  Name = 
REMARK  5 active torsions:
REMARK  status: ('A' for Active; 'I' for Inactive)
REMARK    1  A    between atoms: C_1  and  C_2
REMARK    2  A    between atoms: C_6  and  C_7
REMARK    3  A    between atoms: C_12  and  O_13
REMARK    4  A    between atoms: C_15  and  C_16
REMARK    5  A    between atoms: C_20  and  O_21
REMARK                            x       y       z     vdW  Elec       q    Type
REMARK                         _______ _______ _______ _____ _____    ______ ____
ROOT
ATOM      1  C   UNL     1       1.415   2.564  18.372  0.00  0.00    +0.000 C 
ATOM      2  C   UNL     1       2.875   2.895  18.555  0.00  0.00    +0.000 C 
ATOM      3  O   UNL     1       3.735   2.013  18.542  0.00  0.00    +0.000 OA
ATOM      4  N   UNL     1       3.155   4.239  18.726  0.00  0.00    +0.000 N 
ATOM      5  N   UNL     1       2.169   5.168  18.934  0.00  0.00    +0.000 NA
ATOM      6  C   UNL     1       2.755   6.286  19.250  0.00  0.00    +0.000 C 
ATOM      7  C   UNL     1       4.261   6.229  19.286  0.00  0.00    +0.000 C 
ATOM      8  C   UNL     1       4.500   4.767  18.922  0.00  0.00    +0.000 C 
ENDROOT
BRANCH   6   9
ATOM      9  C   UNL     1       1.989   7.520  19.574  0.00  0.00    +0.000 A 
ATOM     10  C   UNL     1       1.409   7.606  20.851  0.00  0.00    +0.000 A 
ATOM     11  C   UNL     1       0.685   8.737  21.232  0.00  0.00    +0.000 A 
ATOM     12  C   UNL     1       0.530   9.796  20.342  0.00  0.00    +0.000 A 
ATOM     13  C   UNL     1       1.096   9.723  19.069  0.00  0.00    +0.000 A 
ATOM     14  C   UNL     1       1.822   8.592  18.686  0.00  0.00    +0.000 A 
BRANCH  14  15
ATOM     15  O   UNL     1       2.358   8.559  17.430  0.00  0.00    +0.000 OA
ATOM     16  H   UNL     1       2.117   9.372  16.955  0.00  0.00    +0.000 HD
ENDBRANCH  14  15
ENDBRANCH   6   9
BRANCH   8  17
ATOM     17  C   UNL     1       5.385   4.625  17.699  0.00  0.00    +0.000 A 
ATOM     18  C   UNL     1       6.782   4.644  17.835  0.00  0.00    +0.000 A 
ATOM     19  C   UNL     1       7.606   4.532  16.712  0.00  0.00    +0.000 A 
ATOM     20  C   UNL     1       7.047   4.404  15.441  0.00  0.00    +0.000 A 
ATOM     21  C   UNL     1       5.664   4.385  15.304  0.00  0.00    +0.000 A 
ATOM     22  C   UNL     1       4.834   4.487  16.415  0.00  0.00    +0.000 A 
BRANCH  21  23
ATOM     23  O   UNL     1       5.071   4.272  14.081  0.00  0.00    +0.000 OA
ATOM     24  H   UNL     1       4.158   3.966  14.212  0.00  0.00    +0.000 HD
ENDBRANCH  21  23
ENDBRANCH   8  17
TORSDOF 4
ENDMDL
