MODEL 1
REMARK VINA RESULT:      -6.2      0.000      0.000
REMARK  Name = 
REMARK  6 active torsions:
REMARK  status: ('A' for Active; 'I' for Inactive)
REMARK    1  A    between atoms: C_1  and  N_2
REMARK    2  A    between atoms: N_2  and  C_3
REMARK    3  A    between atoms: N_2  and  C_10
REMARK    4  A    between atoms: C_3  and  C_4
REMARK    5  A    between atoms: N_16  and  C_17
REMARK    6  A    between atoms: C_17  and  C_18
REMARK                            x       y       z     vdW  Elec       q    Type
REMARK                         _______ _______ _______ _____ _____    ______ ____
ROOT
ATOM      1  C   UNL     1       1.423   8.731  18.033  0.00  0.00    +0.000 C 
ATOM      2  C   UNL     1       2.059  10.114  17.913  0.00  0.00    +0.000 C 
ATOM      3  O   UNL     1       1.122  11.029  18.484  0.00  0.00    +0.000 OA
ATOM      4  C   UNL     1       0.436  10.354  19.556  0.00  0.00    +0.000 C 
ATOM      5  C   UNL     1      -1.030  10.792  19.513  0.00  0.00    +0.000 C 
ATOM      6  C   UNL     1      -1.160  12.263  19.912  0.00  0.00    +0.000 C 
ATOM      7  N   UNL     1      -0.613  12.552  21.250  0.00  0.00    +0.000 NA
ATOM      8  C   UNL     1       0.821  12.207  21.259  0.00  0.00    +0.000 C 
ATOM      9  C   UNL     1       1.104  10.749  20.886  0.00  0.00    +0.000 C 
ATOM     10  C   UNL     1       0.587   8.854  19.303  0.00  0.00    +0.000 C 
ENDROOT
BRANCH   1  12
ATOM     11  C   UNL     1       3.694   8.000  17.637  0.00  0.00    +0.000 C 
ATOM     12  N   UNL     1       2.350   7.580  18.061  0.00  0.00    +0.000 NA
BRANCH  12  13
ATOM     13  C   UNL     1       2.392   6.970  19.406  0.00  0.00    +0.000 C 
BRANCH  13  14
ATOM     14  C   UNL     1       1.952   5.520  19.441  0.00  0.00    +0.000 A 
ATOM     15  C   UNL     1       1.602   4.905  20.651  0.00  0.00    +0.000 A 
ATOM     16  C   UNL     1       1.181   3.575  20.676  0.00  0.00    +0.000 A 
ATOM     17  C   UNL     1       1.112   2.848  19.484  0.00  0.00    +0.000 A 
ATOM     18  C   UNL     1       1.462   3.445  18.276  0.00  0.00    +0.000 A 
ATOM     19  C   UNL     1       1.872   4.775  18.253  0.00  0.00    +0.000 A 
ENDBRANCH  13  14
ENDBRANCH  12  13
ENDBRANCH   1  12
BRANCH   7  20
ATOM     20  C   UNL     1      -1.330  11.863  22.346  0.00  0.00    +0.000 C 
BRANCH  20  21
ATOM     21  C   UNL     1      -2.450  12.660  22.969  0.00  0.00    +0.000 A 
ATOM     22  N   UNL     1      -3.716  12.276  22.983  0.00  0.00    +0.000 NA
ATOM     23  C   UNL     1      -4.479  13.215  23.647  0.00  0.00    +0.000 A 
ATOM     24  C   UNL     1      -3.784  14.285  24.166  0.00  0.00    +0.000 A 
ATOM     25  S   UNL     1      -2.120  14.135  23.789  0.00  0.00    +0.000 S 
ENDBRANCH  20  21
ENDBRANCH   7  20
TORSDOF 5
ENDMDL
MODEL 2
REMARK VINA RESULT:      -6.1      5.613     10.550
REMARK  Name = 
REMARK  6 active torsions:
REMARK  status: ('A' for Active; 'I' for Inactive)
REMARK    1  A    between atoms: C_1  and  N_2
REMARK    2  A    between atoms: N_2  and  C_3
REMARK    3  A    between atoms: N_2  and  C_10
REMARK    4  A    between atoms: C_3  and  C_4
REMARK    5  A    between atoms: N_16  and  C_17
REMARK    6  A    between atoms: C_17  and  C_18
REMARK                            x       y       z     vdW  Elec       q    Type
REMARK                         _______ _______ _______ _____ _____    ______ ____
ROOT
ATOM      1  C   UNL     1       2.955   4.343  18.966  0.00  0.00    +0.000 C 
ATOM      2  C   UNL     1       4.370   4.630  19.464  0.00  0.00    +0.000 C 
ATOM      3  O   UNL     1       5.244   4.280  18.389  0.00  0.00    +0.000 OA
ATOM      4  C   UNL     1       4.563   4.563  17.151  0.00  0.00    +0.000 C 
ATOM      5  C   UNL     1       4.909   3.440  16.169  0.00  0.00    +0.000 C 
ATOM      6  C   UNL     1       6.381   3.521  15.762  0.00  0.00    +0.000 C 
ATOM      7  N   UNL     1       6.746   4.815  15.158  0.00  0.00    +0.000 NA
ATOM      8  C   UNL     1       6.490   5.885  16.141  0.00  0.00    +0.000 C 
ATOM      9  C   UNL     1       5.040   5.932  16.633  0.00  0.00    +0.000 C 
ATOM     10  C   UNL     1       3.068   4.599  17.466  0.00  0.00    +0.000 C 
ENDROOT
BRANCH   1  12
ATOM     11  C   UNL     1       1.102   4.248  20.517  0.00  0.00    +0.000 C 
ATOM     12  N   UNL     1       1.864   5.111  19.603  0.00  0.00    +0.000 NA
BRANCH  12  13
ATOM     13  C   UNL     1       2.398   6.289  20.318  0.00  0.00    +0.000 C 
BRANCH  13  14
ATOM     14  C   UNL     1       1.968   7.617  19.728  0.00  0.00    +0.000 A 
ATOM     15  C   UNL     1       1.227   8.533  20.488  0.00  0.00    +0.000 A 
ATOM     16  C   UNL     1       0.847   9.762  19.946  0.00  0.00    +0.000 A 
ATOM     17  C   UNL     1       1.204  10.079  18.632  0.00  0.00    +0.000 A 
ATOM     18  C   UNL     1       1.934   9.176  17.865  0.00  0.00    +0.000 A 
ATOM     19  C   UNL     1       2.320   7.955  18.411  0.00  0.00    +0.000 A 
ENDBRANCH  13  14
ENDBRANCH  12  13
ENDBRANCH   1  12
BRANCH   7  20
ATOM     20  C   UNL     1       6.050   5.092  13.881  0.00  0.00    +0.000 C 
BRANCH  20  21
ATOM     21  C   UNL     1       6.129   3.981  12.864  0.00  0.00    +0.000 A 
ATOM     22  N   UNL     1       7.261   3.489  12.388  0.00  0.00    +0.000 NA
ATOM     23  C   UNL     1       6.987   2.471  11.497  0.00  0.00    +0.000 A 
ATOM     24  C   UNL     1       5.654   2.170  11.332  0.00  0.00    +0.000 A 
ATOM     25  S   UNL     1       4.698   3.212  12.298  0.00  0.00    +0.000 S 
ENDBRANCH  20  21
ENDBRANCH   7  20
TORSDOF 5
ENDMDL
MODEL 3
REMARK VINA RESULT:      -6.0      6.161     10.360
REMARK  Name = 
REMARK  6 active torsions:
REMARK  status: ('A' for Active; 'I' for Inactive)
REMARK    1  A    between atoms: C_1  and  N_2
REMARK    2  A    between atoms: N_2  and  C_3
REMARK    3  A    between atoms: N_2  and  C_10
REMARK    4  A    between atoms: C_3  and  C_4
REMARK    5  A    between atoms: N_16  and  C_17
REMARK    6  A    between atoms: C_17  and  C_18
REMARK                            x       y       z     vdW  Elec       q    Type
REMARK                         _______ _______ _______ _____ _____    ______ ____
ROOT
ATOM      1  C   UNL     1       3.613   5.718  18.919  0.00  0.00    +0.000 C 
ATOM      2  C   UNL     1       5.072   5.541  19.335  0.00  0.00    +0.000 C 
ATOM      3  O   UNL     1       5.698   4.816  18.275  0.00  0.00    +0.000 OA
ATOM      4  C   UNL     1       5.072   5.205  17.037  0.00  0.00    +0.000 C 
ATOM      5  C   UNL     1       4.947   3.949  16.171  0.00  0.00    +0.000 C 
ATOM      6  C   UNL     1       6.327   3.480  15.709  0.00  0.00    +0.000 C 
ATOM      7  N   UNL     1       7.069   4.508  14.957  0.00  0.00    +0.000 NA
ATOM      8  C   UNL     1       7.260   5.684  15.827  0.00  0.00    +0.000 C 
ATOM      9  C   UNL     1       5.950   6.272  16.360  0.00  0.00    +0.000 C 
ATOM     10  C   UNL     1       3.703   5.783  17.397  0.00  0.00    +0.000 C 
ENDROOT
BRANCH   1  12
ATOM     11  C   UNL     1       2.338   7.716  18.441  0.00  0.00    +0.000 C 
ATOM     12  N   UNL     1       2.895   6.869  19.505  0.00  0.00    +0.000 NA
BRANCH  12  13
ATOM     13  C   UNL     1       1.829   6.413  20.422  0.00  0.00    +0.000 C 
BRANCH  13  14
ATOM     14  C   UNL     1       1.686   4.906  20.500  0.00  0.00    +0.000 A 
ATOM     15  C   UNL     1       0.975   4.201  19.518  0.00  0.00    +0.000 A 
ATOM     16  C   UNL     1       0.860   2.812  19.585  0.00  0.00    +0.000 A 
ATOM     17  C   UNL     1       1.453   2.118  20.643  0.00  0.00    +0.000 A 
ATOM     18  C   UNL     1       2.157   2.805  21.628  0.00  0.00    +0.000 A 
ATOM     19  C   UNL     1       2.278   4.190  21.553  0.00  0.00    +0.000 A 
ENDBRANCH  13  14
ENDBRANCH  12  13
ENDBRANCH   1  12
BRANCH   7  20
ATOM     20  C   UNL     1       6.423   4.893  13.682  0.00  0.00    +0.000 C 
BRANCH  20  21
ATOM     21  C   UNL     1       6.291   3.775  12.677  0.00  0.00    +0.000 A 
ATOM     22  N   UNL     1       7.317   3.140  12.135  0.00  0.00    +0.000 NA
ATOM     23  C   UNL     1       6.856   2.161  11.278  0.00  0.00    +0.000 A 
ATOM     24  C   UNL     1       5.487   2.033  11.204  0.00  0.00    +0.000 A 
ATOM     25  S   UNL     1       4.739   3.194  12.216  0.00  0.00    +0.000 S 
ENDBRANCH  20  21
ENDBRANCH   7  20
TORSDOF 5
ENDMDL
MODEL 4
REMARK VINA RESULT:      -5.9      5.557     10.398
REMARK  Name = 
REMARK  6 active torsions:
REMARK  status: ('A' for Active; 'I' for Inactive)
REMARK    1  A    between atoms: C_1  and  N_2
REMARK    2  A    between atoms: N_2  and  C_3
REMARK    3  A    between atoms: N_2  and  C_10
REMARK    4  A    between atoms: C_3  and  C_4
REMARK    5  A    between atoms: N_16  and  C_17
REMARK    6  A    between atoms: C_17  and  C_18
REMARK                            x       y       z     vdW  Elec       q    Type
REMARK                         _______ _______ _______ _____ _____    ______ ____
ROOT
ATOM      1  C   UNL     1       2.929   4.340  19.168  0.00  0.00    +0.000 C 
ATOM      2  C   UNL     1       4.306   4.831  19.612  0.00  0.00    +0.000 C 
ATOM      3  O   UNL     1       5.190   4.558  18.523  0.00  0.00    +0.000 OA
ATOM      4  C   UNL     1       4.446   4.700  17.298  0.00  0.00    +0.000 C 
ATOM      5  C   UNL     1       4.913   3.596  16.345  0.00  0.00    +0.000 C 
ATOM      6  C   UNL     1       6.350   3.855  15.891  0.00  0.00    +0.000 C 
ATOM      7  N   UNL     1       6.523   5.162  15.230  0.00  0.00    +0.000 NA
ATOM      8  C   UNL     1       6.153   6.225  16.183  0.00  0.00    +0.000 C 
ATOM      9  C   UNL     1       4.723   6.099  16.718  0.00  0.00    +0.000 C 
ATOM     10  C   UNL     1       2.968   4.550  17.657  0.00  0.00    +0.000 C 
ENDROOT
BRANCH   1  12
ATOM     11  C   UNL     1       1.009   3.994  20.596  0.00  0.00    +0.000 C 
ATOM     12  N   UNL     1       1.763   4.982  19.811  0.00  0.00    +0.000 NA
BRANCH  12  13
ATOM     13  C   UNL     1       2.187   6.113  20.662  0.00  0.00    +0.000 C 
BRANCH  13  14
ATOM     14  C   UNL     1       1.804   7.474  20.114  0.00  0.00    +0.000 A 
ATOM     15  C   UNL     1       2.170   7.853  18.814  0.00  0.00    +0.000 A 
ATOM     16  C   UNL     1       1.801   9.100  18.309  0.00  0.00    +0.000 A 
ATOM     17  C   UNL     1       1.065   9.981  19.106  0.00  0.00    +0.000 A 
ATOM     18  C   UNL     1       0.700   9.619  20.401  0.00  0.00    +0.000 A 
ATOM     19  C   UNL     1       1.062   8.371  20.899  0.00  0.00    +0.000 A 
ENDBRANCH  13  14
ENDBRANCH  12  13
ENDBRANCH   1  12
BRANCH   7  20
ATOM     20  C   UNL     1       5.764   5.294  13.967  0.00  0.00    +0.000 C 
BRANCH  20  21
ATOM     21  C   UNL     1       5.944   4.152  12.998  0.00  0.00    +0.000 A 
ATOM     22  N   UNL     1       4.978   3.319  12.645  0.00  0.00    +0.000 NA
ATOM     23  C   UNL     1       5.463   2.406  11.730  0.00  0.00    +0.000 A 
ATOM     24  C   UNL     1       6.781   2.575  11.365  0.00  0.00    +0.000 A 
ATOM     25  S   UNL     1       7.454   3.901  12.215  0.00  0.00    +0.000 S 
ENDBRANCH  20  21
ENDBRANCH   7  20
TORSDOF 5
ENDMDL
MODEL 5
REMARK VINA RESULT:      -5.9      2.272      3.511
REMARK  Name = 
REMARK  6 active torsions:
REMARK  status: ('A' for Active; 'I' for Inactive)
REMARK    1  A    between atoms: C_1  and  N_2
REMARK    2  A    between atoms: N_2  and  C_3
REMARK    3  A    between atoms: N_2  and  C_10
REMARK    4  A    between atoms: C_3  and  C_4
REMARK    5  A    between atoms: N_16  and  C_17
REMARK    6  A    between atoms: C_17  and  C_18
REMARK                            x       y       z     vdW  Elec       q    Type
REMARK                         _______ _______ _______ _____ _____    ______ ____
ROOT
ATOM      1  C   UNL     1       2.058   8.611  19.614  0.00  0.00    +0.000 C 
ATOM      2  C   UNL     1       0.907   8.521  20.615  0.00  0.00    +0.000 C 
ATOM      3  O   UNL     1       0.545   9.869  20.919  0.00  0.00    +0.000 OA
ATOM      4  C   UNL     1       0.757  10.666  19.739  0.00  0.00    +0.000 C 
ATOM      5  C   UNL     1       1.324  12.015  20.190  0.00  0.00    +0.000 C 
ATOM      6  C   UNL     1       0.259  12.816  20.942  0.00  0.00    +0.000 C 
ATOM      7  N   UNL     1      -0.960  13.050  20.148  0.00  0.00    +0.000 NA
ATOM      8  C   UNL     1      -1.548  11.746  19.788  0.00  0.00    +0.000 C 
ATOM      9  C   UNL     1      -0.591  10.834  19.014  0.00  0.00    +0.000 C 
ATOM     10  C   UNL     1       1.748   9.902  18.860  0.00  0.00    +0.000 C 
ENDROOT
BRANCH   1  12
ATOM     11  C   UNL     1       2.960   7.858  17.501  0.00  0.00    +0.000 C 
ATOM     12  N   UNL     1       2.245   7.450  18.719  0.00  0.00    +0.000 NA
BRANCH  12  13
ATOM     13  C   UNL     1       2.968   6.363  19.411  0.00  0.00    +0.000 C 
BRANCH  13  14
ATOM     14  C   UNL     1       2.203   5.056  19.475  0.00  0.00    +0.000 A 
ATOM     15  C   UNL     1       1.874   4.359  18.303  0.00  0.00    +0.000 A 
ATOM     16  C   UNL     1       1.184   3.148  18.367  0.00  0.00    +0.000 A 
ATOM     17  C   UNL     1       0.814   2.627  19.610  0.00  0.00    +0.000 A 
ATOM     18  C   UNL     1       1.129   3.311  20.781  0.00  0.00    +0.000 A 
ATOM     19  C   UNL     1       1.826   4.514  20.715  0.00  0.00    +0.000 A 
ENDBRANCH  13  14
ENDBRANCH  12  13
ENDBRANCH   1  12
BRANCH   7  20
ATOM     20  C   UNL     1      -0.734  13.879  18.942  0.00  0.00    +0.000 C 
BRANCH  20  21
ATOM     21  C   UNL     1      -0.048  15.198  19.201  0.00  0.00    +0.000 A 
ATOM     22  N   UNL     1       1.131  15.531  18.702  0.00  0.00    +0.000 NA
ATOM     23  C   UNL     1       1.463  16.808  19.110  0.00  0.00    +0.000 A 
ATOM     24  C   UNL     1       0.519  17.449  19.881  0.00  0.00    +0.000 A 
ATOM     25  S   UNL     1      -0.822  16.416  20.138  0.00  0.00    +0.000 S 
ENDBRANCH  20  21
ENDBRANCH   7  20
TORSDOF 5
ENDMDL
MODEL 6
REMARK VINA RESULT:      -5.9      1.817      2.855
REMARK  Name = 
REMARK  6 active torsions:
REMARK  status: ('A' for Active; 'I' for Inactive)
REMARK    1  A    between atoms: C_1  and  N_2
REMARK    2  A    between atoms: N_2  and  C_3
REMARK    3  A    between atoms: N_2  and  C_10
REMARK    4  A    between atoms: C_3  and  C_4
REMARK    5  A    between atoms: N_16  and  C_17
REMARK    6  A    between atoms: C_17  and  C_18
REMARK                            x       y       z     vdW  Elec       q    Type
REMARK                         _______ _______ _______ _____ _____    ______ ____
ROOT
ATOM      1  C   UNL     1       1.889   8.648  18.292  0.00  0.00    +0.000 C 
ATOM      2  C   UNL     1       2.174  10.105  17.931  0.00  0.00    +0.000 C 
ATOM      3  O   UNL     1       1.060  10.856  18.418  0.00  0.00    +0.000 OA
ATOM      4  C   UNL     1       0.583  10.219  19.619  0.00  0.00    +0.000 C 
ATOM      5  C   UNL     1      -0.946  10.293  19.602  0.00  0.00    +0.000 C 
ATOM      6  C   UNL     1      -1.412  11.738  19.788  0.00  0.00    +0.000 C 
ATOM      7  N   UNL     1      -0.916  12.353  21.032  0.00  0.00    +0.000 NA
ATOM      8  C   UNL     1       0.559  12.356  21.003  0.00  0.00    +0.000 C 
ATOM      9  C   UNL     1       1.171  10.962  20.832  0.00  0.00    +0.000 C 
ATOM     10  C   UNL     1       1.081   8.774  19.580  0.00  0.00    +0.000 C 
ENDROOT
BRANCH   1  12
ATOM     11  C   UNL     1       2.751   6.641  19.328  0.00  0.00    +0.000 C 
ATOM     12  N   UNL     1       3.064   7.763  18.431  0.00  0.00    +0.000 NA
BRANCH  12  13
ATOM     13  C   UNL     1       3.510   7.269  17.112  0.00  0.00    +0.000 C 
BRANCH  13  14
ATOM     14  C   UNL     1       4.780   6.443  17.159  0.00  0.00    +0.000 A 
ATOM     15  C   UNL     1       4.748   5.062  16.918  0.00  0.00    +0.000 A 
ATOM     16  C   UNL     1       5.922   4.309  16.946  0.00  0.00    +0.000 A 
ATOM     17  C   UNL     1       7.141   4.936  17.221  0.00  0.00    +0.000 A 
ATOM     18  C   UNL     1       7.187   6.306  17.467  0.00  0.00    +0.000 A 
ATOM     19  C   UNL     1       6.015   7.056  17.430  0.00  0.00    +0.000 A 
ENDBRANCH  13  14
ENDBRANCH  12  13
ENDBRANCH   1  12
BRANCH   7  20
ATOM     20  C   UNL     1      -1.419  11.699  22.260  0.00  0.00    +0.000 C 
BRANCH  20  21
ATOM     21  C   UNL     1      -2.572  12.408  22.927  0.00  0.00    +0.000 A 
ATOM     22  N   UNL     1      -3.399  11.834  23.786  0.00  0.00    +0.000 NA
ATOM     23  C   UNL     1      -4.325  12.759  24.228  0.00  0.00    +0.000 A 
ATOM     24  C   UNL     1      -4.171  14.035  23.733  0.00  0.00    +0.000 A 
ATOM     25  S   UNL     1      -2.844  14.084  22.652  0.00  0.00    +0.000 S 
ENDBRANCH  20  21
ENDBRANCH   7  20
TORSDOF 5
ENDMDL
MODEL 7
REMARK VINA RESULT:      -5.8      2.461      3.697
REMARK  Name = 
REMARK  6 active torsions:
REMARK  status: ('A' for Active; 'I' for Inactive)
REMARK    1  A    between atoms: C_1  and  N_2
REMARK    2  A    between atoms: N_2  and  C_3
REMARK    3  A    between atoms: N_2  and  C_10
REMARK    4  A    between atoms: C_3  and  C_4
REMARK    5  A    between atoms: N_16  and  C_17
REMARK    6  A    between atoms: C_17  and  C_18
REMARK                            x       y       z     vdW  Elec       q    Type
REMARK                         _______ _______ _______ _____ _____    ______ ____
ROOT
ATOM      1  C   UNL     1       1.658   8.132  20.359  0.00  0.00    +0.000 C 
ATOM      2  C   UNL     1       0.401   8.267  21.217  0.00  0.00    +0.000 C 
ATOM      3  O   UNL     1       0.138   9.668  21.310  0.00  0.00    +0.000 OA
ATOM      4  C   UNL     1       0.554  10.284  20.076  0.00  0.00    +0.000 C 
ATOM      5  C   UNL     1       1.194  11.630  20.426  0.00  0.00    +0.000 C 
ATOM      6  C   UNL     1       0.135  12.606  20.942  0.00  0.00    +0.000 C 
ATOM      7  N   UNL     1      -0.962  12.832  19.983  0.00  0.00    +0.000 NA
ATOM      8  C   UNL     1      -1.629  11.544  19.715  0.00  0.00    +0.000 C 
ATOM      9  C   UNL     1      -0.684  10.464  19.179  0.00  0.00    +0.000 C 
ATOM     10  C   UNL     1       1.558   9.333  19.423  0.00  0.00    +0.000 C 
ENDROOT
BRANCH   1  12
ATOM     11  C   UNL     1       2.794   7.012  18.541  0.00  0.00    +0.000 C 
ATOM     12  N   UNL     1       1.830   6.852  19.640  0.00  0.00    +0.000 NA
BRANCH  12  13
ATOM     13  C   UNL     1       2.264   5.783  20.564  0.00  0.00    +0.000 C 
BRANCH  13  14
ATOM     14  C   UNL     1       2.206   4.391  19.968  0.00  0.00    +0.000 A 
ATOM     15  C   UNL     1       3.379   3.652  19.755  0.00  0.00    +0.000 A 
ATOM     16  C   UNL     1       3.319   2.364  19.222  0.00  0.00    +0.000 A 
ATOM     17  C   UNL     1       2.080   1.807  18.892  0.00  0.00    +0.000 A 
ATOM     18  C   UNL     1       0.909   2.532  19.093  0.00  0.00    +0.000 A 
ATOM     19  C   UNL     1       0.970   3.813  19.634  0.00  0.00    +0.000 A 
ENDBRANCH  13  14
ENDBRANCH  12  13
ENDBRANCH   1  12
BRANCH   7  20
ATOM     20  C   UNL     1      -0.527  13.474  18.723  0.00  0.00    +0.000 C 
BRANCH  20  21
ATOM     21  C   UNL     1       0.215  14.776  18.900  0.00  0.00    +0.000 A 
ATOM     22  N   UNL     1       1.505  14.935  18.652  0.00  0.00    +0.000 NA
ATOM     23  C   UNL     1       1.866  16.246  18.892  0.00  0.00    +0.000 A 
ATOM     24  C   UNL     1       0.843  17.081  19.284  0.00  0.00    +0.000 A 
ATOM     25  S   UNL     1      -0.621  16.199  19.387  0.00  0.00    +0.000 S 
ENDBRANCH  20  21
ENDBRANCH   7  20
TORSDOF 5
ENDMDL
MODEL 8
REMARK VINA RESULT:      -5.8      5.420      7.666
REMARK  Name = 
REMARK  6 active torsions:
REMARK  status: ('A' for Active; 'I' for Inactive)
REMARK    1  A    between atoms: C_1  and  N_2
REMARK    2  A    between atoms: N_2  and  C_3
REMARK    3  A    between atoms: N_2  and  C_10
REMARK    4  A    between atoms: C_3  and  C_4
REMARK    5  A    between atoms: N_16  and  C_17
REMARK    6  A    between atoms: C_17  and  C_18
REMARK                            x       y       z     vdW  Elec       q    Type
REMARK                         _______ _______ _______ _____ _____    ______ ____
ROOT
ATOM      1  C   UNL     1       0.451  13.087  20.118  0.00  0.00    +0.000 C 
ATOM      2  C   UNL     1       0.099  14.186  19.116  0.00  0.00    +0.000 C 
ATOM      3  O   UNL     1       1.178  15.121  19.163  0.00  0.00    +0.000 OA
ATOM      4  C   UNL     1       2.390  14.392  19.432  0.00  0.00    +0.000 C 
ATOM      5  C   UNL     1       3.235  15.241  20.386  0.00  0.00    +0.000 C 
ATOM      6  C   UNL     1       3.753  16.490  19.672  0.00  0.00    +0.000 C 
ATOM      7  N   UNL     1       4.550  16.183  18.470  0.00  0.00    +0.000 NA
ATOM      8  C   UNL     1       3.703  15.439  17.519  0.00  0.00    +0.000 C 
ATOM      9  C   UNL     1       3.119  14.147  18.099  0.00  0.00    +0.000 C 
ATOM     10  C   UNL     1       1.976  13.066  20.070  0.00  0.00    +0.000 C 
ENDROOT
BRANCH   1  12
ATOM     11  C   UNL     1      -1.612  11.883  19.748  0.00  0.00    +0.000 C 
ATOM     12  N   UNL     1      -0.153  11.760  19.880  0.00  0.00    +0.000 NA
BRANCH  12  13
ATOM     13  C   UNL     1       0.429  11.124  18.680  0.00  0.00    +0.000 C 
BRANCH  13  14
ATOM     14  C   UNL     1       1.071   9.777  18.946  0.00  0.00    +0.000 A 
ATOM     15  C   UNL     1       1.743   9.088  17.926  0.00  0.00    +0.000 A 
ATOM     16  C   UNL     1       2.347   7.856  18.180  0.00  0.00    +0.000 A 
ATOM     17  C   UNL     1       2.278   7.302  19.461  0.00  0.00    +0.000 A 
ATOM     18  C   UNL     1       1.610   7.972  20.482  0.00  0.00    +0.000 A 
ATOM     19  C   UNL     1       1.016   9.205  20.228  0.00  0.00    +0.000 A 
ENDBRANCH  13  14
ENDBRANCH  12  13
ENDBRANCH   1  12
BRANCH   7  20
ATOM     20  C   UNL     1       5.799  15.443  18.757  0.00  0.00    +0.000 C 
BRANCH  20  21
ATOM     21  C   UNL     1       7.066  16.232  18.539  0.00  0.00    +0.000 A 
ATOM     22  N   UNL     1       7.163  17.542  18.703  0.00  0.00    +0.000 NA
ATOM     23  C   UNL     1       8.457  17.948  18.447  0.00  0.00    +0.000 A 
ATOM     24  C   UNL     1       9.342  16.942  18.128  0.00  0.00    +0.000 A 
ATOM     25  S   UNL     1       8.530  15.434  18.116  0.00  0.00    +0.000 S 
ENDBRANCH  20  21
ENDBRANCH   7  20
TORSDOF 5
ENDMDL
MODEL 9
REMARK VINA RESULT:      -5.8      1.824      2.601
REMARK  Name = 
REMARK  6 active torsions:
REMARK  status: ('A' for Active; 'I' for Inactive)
REMARK    1  A    between atoms: C_1  and  N_2
REMARK    2  A    between atoms: N_2  and  C_3
REMARK    3  A    between atoms: N_2  and  C_10
REMARK    4  A    between atoms: C_3  and  C_4
REMARK    5  A    between atoms: N_16  and  C_17
REMARK    6  A    between atoms: C_17  and  C_18
REMARK                            x       y       z     vdW  Elec       q    Type
REMARK                         _______ _______ _______ _____ _____    ______ ____
ROOT
ATOM      1  C   UNL     1       0.805  10.221  18.981  0.00  0.00    +0.000 C 
ATOM      2  C   UNL     1       1.374  11.603  19.295  0.00  0.00    +0.000 C 
ATOM      3  O   UNL     1       0.266  12.396  19.725  0.00  0.00    +0.000 OA
ATOM      4  C   UNL     1      -0.657  11.535  20.419  0.00  0.00    +0.000 C 
ATOM      5  C   UNL     1      -2.072  11.973  20.034  0.00  0.00    +0.000 C 
ATOM      6  C   UNL     1      -2.388  13.344  20.632  0.00  0.00    +0.000 C 
ATOM      7  N   UNL     1      -2.257  13.382  22.100  0.00  0.00    +0.000 NA
ATOM      8  C   UNL     1      -0.868  13.042  22.460  0.00  0.00    +0.000 C 
ATOM      9  C   UNL     1      -0.414  11.678  21.932  0.00  0.00    +0.000 C 
ATOM     10  C   UNL     1      -0.361  10.107  19.959  0.00  0.00    +0.000 C 
ENDROOT
BRANCH   1  12
ATOM     11  C   UNL     1       1.526   8.339  20.318  0.00  0.00    +0.000 C 
ATOM     12  N   UNL     1       1.747   9.085  19.070  0.00  0.00    +0.000 NA
BRANCH  12  13
ATOM     13  C   UNL     1       1.611   8.196  17.898  0.00  0.00    +0.000 C 
BRANCH  13  14
ATOM     14  C   UNL     1       2.626   7.071  17.856  0.00  0.00    +0.000 A 
ATOM     15  C   UNL     1       2.234   5.742  18.072  0.00  0.00    +0.000 A 
ATOM     16  C   UNL     1       3.169   4.708  18.015  0.00  0.00    +0.000 A 
ATOM     17  C   UNL     1       4.509   5.000  17.745  0.00  0.00    +0.000 A 
ATOM     18  C   UNL     1       4.913   6.315  17.534  0.00  0.00    +0.000 A 
ATOM     19  C   UNL     1       3.976   7.344  17.582  0.00  0.00    +0.000 A 
ENDBRANCH  13  14
ENDBRANCH  12  13
ENDBRANCH   1  12
BRANCH   7  20
ATOM     20  C   UNL     1      -3.217  12.502  22.805  0.00  0.00    +0.000 C 
BRANCH  20  21
ATOM     21  C   UNL     1      -4.601  13.080  22.970  0.00  0.00    +0.000 A 
ATOM     22  N   UNL     1      -5.718  12.390  22.804  0.00  0.00    +0.000 NA
ATOM     23  C   UNL     1      -6.806  13.203  23.051  0.00  0.00    +0.000 A 
ATOM     24  C   UNL     1      -6.510  14.490  23.440  0.00  0.00    +0.000 A 
ATOM     25  S   UNL     1      -4.812  14.712  23.471  0.00  0.00    +0.000 S 
ENDBRANCH  20  21
ENDBRANCH   7  20
TORSDOF 5
ENDMDL
