MODEL 1
REMARK VINA RESULT:      -7.3      0.000      0.000
REMARK  Name = 
REMARK  7 active torsions:
REMARK  status: ('A' for Active; 'I' for Inactive)
REMARK    1  A    between atoms: C_2  and  C_3
REMARK    2  A    between atoms: C_2  and  C_19
REMARK    3  A    between atoms: C_5  and  O_6
REMARK    4  A    between atoms: C_7  and  C_8
REMARK    5  A    between atoms: C_12  and  C_13
REMARK    6  A    between atoms: C_13  and  O_14
REMARK    7  A    between atoms: C_16  and  O_17
REMARK                            x       y       z     vdW  Elec       q    Type
REMARK                         _______ _______ _______ _____ _____    ______ ____
ROOT
ATOM      1  C   UNL     1       2.862   7.038  18.556  0.00  0.00    +0.000 A 
ATOM      2  C   UNL     1       2.252   7.022  19.811  0.00  0.00    +0.000 A 
ATOM      3  C   UNL     1       1.473   8.111  20.225  0.00  0.00    +0.000 A 
ATOM      4  C   UNL     1       1.287   9.265  19.424  0.00  0.00    +0.000 A 
ATOM      5  C   UNL     1       1.940   9.243  18.171  0.00  0.00    +0.000 A 
ATOM      6  C   UNL     1       2.676   8.141  17.725  0.00  0.00    +0.000 A 
ENDROOT
BRANCH   4   7
ATOM      7  C   UNL     1       0.437  10.411  19.866  0.00  0.00    +0.000 A 
ATOM      8  C   UNL     1       0.870  11.319  20.848  0.00  0.00    +0.000 A 
ATOM      9  C   UNL     1       0.061  12.371  21.287  0.00  0.00    +0.000 A 
ATOM     10  C   UNL     1      -1.188  12.581  20.712  0.00  0.00    +0.000 A 
ATOM     11  C   UNL     1      -1.648  11.726  19.710  0.00  0.00    +0.000 A 
ATOM     12  C   UNL     1      -0.847  10.633  19.325  0.00  0.00    +0.000 A 
BRANCH  11  13
ATOM     13  C   UNL     1      -2.971  11.964  19.037  0.00  0.00    +0.000 C 
BRANCH  13  14
ATOM     14  O   UNL     1      -2.789  12.020  17.628  0.00  0.00    +0.000 OA
ATOM     15  H   UNL     1      -2.233  12.799  17.447  0.00  0.00    +0.000 HD
ENDBRANCH  13  14
ENDBRANCH  11  13
ENDBRANCH   4   7
BRANCH   1  17
ATOM     16  O   UNL     1       4.784   6.095  17.641  0.00  0.00    +0.000 OA
ATOM     17  C   UNL     1       3.681   5.861  18.130  0.00  0.00    +0.000 C 
BRANCH  17  18
ATOM     18  C   UNL     1       3.130   4.526  18.302  0.00  0.00    +0.000 A 
ATOM     19  C   UNL     1       1.979   3.968  17.774  0.00  0.00    +0.000 A 
ATOM     20  C   UNL     1       1.751   2.642  18.242  0.00  0.00    +0.000 A 
ATOM     21  C   UNL     1       2.753   2.215  19.082  0.00  0.00    +0.000 A 
ATOM     22  S   UNL     1       3.969   3.399  19.285  0.00  0.00    +0.000 S 
ENDBRANCH  17  18
ENDBRANCH   1  17
BRANCH   3  23
ATOM     23  O   UNL     1       0.872   8.026  21.457  0.00  0.00    +0.000 OA
ATOM     24  H   UNL     1       1.023   8.846  21.955  0.00  0.00    +0.000 HD
ENDBRANCH   3  23
BRANCH   5  25
ATOM     25  O   UNL     1       1.949  10.299  17.295  0.00  0.00    +0.000 OA
ATOM     26  H   UNL     1       1.186  10.217  16.696  0.00  0.00    +0.000 HD
ENDBRANCH   5  25
TORSDOF 7
ENDMDL
MODEL 2
REMARK VINA RESULT:      -7.2      0.547      1.831
REMARK  Name = 
REMARK  7 active torsions:
REMARK  status: ('A' for Active; 'I' for Inactive)
REMARK    1  A    between atoms: C_2  and  C_3
REMARK    2  A    between atoms: C_2  and  C_19
REMARK    3  A    between atoms: C_5  and  O_6
REMARK    4  A    between atoms: C_7  and  C_8
REMARK    5  A    between atoms: C_12  and  C_13
REMARK    6  A    between atoms: C_13  and  O_14
REMARK    7  A    between atoms: C_16  and  O_17
REMARK                            x       y       z     vdW  Elec       q    Type
REMARK                         _______ _______ _______ _____ _____    ______ ____
ROOT
ATOM      1  C   UNL     1       3.203   6.724  18.480  0.00  0.00    +0.000 A 
ATOM      2  C   UNL     1       2.975   7.825  17.655  0.00  0.00    +0.000 A 
ATOM      3  C   UNL     1       2.145   8.867  18.090  0.00  0.00    +0.000 A 
ATOM      4  C   UNL     1       1.493   8.848  19.348  0.00  0.00    +0.000 A 
ATOM      5  C   UNL     1       1.739   7.704  20.140  0.00  0.00    +0.000 A 
ATOM      6  C   UNL     1       2.606   6.684  19.739  0.00  0.00    +0.000 A 
ENDROOT
BRANCH   4   7
ATOM      7  C   UNL     1       0.628   9.975  19.812  0.00  0.00    +0.000 A 
ATOM      8  C   UNL     1       0.997  10.794  20.893  0.00  0.00    +0.000 A 
ATOM      9  C   UNL     1       0.172  11.827  21.350  0.00  0.00    +0.000 A 
ATOM     10  C   UNL     1      -1.026  12.107  20.700  0.00  0.00    +0.000 A 
ATOM     11  C   UNL     1      -1.418  11.341  19.601  0.00  0.00    +0.000 A 
ATOM     12  C   UNL     1      -0.607  10.265  19.194  0.00  0.00    +0.000 A 
BRANCH  11  13
ATOM     13  C   UNL     1      -2.681  11.658  18.850  0.00  0.00    +0.000 C 
BRANCH  13  14
ATOM     14  O   UNL     1      -2.358  12.236  17.592  0.00  0.00    +0.000 OA
ATOM     15  H   UNL     1      -3.002  12.948  17.436  0.00  0.00    +0.000 HD
ENDBRANCH  13  14
ENDBRANCH  11  13
ENDBRANCH   4   7
BRANCH   1  17
ATOM     16  O   UNL     1       5.185   5.959  17.525  0.00  0.00    +0.000 OA
ATOM     17  C   UNL     1       4.100   5.627  18.000  0.00  0.00    +0.000 C 
BRANCH  17  18
ATOM     18  C   UNL     1       3.643   4.251  18.107  0.00  0.00    +0.000 A 
ATOM     19  C   UNL     1       2.694   3.572  17.363  0.00  0.00    +0.000 A 
ATOM     20  C   UNL     1       2.481   2.243  17.830  0.00  0.00    +0.000 A 
ATOM     21  C   UNL     1       3.301   1.935  18.891  0.00  0.00    +0.000 A 
ATOM     22  S   UNL     1       4.332   3.234  19.305  0.00  0.00    +0.000 S 
ENDBRANCH  17  18
ENDBRANCH   1  17
BRANCH   3  23
ATOM     23  O   UNL     1       1.982   9.940  17.248  0.00  0.00    +0.000 OA
ATOM     24  H   UNL     1       1.036  10.123  17.128  0.00  0.00    +0.000 HD
ENDBRANCH   3  23
BRANCH   5  25
ATOM     25  O   UNL     1       1.133   7.465  21.347  0.00  0.00    +0.000 OA
ATOM     26  H   UNL     1       1.080   8.301  21.844  0.00  0.00    +0.000 HD
ENDBRANCH   5  25
TORSDOF 7
ENDMDL
MODEL 3
REMARK VINA RESULT:      -7.2      1.507      2.364
REMARK  Name = 
REMARK  7 active torsions:
REMARK  status: ('A' for Active; 'I' for Inactive)
REMARK    1  A    between atoms: C_2  and  C_3
REMARK    2  A    between atoms: C_2  and  C_19
REMARK    3  A    between atoms: C_5  and  O_6
REMARK    4  A    between atoms: C_7  and  C_8
REMARK    5  A    between atoms: C_12  and  C_13
REMARK    6  A    between atoms: C_13  and  O_14
REMARK    7  A    between atoms: C_16  and  O_17
REMARK                            x       y       z     vdW  Elec       q    Type
REMARK                         _______ _______ _______ _____ _____    ______ ____
ROOT
ATOM      1  C   UNL     1       2.904   7.068  18.443  0.00  0.00    +0.000 A 
ATOM      2  C   UNL     1       2.290   6.998  19.693  0.00  0.00    +0.000 A 
ATOM      3  C   UNL     1       1.493   8.060  20.143  0.00  0.00    +0.000 A 
ATOM      4  C   UNL     1       1.293   9.239  19.382  0.00  0.00    +0.000 A 
ATOM      5  C   UNL     1       1.951   9.271  18.133  0.00  0.00    +0.000 A 
ATOM      6  C   UNL     1       2.705   8.197  17.650  0.00  0.00    +0.000 A 
ENDROOT
BRANCH   4   7
ATOM      7  C   UNL     1       0.425  10.356  19.861  0.00  0.00    +0.000 A 
ATOM      8  C   UNL     1       0.834  11.225  20.888  0.00  0.00    +0.000 A 
ATOM      9  C   UNL     1       0.008  12.249  21.360  0.00  0.00    +0.000 A 
ATOM     10  C   UNL     1      -1.236  12.471  20.777  0.00  0.00    +0.000 A 
ATOM     11  C   UNL     1      -1.672  11.655  19.732  0.00  0.00    +0.000 A 
ATOM     12  C   UNL     1      -0.855  10.588  19.312  0.00  0.00    +0.000 A 
BRANCH  11  13
ATOM     13  C   UNL     1      -2.988  11.908  19.051  0.00  0.00    +0.000 C 
BRANCH  13  14
ATOM     14  O   UNL     1      -2.778  12.099  17.658  0.00  0.00    +0.000 OA
ATOM     15  H   UNL     1      -3.089  12.997  17.448  0.00  0.00    +0.000 HD
ENDBRANCH  13  14
ENDBRANCH  11  13
ENDBRANCH   4   7
BRANCH   1  17
ATOM     16  O   UNL     1       3.150   4.898  17.634  0.00  0.00    +0.000 OA
ATOM     17  C   UNL     1       3.742   5.919  17.977  0.00  0.00    +0.000 C 
BRANCH  17  18
ATOM     18  C   UNL     1       5.189   6.065  17.970  0.00  0.00    +0.000 A 
ATOM     19  C   UNL     1       5.997   6.833  17.150  0.00  0.00    +0.000 A 
ATOM     20  C   UNL     1       7.383   6.647  17.420  0.00  0.00    +0.000 A 
ATOM     21  C   UNL     1       7.590   5.773  18.461  0.00  0.00    +0.000 A 
ATOM     22  S   UNL     1       6.120   5.200  19.120  0.00  0.00    +0.000 S 
ENDBRANCH  17  18
ENDBRANCH   1  17
BRANCH   3  23
ATOM     23  O   UNL     1       0.888   7.922  21.368  0.00  0.00    +0.000 OA
ATOM     24  H   UNL     1       1.174   8.638  21.959  0.00  0.00    +0.000 HD
ENDBRANCH   3  23
BRANCH   5  25
ATOM     25  O   UNL     1       1.948  10.358  17.295  0.00  0.00    +0.000 OA
ATOM     26  H   UNL     1       1.161  10.312  16.723  0.00  0.00    +0.000 HD
ENDBRANCH   5  25
TORSDOF 7
ENDMDL
MODEL 4
REMARK VINA RESULT:      -7.2      2.802      7.936
REMARK  Name = 
REMARK  7 active torsions:
REMARK  status: ('A' for Active; 'I' for Inactive)
REMARK    1  A    between atoms: C_2  and  C_3
REMARK    2  A    between atoms: C_2  and  C_19
REMARK    3  A    between atoms: C_5  and  O_6
REMARK    4  A    between atoms: C_7  and  C_8
REMARK    5  A    between atoms: C_12  and  C_13
REMARK    6  A    between atoms: C_13  and  O_14
REMARK    7  A    between atoms: C_16  and  O_17
REMARK                            x       y       z     vdW  Elec       q    Type
REMARK                         _______ _______ _______ _____ _____    ______ ____
ROOT
ATOM      1  C   UNL     1       1.157   9.140  20.385  0.00  0.00    +0.000 A 
ATOM      2  C   UNL     1       1.588   9.281  19.066  0.00  0.00    +0.000 A 
ATOM      3  C   UNL     1       2.192   8.201  18.407  0.00  0.00    +0.000 A 
ATOM      4  C   UNL     1       2.410   6.950  19.036  0.00  0.00    +0.000 A 
ATOM      5  C   UNL     1       1.975   6.862  20.376  0.00  0.00    +0.000 A 
ATOM      6  C   UNL     1       1.324   7.914  21.027  0.00  0.00    +0.000 A 
ENDROOT
BRANCH   4   7
ATOM      7  C   UNL     1       3.035   5.798  18.317  0.00  0.00    +0.000 A 
ATOM      8  C   UNL     1       2.267   4.724  17.832  0.00  0.00    +0.000 A 
ATOM      9  C   UNL     1       2.854   3.630  17.190  0.00  0.00    +0.000 A 
ATOM     10  C   UNL     1       4.227   3.604  16.964  0.00  0.00    +0.000 A 
ATOM     11  C   UNL     1       5.025   4.662  17.398  0.00  0.00    +0.000 A 
ATOM     12  C   UNL     1       4.427   5.727  18.099  0.00  0.00    +0.000 A 
BRANCH  11  13
ATOM     13  C   UNL     1       6.503   4.682  17.118  0.00  0.00    +0.000 C 
BRANCH  13  14
ATOM     14  O   UNL     1       7.212   4.196  18.250  0.00  0.00    +0.000 OA
ATOM     15  H   UNL     1       7.882   3.575  17.917  0.00  0.00    +0.000 HD
ENDBRANCH  13  14
ENDBRANCH  11  13
ENDBRANCH   4   7
BRANCH   1  17
ATOM     16  O   UNL     1       0.538  10.320  22.295  0.00  0.00    +0.000 OA
ATOM     17  C   UNL     1       0.506  10.302  21.066  0.00  0.00    +0.000 C 
BRANCH  17  18
ATOM     18  C   UNL     1      -0.131  11.325  20.251  0.00  0.00    +0.000 A 
ATOM     19  C   UNL     1      -1.367  11.320  19.629  0.00  0.00    +0.000 A 
ATOM     20  C   UNL     1      -1.596  12.496  18.859  0.00  0.00    +0.000 A 
ATOM     21  C   UNL     1      -0.544  13.379  18.946  0.00  0.00    +0.000 A 
ATOM     22  S   UNL     1       0.698  12.800  19.968  0.00  0.00    +0.000 S 
ENDBRANCH  17  18
ENDBRANCH   1  17
BRANCH   3  23
ATOM     23  O   UNL     1       2.568   8.389  17.099  0.00  0.00    +0.000 OA
ATOM     24  H   UNL     1       2.498   7.550  16.614  0.00  0.00    +0.000 HD
ENDBRANCH   3  23
BRANCH   5  25
ATOM     25  O   UNL     1       2.175   5.764  21.175  0.00  0.00    +0.000 OA
ATOM     26  H   UNL     1       2.774   5.147  20.718  0.00  0.00    +0.000 HD
ENDBRANCH   5  25
TORSDOF 7
ENDMDL
MODEL 5
REMARK VINA RESULT:      -7.1      0.923      1.961
REMARK  Name = 
REMARK  7 active torsions:
REMARK  status: ('A' for Active; 'I' for Inactive)
REMARK    1  A    between atoms: C_2  and  C_3
REMARK    2  A    between atoms: C_2  and  C_19
REMARK    3  A    between atoms: C_5  and  O_6
REMARK    4  A    between atoms: C_7  and  C_8
REMARK    5  A    between atoms: C_12  and  C_13
REMARK    6  A    between atoms: C_13  and  O_14
REMARK    7  A    between atoms: C_16  and  O_17
REMARK                            x       y       z     vdW  Elec       q    Type
REMARK                         _______ _______ _______ _____ _____    ______ ____
ROOT
ATOM      1  C   UNL     1       2.602   6.861  19.394  0.00  0.00    +0.000 A 
ATOM      2  C   UNL     1       2.558   7.722  18.298  0.00  0.00    +0.000 A 
ATOM      3  C   UNL     1       1.821   8.912  18.370  0.00  0.00    +0.000 A 
ATOM      4  C   UNL     1       1.082   9.283  19.522  0.00  0.00    +0.000 A 
ATOM      5  C   UNL     1       1.141   8.370  20.598  0.00  0.00    +0.000 A 
ATOM      6  C   UNL     1       1.915   7.207  20.557  0.00  0.00    +0.000 A 
ENDROOT
BRANCH   4   7
ATOM      7  C   UNL     1       0.318  10.564  19.597  0.00  0.00    +0.000 A 
ATOM      8  C   UNL     1       0.913  11.757  20.044  0.00  0.00    +0.000 A 
ATOM      9  C   UNL     1       0.190  12.949  20.147  0.00  0.00    +0.000 A 
ATOM     10  C   UNL     1      -1.144  12.995  19.751  0.00  0.00    +0.000 A 
ATOM     11  C   UNL     1      -1.769  11.844  19.270  0.00  0.00    +0.000 A 
ATOM     12  C   UNL     1      -1.044  10.638  19.232  0.00  0.00    +0.000 A 
BRANCH  11  13
ATOM     13  C   UNL     1      -3.192  11.883  18.786  0.00  0.00    +0.000 C 
BRANCH  13  14
ATOM     14  O   UNL     1      -3.213  11.966  17.367  0.00  0.00    +0.000 OA
ATOM     15  H   UNL     1      -2.524  11.363  17.040  0.00  0.00    +0.000 HD
ENDBRANCH  13  14
ENDBRANCH  11  13
ENDBRANCH   4   7
BRANCH   1  17
ATOM     16  O   UNL     1       4.594   5.672  19.593  0.00  0.00    +0.000 OA
ATOM     17  C   UNL     1       3.403   5.601  19.299  0.00  0.00    +0.000 C 
BRANCH  17  18
ATOM     18  C   UNL     1       2.742   4.383  18.858  0.00  0.00    +0.000 A 
ATOM     19  C   UNL     1       1.471   3.913  19.139  0.00  0.00    +0.000 A 
ATOM     20  C   UNL     1       1.223   2.633  18.566  0.00  0.00    +0.000 A 
ATOM     21  C   UNL     1       2.297   2.181  17.834  0.00  0.00    +0.000 A 
ATOM     22  S   UNL     1       3.584   3.305  17.823  0.00  0.00    +0.000 S 
ENDBRANCH  17  18
ENDBRANCH   1  17
BRANCH   3  23
ATOM     23  O   UNL     1       1.840   9.736  17.271  0.00  0.00    +0.000 OA
ATOM     24  H   UNL     1       2.670   9.612  16.782  0.00  0.00    +0.000 HD
ENDBRANCH   3  23
BRANCH   5  25
ATOM     25  O   UNL     1       0.427   8.512  21.761  0.00  0.00    +0.000 OA
ATOM     26  H   UNL     1       0.405   9.454  22.005  0.00  0.00    +0.000 HD
ENDBRANCH   5  25
TORSDOF 7
ENDMDL
MODEL 6
REMARK VINA RESULT:      -7.1      2.849      7.756
REMARK  Name = 
REMARK  7 active torsions:
REMARK  status: ('A' for Active; 'I' for Inactive)
REMARK    1  A    between atoms: C_2  and  C_3
REMARK    2  A    between atoms: C_2  and  C_19
REMARK    3  A    between atoms: C_5  and  O_6
REMARK    4  A    between atoms: C_7  and  C_8
REMARK    5  A    between atoms: C_12  and  C_13
REMARK    6  A    between atoms: C_13  and  O_14
REMARK    7  A    between atoms: C_16  and  O_17
REMARK                            x       y       z     vdW  Elec       q    Type
REMARK                         _______ _______ _______ _____ _____    ______ ____
ROOT
ATOM      1  C   UNL     1       1.094   9.245  20.487  0.00  0.00    +0.000 A 
ATOM      2  C   UNL     1       1.312   8.026  21.128  0.00  0.00    +0.000 A 
ATOM      3  C   UNL     1       1.924   6.971  20.436  0.00  0.00    +0.000 A 
ATOM      4  C   UNL     1       2.321   7.077  19.080  0.00  0.00    +0.000 A 
ATOM      5  C   UNL     1       2.061   8.324  18.469  0.00  0.00    +0.000 A 
ATOM      6  C   UNL     1       1.501   9.400  19.163  0.00  0.00    +0.000 A 
ENDROOT
BRANCH   4   7
ATOM      7  C   UNL     1       2.993   5.954  18.358  0.00  0.00    +0.000 A 
ATOM      8  C   UNL     1       2.269   4.859  17.856  0.00  0.00    +0.000 A 
ATOM      9  C   UNL     1       2.900   3.791  17.211  0.00  0.00    +0.000 A 
ATOM     10  C   UNL     1       4.275   3.815  16.998  0.00  0.00    +0.000 A 
ATOM     11  C   UNL     1       5.031   4.898  17.449  0.00  0.00    +0.000 A 
ATOM     12  C   UNL     1       4.389   5.934  18.153  0.00  0.00    +0.000 A 
BRANCH  11  13
ATOM     13  C   UNL     1       6.509   4.972  17.183  0.00  0.00    +0.000 C 
BRANCH  13  14
ATOM     14  O   UNL     1       7.207   4.173  18.129  0.00  0.00    +0.000 OA
ATOM     15  H   UNL     1       7.351   3.305  17.713  0.00  0.00    +0.000 HD
ENDBRANCH  13  14
ENDBRANCH  11  13
ENDBRANCH   4   7
BRANCH   1  17
ATOM     16  O   UNL     1       0.477  10.292  22.474  0.00  0.00    +0.000 OA
ATOM     17  C   UNL     1       0.449  10.361  21.247  0.00  0.00    +0.000 C 
BRANCH  17  18
ATOM     18  C   UNL     1      -0.178  11.443  20.504  0.00  0.00    +0.000 A 
ATOM     19  C   UNL     1      -1.388  11.472  19.833  0.00  0.00    +0.000 A 
ATOM     20  C   UNL     1      -1.614  12.711  19.166  0.00  0.00    +0.000 A 
ATOM     21  C   UNL     1      -0.588  13.602  19.380  0.00  0.00    +0.000 A 
ATOM     22  S   UNL     1       0.625  12.954  20.395  0.00  0.00    +0.000 S 
ENDBRANCH  17  18
ENDBRANCH   1  17
BRANCH   3  23
ATOM     23  O   UNL     1       2.142   5.804  21.127  0.00  0.00    +0.000 OA
ATOM     24  H   UNL     1       2.020   5.957  22.078  0.00  0.00    +0.000 HD
ENDBRANCH   3  23
BRANCH   5  25
ATOM     25  O   UNL     1       2.296   8.590  17.143  0.00  0.00    +0.000 OA
ATOM     26  H   UNL     1       3.066   9.181  17.071  0.00  0.00    +0.000 HD
ENDBRANCH   5  25
TORSDOF 7
ENDMDL
MODEL 7
REMARK VINA RESULT:      -6.9      1.438      2.754
REMARK  Name = 
REMARK  7 active torsions:
REMARK  status: ('A' for Active; 'I' for Inactive)
REMARK    1  A    between atoms: C_2  and  C_3
REMARK    2  A    between atoms: C_2  and  C_19
REMARK    3  A    between atoms: C_5  and  O_6
REMARK    4  A    between atoms: C_7  and  C_8
REMARK    5  A    between atoms: C_12  and  C_13
REMARK    6  A    between atoms: C_13  and  O_14
REMARK    7  A    between atoms: C_16  and  O_17
REMARK                            x       y       z     vdW  Elec       q    Type
REMARK                         _______ _______ _______ _____ _____    ______ ____
ROOT
ATOM      1  C   UNL     1       2.536   6.968  19.257  0.00  0.00    +0.000 A 
ATOM      2  C   UNL     1       2.487   7.901  18.221  0.00  0.00    +0.000 A 
ATOM      3  C   UNL     1       1.781   9.099  18.392  0.00  0.00    +0.000 A 
ATOM      4  C   UNL     1       1.081   9.409  19.585  0.00  0.00    +0.000 A 
ATOM      5  C   UNL     1       1.144   8.425  20.596  0.00  0.00    +0.000 A 
ATOM      6  C   UNL     1       1.888   7.250  20.457  0.00  0.00    +0.000 A 
ENDROOT
BRANCH   4   7
ATOM      7  C   UNL     1       0.350  10.700  19.765  0.00  0.00    +0.000 A 
ATOM      8  C   UNL     1      -0.939  10.901  19.240  0.00  0.00    +0.000 A 
ATOM      9  C   UNL     1      -1.610  12.119  19.379  0.00  0.00    +0.000 A 
ATOM     10  C   UNL     1      -1.031  13.159  20.099  0.00  0.00    +0.000 A 
ATOM     11  C   UNL     1       0.233  12.995  20.667  0.00  0.00    +0.000 A 
ATOM     12  C   UNL     1       0.921  11.784  20.464  0.00  0.00    +0.000 A 
BRANCH  11  13
ATOM     13  C   UNL     1       0.855  14.085  21.495  0.00  0.00    +0.000 C 
BRANCH  13  14
ATOM     14  O   UNL     1       2.246  13.835  21.650  0.00  0.00    +0.000 OA
ATOM     15  H   UNL     1       2.341  13.233  22.408  0.00  0.00    +0.000 HD
ENDBRANCH  13  14
ENDBRANCH  11  13
ENDBRANCH   4   7
BRANCH   1  17
ATOM     16  O   UNL     1       4.520   5.798  18.908  0.00  0.00    +0.000 OA
ATOM     17  C   UNL     1       3.304   5.699  19.057  0.00  0.00    +0.000 C 
BRANCH  17  18
ATOM     18  C   UNL     1       2.579   4.438  19.037  0.00  0.00    +0.000 A 
ATOM     19  C   UNL     1       1.513   4.041  18.249  0.00  0.00    +0.000 A 
ATOM     20  C   UNL     1       1.038   2.742  18.586  0.00  0.00    +0.000 A 
ATOM     21  C   UNL     1       1.779   2.170  19.594  0.00  0.00    +0.000 A 
ATOM     22  S   UNL     1       3.050   3.188  20.113  0.00  0.00    +0.000 S 
ENDBRANCH  17  18
ENDBRANCH   1  17
BRANCH   3  23
ATOM     23  O   UNL     1       1.793   9.995  17.350  0.00  0.00    +0.000 OA
ATOM     24  H   UNL     1       2.262   9.610  16.591  0.00  0.00    +0.000 HD
ENDBRANCH   3  23
BRANCH   5  25
ATOM     25  O   UNL     1       0.463   8.505  21.785  0.00  0.00    +0.000 OA
ATOM     26  H   UNL     1      -0.032   7.677  21.921  0.00  0.00    +0.000 HD
ENDBRANCH   5  25
TORSDOF 7
ENDMDL
MODEL 8
REMARK VINA RESULT:      -6.9      1.294      1.410
REMARK  Name = 
REMARK  7 active torsions:
REMARK  status: ('A' for Active; 'I' for Inactive)
REMARK    1  A    between atoms: C_2  and  C_3
REMARK    2  A    between atoms: C_2  and  C_19
REMARK    3  A    between atoms: C_5  and  O_6
REMARK    4  A    between atoms: C_7  and  C_8
REMARK    5  A    between atoms: C_12  and  C_13
REMARK    6  A    between atoms: C_13  and  O_14
REMARK    7  A    between atoms: C_16  and  O_17
REMARK                            x       y       z     vdW  Elec       q    Type
REMARK                         _______ _______ _______ _____ _____    ______ ____
ROOT
ATOM      1  C   UNL     1       2.350   7.068  19.542  0.00  0.00    +0.000 A 
ATOM      2  C   UNL     1       1.696   7.468  20.707  0.00  0.00    +0.000 A 
ATOM      3  C   UNL     1       1.019   8.695  20.744  0.00  0.00    +0.000 A 
ATOM      4  C   UNL     1       0.983   9.580  19.637  0.00  0.00    +0.000 A 
ATOM      5  C   UNL     1       1.676   9.140  18.488  0.00  0.00    +0.000 A 
ATOM      6  C   UNL     1       2.310   7.896  18.422  0.00  0.00    +0.000 A 
ENDROOT
BRANCH   4   7
ATOM      7  C   UNL     1       0.239  10.875  19.679  0.00  0.00    +0.000 A 
ATOM      8  C   UNL     1       0.886  12.092  19.956  0.00  0.00    +0.000 A 
ATOM      9  C   UNL     1       0.186  13.300  20.030  0.00  0.00    +0.000 A 
ATOM     10  C   UNL     1      -1.180  13.334  19.771  0.00  0.00    +0.000 A 
ATOM     11  C   UNL     1      -1.861  12.156  19.458  0.00  0.00    +0.000 A 
ATOM     12  C   UNL     1      -1.152  10.939  19.451  0.00  0.00    +0.000 A 
BRANCH  11  13
ATOM     13  C   UNL     1      -3.326  12.176  19.122  0.00  0.00    +0.000 C 
BRANCH  13  14
ATOM     14  O   UNL     1      -3.628  11.108  18.234  0.00  0.00    +0.000 OA
ATOM     15  H   UNL     1      -4.568  10.892  18.363  0.00  0.00    +0.000 HD
ENDBRANCH  13  14
ENDBRANCH  11  13
ENDBRANCH   4   7
BRANCH   1  17
ATOM     16  O   UNL     1       4.286   5.776  19.452  0.00  0.00    +0.000 OA
ATOM     17  C   UNL     1       3.059   5.750  19.522  0.00  0.00    +0.000 C 
BRANCH  17  18
ATOM     18  C   UNL     1       2.269   4.530  19.571  0.00  0.00    +0.000 A 
ATOM     19  C   UNL     1       1.906   3.753  20.658  0.00  0.00    +0.000 A 
ATOM     20  C   UNL     1       1.181   2.587  20.278  0.00  0.00    +0.000 A 
ATOM     21  C   UNL     1       0.979   2.529  18.918  0.00  0.00    +0.000 A 
ATOM     22  S   UNL     1       1.642   3.883  18.112  0.00  0.00    +0.000 S 
ENDBRANCH  17  18
ENDBRANCH   1  17
BRANCH   3  23
ATOM     23  O   UNL     1       0.366   9.023  21.907  0.00  0.00    +0.000 OA
ATOM     24  H   UNL     1       0.299   9.989  21.986  0.00  0.00    +0.000 HD
ENDBRANCH   3  23
BRANCH   5  25
ATOM     25  O   UNL     1       1.826   9.892  17.351  0.00  0.00    +0.000 OA
ATOM     26  H   UNL     1       2.775  10.055  17.204  0.00  0.00    +0.000 HD
ENDBRANCH   5  25
TORSDOF 7
ENDMDL
MODEL 9
REMARK VINA RESULT:      -6.9      1.757      2.393
REMARK  Name = 
REMARK  7 active torsions:
REMARK  status: ('A' for Active; 'I' for Inactive)
REMARK    1  A    between atoms: C_2  and  C_3
REMARK    2  A    between atoms: C_2  and  C_19
REMARK    3  A    between atoms: C_5  and  O_6
REMARK    4  A    between atoms: C_7  and  C_8
REMARK    5  A    between atoms: C_12  and  C_13
REMARK    6  A    between atoms: C_13  and  O_14
REMARK    7  A    between atoms: C_16  and  O_17
REMARK                            x       y       z     vdW  Elec       q    Type
REMARK                         _______ _______ _______ _____ _____    ______ ____
ROOT
ATOM      1  C   UNL     1       2.336   7.059  19.485  0.00  0.00    +0.000 A 
ATOM      2  C   UNL     1       1.700   7.425  20.671  0.00  0.00    +0.000 A 
ATOM      3  C   UNL     1       1.035   8.656  20.757  0.00  0.00    +0.000 A 
ATOM      4  C   UNL     1       0.994   9.578  19.682  0.00  0.00    +0.000 A 
ATOM      5  C   UNL     1       1.669   9.171  18.510  0.00  0.00    +0.000 A 
ATOM      6  C   UNL     1       2.290   7.924  18.393  0.00  0.00    +0.000 A 
ENDROOT
BRANCH   4   7
ATOM      7  C   UNL     1       0.264  10.879  19.777  0.00  0.00    +0.000 A 
ATOM      8  C   UNL     1      -1.005  11.059  19.201  0.00  0.00    +0.000 A 
ATOM      9  C   UNL     1      -1.674  12.285  19.259  0.00  0.00    +0.000 A 
ATOM     10  C   UNL     1      -1.114  13.356  19.948  0.00  0.00    +0.000 A 
ATOM     11  C   UNL     1       0.130  13.215  20.564  0.00  0.00    +0.000 A 
ATOM     12  C   UNL     1       0.819  11.994  20.441  0.00  0.00    +0.000 A 
BRANCH  11  13
ATOM     13  C   UNL     1       0.731  14.341  21.359  0.00  0.00    +0.000 C 
BRANCH  13  14
ATOM     14  O   UNL     1       2.076  14.026  21.696  0.00  0.00    +0.000 OA
ATOM     15  H   UNL     1       2.589  14.847  21.600  0.00  0.00    +0.000 HD
ENDBRANCH  13  14
ENDBRANCH  11  13
ENDBRANCH   4   7
BRANCH   1  17
ATOM     16  O   UNL     1       4.254   5.752  19.290  0.00  0.00    +0.000 OA
ATOM     17  C   UNL     1       3.031   5.735  19.410  0.00  0.00    +0.000 C 
BRANCH  17  18
ATOM     18  C   UNL     1       2.232   4.521  19.471  0.00  0.00    +0.000 A 
ATOM     19  C   UNL     1       1.847   3.767  20.566  0.00  0.00    +0.000 A 
ATOM     20  C   UNL     1       1.121   2.599  20.197  0.00  0.00    +0.000 A 
ATOM     21  C   UNL     1       0.941   2.516  18.835  0.00  0.00    +0.000 A 
ATOM     22  S   UNL     1       1.625   3.850  18.014  0.00  0.00    +0.000 S 
ENDBRANCH  17  18
ENDBRANCH   1  17
BRANCH   3  23
ATOM     23  O   UNL     1       0.400   8.951  21.939  0.00  0.00    +0.000 OA
ATOM     24  H   UNL     1      -0.039   8.155  22.283  0.00  0.00    +0.000 HD
ENDBRANCH   3  23
BRANCH   5  25
ATOM     25  O   UNL     1       1.813   9.960  17.396  0.00  0.00    +0.000 OA
ATOM     26  H   UNL     1       2.603   9.673  16.906  0.00  0.00    +0.000 HD
ENDBRANCH   5  25
TORSDOF 7
ENDMDL
