MODEL 1
REMARK VINA RESULT:      -8.0      0.000      0.000
REMARK  Name = 
REMARK  11 active torsions:
REMARK  status: ('A' for Active; 'I' for Inactive)
REMARK    1  A    between atoms: O_1  and  C_2
REMARK    2  A    between atoms: C_2  and  C_3
REMARK    3  A    between atoms: C_3  and  C_4
REMARK    4  A    between atoms: C_4  and  C_5
REMARK    5  A    between atoms: C_5  and  C_6
REMARK    6  A    between atoms: N_8  and  C_9
REMARK    7  A    between atoms: C_9  and  C_10
REMARK    8  A    between atoms: C_9  and  C_24
REMARK    9  A    between atoms: C_13  and  O_14
REMARK   10  A    between atoms: O_14  and  C_15
REMARK   11  A    between atoms: C_15  and  C_16
REMARK                            x       y       z     vdW  Elec       q    Type
REMARK                         _______ _______ _______ _____ _____    ______ ____
ROOT
ATOM      1  C   UNL     1       3.029   4.756  19.056  0.00  0.00    +0.000 C 
ENDROOT
BRANCH   1   2
ATOM      2  C   UNL     1       2.607   6.223  19.037  0.00  0.00    +0.000 A 
ATOM      3  C   UNL     1       2.728   6.995  17.869  0.00  0.00    +0.000 A 
ATOM      4  C   UNL     1       2.284   8.312  17.830  0.00  0.00    +0.000 A 
ATOM      5  C   UNL     1       1.675   8.878  18.948  0.00  0.00    +0.000 A 
ATOM      6  C   UNL     1       1.596   8.145  20.132  0.00  0.00    +0.000 A 
ATOM      7  C   UNL     1       2.051   6.823  20.179  0.00  0.00    +0.000 A 
BRANCH   5   8
ATOM      8  O   UNL     1       1.126  10.133  18.976  0.00  0.00    +0.000 OA
BRANCH   8   9
ATOM      9  C   UNL     1      -0.116  10.222  19.680  0.00  0.00    +0.000 C 
BRANCH   9  10
ATOM     10  C   UNL     1      -1.230  10.495  18.707  0.00  0.00    +0.000 A 
ATOM     11  C   UNL     1      -2.213  11.446  18.996  0.00  0.00    +0.000 A 
ATOM     12  C   UNL     1      -3.238  11.703  18.083  0.00  0.00    +0.000 A 
ATOM     13  C   UNL     1      -3.284  11.009  16.874  0.00  0.00    +0.000 A 
ATOM     14  C   UNL     1      -2.311  10.058  16.576  0.00  0.00    +0.000 A 
ATOM     15  C   UNL     1      -1.288   9.801  17.488  0.00  0.00    +0.000 A 
ENDBRANCH   9  10
ENDBRANCH   8   9
ENDBRANCH   5   8
ENDBRANCH   1   2
BRANCH   1  18
ATOM     16  C   UNL     1       5.787   4.373  16.769  0.00  0.00    +0.000 A 
ATOM     17  C   UNL     1       4.454   4.131  17.019  0.00  0.00    +0.000 A 
ATOM     18  N   UNL     1       4.271   4.572  18.299  0.00  0.00    +0.000 N 
ATOM     19  N   UNL     1       5.443   4.964  18.841  0.00  0.00    +0.000 NA
ATOM     20  N   UNL     1       6.376   4.853  17.907  0.00  0.00    +0.000 NA
BRANCH  16  21
ATOM     21  C   UNL     1       6.562   4.233  15.512  0.00  0.00    +0.000 C 
BRANCH  21  22
ATOM     22  C   UNL     1       5.685   4.318  14.257  0.00  0.00    +0.000 C 
BRANCH  22  23
ATOM     23  C   UNL     1       6.382   3.777  13.000  0.00  0.00    +0.000 C 
BRANCH  23  24
ATOM     24  C   UNL     1       5.402   3.133  12.026  0.00  0.00    +0.000 C 
BRANCH  24  25
ATOM     25  O   UNL     1       5.817   1.810  11.722  0.00  0.00    +0.000 OA
ATOM     26  H   UNL     1       6.122   1.410  12.555  0.00  0.00    +0.000 HD
ENDBRANCH  24  25
ENDBRANCH  23  24
ENDBRANCH  22  23
ENDBRANCH  21  22
ENDBRANCH  16  21
ENDBRANCH   1  18
BRANCH   1  27
ATOM     27  C   UNL     1       1.872   3.897  18.571  0.00  0.00    +0.000 C 
ATOM     28  C   UNL     1       1.821   2.401  18.766  0.00  0.00    +0.000 C 
ATOM     29  C   UNL     1       0.934   3.290  19.590  0.00  0.00    +0.000 C 
ENDBRANCH   1  27
TORSDOF 11
ENDMDL
MODEL 2
REMARK VINA RESULT:      -7.8      1.105      1.806
REMARK  Name = 
REMARK  11 active torsions:
REMARK  status: ('A' for Active; 'I' for Inactive)
REMARK    1  A    between atoms: O_1  and  C_2
REMARK    2  A    between atoms: C_2  and  C_3
REMARK    3  A    between atoms: C_3  and  C_4
REMARK    4  A    between atoms: C_4  and  C_5
REMARK    5  A    between atoms: C_5  and  C_6
REMARK    6  A    between atoms: N_8  and  C_9
REMARK    7  A    between atoms: C_9  and  C_10
REMARK    8  A    between atoms: C_9  and  C_24
REMARK    9  A    between atoms: C_13  and  O_14
REMARK   10  A    between atoms: O_14  and  C_15
REMARK   11  A    between atoms: C_15  and  C_16
REMARK                            x       y       z     vdW  Elec       q    Type
REMARK                         _______ _______ _______ _____ _____    ______ ____
ROOT
ATOM      1  C   UNL     1       4.572   4.614  19.115  0.00  0.00    +0.000 C 
ENDROOT
BRANCH   1   2
ATOM      2  C   UNL     1       3.716   5.857  18.883  0.00  0.00    +0.000 A 
ATOM      3  C   UNL     1       2.769   6.270  19.836  0.00  0.00    +0.000 A 
ATOM      4  C   UNL     1       2.034   7.437  19.659  0.00  0.00    +0.000 A 
ATOM      5  C   UNL     1       2.253   8.238  18.540  0.00  0.00    +0.000 A 
ATOM      6  C   UNL     1       3.149   7.815  17.557  0.00  0.00    +0.000 A 
ATOM      7  C   UNL     1       3.883   6.637  17.728  0.00  0.00    +0.000 A 
BRANCH   5   8
ATOM      8  O   UNL     1       1.646   9.447  18.325  0.00  0.00    +0.000 OA
BRANCH   8   9
ATOM      9  C   UNL     1       0.790   9.879  19.385  0.00  0.00    +0.000 C 
BRANCH   9  10
ATOM     10  C   UNL     1      -0.521  10.348  18.817  0.00  0.00    +0.000 A 
ATOM     11  C   UNL     1      -1.015   9.809  17.625  0.00  0.00    +0.000 A 
ATOM     12  C   UNL     1      -2.239  10.240  17.108  0.00  0.00    +0.000 A 
ATOM     13  C   UNL     1      -2.976  11.214  17.783  0.00  0.00    +0.000 A 
ATOM     14  C   UNL     1      -2.492  11.759  18.970  0.00  0.00    +0.000 A 
ATOM     15  C   UNL     1      -1.270  11.329  19.486  0.00  0.00    +0.000 A 
ENDBRANCH   9  10
ENDBRANCH   8   9
ENDBRANCH   5   8
ENDBRANCH   1   2
BRANCH   1  18
ATOM     16  C   UNL     1       6.550   4.378  16.112  0.00  0.00    +0.000 A 
ATOM     17  C   UNL     1       5.304   4.245  16.686  0.00  0.00    +0.000 A 
ATOM     18  N   UNL     1       5.530   4.442  18.019  0.00  0.00    +0.000 N 
ATOM     19  N   UNL     1       6.850   4.583  18.264  0.00  0.00    +0.000 NA
ATOM     20  N   UNL     1       7.482   4.552  17.100  0.00  0.00    +0.000 NA
BRANCH  16  21
ATOM     21  C   UNL     1       6.944   4.402  14.682  0.00  0.00    +0.000 C 
BRANCH  21  22
ATOM     22  C   UNL     1       5.817   3.953  13.745  0.00  0.00    +0.000 C 
BRANCH  22  23
ATOM     23  C   UNL     1       6.320   3.543  12.353  0.00  0.00    +0.000 C 
BRANCH  23  24
ATOM     24  C   UNL     1       5.371   2.577  11.656  0.00  0.00    +0.000 C 
BRANCH  24  25
ATOM     25  O   UNL     1       5.977   1.299  11.537  0.00  0.00    +0.000 OA
ATOM     26  H   UNL     1       5.466   0.803  10.874  0.00  0.00    +0.000 HD
ENDBRANCH  24  25
ENDBRANCH  23  24
ENDBRANCH  22  23
ENDBRANCH  21  22
ENDBRANCH  16  21
ENDBRANCH   1  18
BRANCH   1  27
ATOM     27  C   UNL     1       3.662   3.416  19.338  0.00  0.00    +0.000 C 
ATOM     28  C   UNL     1       4.016   2.020  18.888  0.00  0.00    +0.000 C 
ATOM     29  C   UNL     1       4.069   2.366  20.349  0.00  0.00    +0.000 C 
ENDBRANCH   1  27
TORSDOF 11
ENDMDL
MODEL 3
REMARK VINA RESULT:      -7.7      0.802      1.574
REMARK  Name = 
REMARK  11 active torsions:
REMARK  status: ('A' for Active; 'I' for Inactive)
REMARK    1  A    between atoms: O_1  and  C_2
REMARK    2  A    between atoms: C_2  and  C_3
REMARK    3  A    between atoms: C_3  and  C_4
REMARK    4  A    between atoms: C_4  and  C_5
REMARK    5  A    between atoms: C_5  and  C_6
REMARK    6  A    between atoms: N_8  and  C_9
REMARK    7  A    between atoms: C_9  and  C_10
REMARK    8  A    between atoms: C_9  and  C_24
REMARK    9  A    between atoms: C_13  and  O_14
REMARK   10  A    between atoms: O_14  and  C_15
REMARK   11  A    between atoms: C_15  and  C_16
REMARK                            x       y       z     vdW  Elec       q    Type
REMARK                         _______ _______ _______ _____ _____    ______ ____
ROOT
ATOM      1  C   UNL     1       3.009   5.422  19.698  0.00  0.00    +0.000 C 
ENDROOT
BRANCH   1   2
ATOM      2  C   UNL     1       2.366   6.780  19.428  0.00  0.00    +0.000 A 
ATOM      3  C   UNL     1       1.734   7.498  20.457  0.00  0.00    +0.000 A 
ATOM      4  C   UNL     1       1.205   8.764  20.230  0.00  0.00    +0.000 A 
ATOM      5  C   UNL     1       1.325   9.356  18.975  0.00  0.00    +0.000 A 
ATOM      6  C   UNL     1       1.900   8.636  17.927  0.00  0.00    +0.000 A 
ATOM      7  C   UNL     1       2.425   7.359  18.150  0.00  0.00    +0.000 A 
BRANCH   5   8
ATOM      8  O   UNL     1       0.919  10.631  18.680  0.00  0.00    +0.000 OA
BRANCH   8   9
ATOM      9  C   UNL     1      -0.255  11.056  19.377  0.00  0.00    +0.000 C 
BRANCH   9  10
ATOM     10  C   UNL     1      -1.454  10.919  18.479  0.00  0.00    +0.000 A 
ATOM     11  C   UNL     1      -1.438  10.030  17.400  0.00  0.00    +0.000 A 
ATOM     12  C   UNL     1      -2.558   9.898  16.576  0.00  0.00    +0.000 A 
ATOM     13  C   UNL     1      -3.702  10.657  16.829  0.00  0.00    +0.000 A 
ATOM     14  C   UNL     1      -3.728  11.547  17.901  0.00  0.00    +0.000 A 
ATOM     15  C   UNL     1      -2.609  11.678  18.722  0.00  0.00    +0.000 A 
ENDBRANCH   9  10
ENDBRANCH   8   9
ENDBRANCH   5   8
ENDBRANCH   1   2
BRANCH   1  18
ATOM     16  C   UNL     1       5.796   5.258  17.420  0.00  0.00    +0.000 A 
ATOM     17  C   UNL     1       4.442   5.077  17.600  0.00  0.00    +0.000 A 
ATOM     18  N   UNL     1       4.255   5.286  18.938  0.00  0.00    +0.000 N 
ATOM     19  N   UNL     1       5.436   5.479  19.561  0.00  0.00    +0.000 NA
ATOM     20  N   UNL     1       6.386   5.471  18.637  0.00  0.00    +0.000 NA
BRANCH  16  21
ATOM     21  C   UNL     1       6.595   5.294  16.170  0.00  0.00    +0.000 C 
BRANCH  21  22
ATOM     22  C   UNL     1       6.502   3.993  15.365  0.00  0.00    +0.000 C 
BRANCH  22  23
ATOM     23  C   UNL     1       5.677   4.140  14.078  0.00  0.00    +0.000 C 
BRANCH  23  24
ATOM     24  C   UNL     1       6.480   3.787  12.832  0.00  0.00    +0.000 C 
BRANCH  24  25
ATOM     25  O   UNL     1       5.997   2.575  12.270  0.00  0.00    +0.000 OA
ATOM     26  H   UNL     1       5.102   2.435  12.626  0.00  0.00    +0.000 HD
ENDBRANCH  24  25
ENDBRANCH  23  24
ENDBRANCH  22  23
ENDBRANCH  21  22
ENDBRANCH  16  21
ENDBRANCH   1  18
BRANCH   1  27
ATOM     27  C   UNL     1       1.992   4.324  19.425  0.00  0.00    +0.000 C 
ATOM     28  C   UNL     1       2.229   2.877  19.778  0.00  0.00    +0.000 C 
ATOM     29  C   UNL     1       1.266   3.692  20.591  0.00  0.00    +0.000 C 
ENDBRANCH   1  27
TORSDOF 11
ENDMDL
MODEL 4
REMARK VINA RESULT:      -7.7      2.045      2.542
REMARK  Name = 
REMARK  11 active torsions:
REMARK  status: ('A' for Active; 'I' for Inactive)
REMARK    1  A    between atoms: O_1  and  C_2
REMARK    2  A    between atoms: C_2  and  C_3
REMARK    3  A    between atoms: C_3  and  C_4
REMARK    4  A    between atoms: C_4  and  C_5
REMARK    5  A    between atoms: C_5  and  C_6
REMARK    6  A    between atoms: N_8  and  C_9
REMARK    7  A    between atoms: C_9  and  C_10
REMARK    8  A    between atoms: C_9  and  C_24
REMARK    9  A    between atoms: C_13  and  O_14
REMARK   10  A    between atoms: O_14  and  C_15
REMARK   11  A    between atoms: C_15  and  C_16
REMARK                            x       y       z     vdW  Elec       q    Type
REMARK                         _______ _______ _______ _____ _____    ______ ____
ROOT
ATOM      1  C   UNL     1       2.607   5.387  20.196  0.00  0.00    +0.000 C 
ENDROOT
BRANCH   1   2
ATOM      2  C   UNL     1       2.194   6.805  19.808  0.00  0.00    +0.000 A 
ATOM      3  C   UNL     1       2.456   7.308  18.522  0.00  0.00    +0.000 A 
ATOM      4  C   UNL     1       2.024   8.574  18.144  0.00  0.00    +0.000 A 
ATOM      5  C   UNL     1       1.288   9.356  19.033  0.00  0.00    +0.000 A 
ATOM      6  C   UNL     1       1.066   8.896  20.331  0.00  0.00    +0.000 A 
ATOM      7  C   UNL     1       1.508   7.625  20.718  0.00  0.00    +0.000 A 
BRANCH   5   8
ATOM      8  O   UNL     1       0.744  10.573  18.722  0.00  0.00    +0.000 OA
BRANCH   8   9
ATOM      9  C   UNL     1      -0.493  10.857  19.382  0.00  0.00    +0.000 C 
BRANCH   9  10
ATOM     10  C   UNL     1      -1.621  10.797  18.389  0.00  0.00    +0.000 A 
ATOM     11  C   UNL     1      -1.547   9.953  17.276  0.00  0.00    +0.000 A 
ATOM     12  C   UNL     1      -2.603   9.893  16.364  0.00  0.00    +0.000 A 
ATOM     13  C   UNL     1      -3.738  10.679  16.560  0.00  0.00    +0.000 A 
ATOM     14  C   UNL     1      -3.822  11.525  17.664  0.00  0.00    +0.000 A 
ATOM     15  C   UNL     1      -2.768  11.585  18.575  0.00  0.00    +0.000 A 
ENDBRANCH   9  10
ENDBRANCH   8   9
ENDBRANCH   5   8
ENDBRANCH   1   2
BRANCH   1  18
ATOM     16  C   UNL     1       4.472   4.301  17.311  0.00  0.00    +0.000 A 
ATOM     17  C   UNL     1       3.288   4.815  17.791  0.00  0.00    +0.000 A 
ATOM     18  N   UNL     1       3.443   4.793  19.149  0.00  0.00    +0.000 N 
ATOM     19  N   UNL     1       4.609   4.204  19.486  0.00  0.00    +0.000 NA
ATOM     20  N   UNL     1       5.250   3.906  18.366  0.00  0.00    +0.000 NA
BRANCH  16  21
ATOM     21  C   UNL     1       4.967   4.189  15.917  0.00  0.00    +0.000 C 
BRANCH  21  22
ATOM     22  C   UNL     1       5.759   5.421  15.463  0.00  0.00    +0.000 C 
BRANCH  22  23
ATOM     23  C   UNL     1       7.119   5.553  16.165  0.00  0.00    +0.000 C 
BRANCH  23  24
ATOM     24  C   UNL     1       7.142   6.696  17.171  0.00  0.00    +0.000 C 
BRANCH  24  25
ATOM     25  O   UNL     1       7.111   6.181  18.494  0.00  0.00    +0.000 OA
ATOM     26  H   UNL     1       7.698   6.741  19.031  0.00  0.00    +0.000 HD
ENDBRANCH  24  25
ENDBRANCH  23  24
ENDBRANCH  22  23
ENDBRANCH  21  22
ENDBRANCH  16  21
ENDBRANCH   1  18
BRANCH   1  27
ATOM     27  C   UNL     1       1.362   4.579  20.530  0.00  0.00    +0.000 C 
ATOM     28  C   UNL     1       1.062   3.237  19.909  0.00  0.00    +0.000 C 
ATOM     29  C   UNL     1       1.509   3.310  21.340  0.00  0.00    +0.000 C 
ENDBRANCH   1  27
TORSDOF 11
ENDMDL
MODEL 5
REMARK VINA RESULT:      -7.6      1.868      2.273
REMARK  Name = 
REMARK  11 active torsions:
REMARK  status: ('A' for Active; 'I' for Inactive)
REMARK    1  A    between atoms: O_1  and  C_2
REMARK    2  A    between atoms: C_2  and  C_3
REMARK    3  A    between atoms: C_3  and  C_4
REMARK    4  A    between atoms: C_4  and  C_5
REMARK    5  A    between atoms: C_5  and  C_6
REMARK    6  A    between atoms: N_8  and  C_9
REMARK    7  A    between atoms: C_9  and  C_10
REMARK    8  A    between atoms: C_9  and  C_24
REMARK    9  A    between atoms: C_13  and  O_14
REMARK   10  A    between atoms: O_14  and  C_15
REMARK   11  A    between atoms: C_15  and  C_16
REMARK                            x       y       z     vdW  Elec       q    Type
REMARK                         _______ _______ _______ _____ _____    ______ ____
ROOT
ATOM      1  C   UNL     1       2.613   5.359  20.111  0.00  0.00    +0.000 C 
ENDROOT
BRANCH   1   2
ATOM      2  C   UNL     1       2.223   6.781  19.715  0.00  0.00    +0.000 A 
ATOM      3  C   UNL     1       2.539   7.290  18.444  0.00  0.00    +0.000 A 
ATOM      4  C   UNL     1       2.129   8.561  18.057  0.00  0.00    +0.000 A 
ATOM      5  C   UNL     1       1.362   9.341  18.920  0.00  0.00    +0.000 A 
ATOM      6  C   UNL     1       1.085   8.874  20.206  0.00  0.00    +0.000 A 
ATOM      7  C   UNL     1       1.505   7.599  20.602  0.00  0.00    +0.000 A 
BRANCH   5   8
ATOM      8  O   UNL     1       0.836  10.563  18.595  0.00  0.00    +0.000 OA
BRANCH   8   9
ATOM      9  C   UNL     1      -0.341  10.917  19.326  0.00  0.00    +0.000 C 
BRANCH   9  10
ATOM     10  C   UNL     1      -1.540  10.838  18.422  0.00  0.00    +0.000 A 
ATOM     11  C   UNL     1      -2.663  11.638  18.655  0.00  0.00    +0.000 A 
ATOM     12  C   UNL     1      -3.768  11.568  17.804  0.00  0.00    +0.000 A 
ATOM     13  C   UNL     1      -3.756  10.696  16.715  0.00  0.00    +0.000 A 
ATOM     14  C   UNL     1      -2.643   9.893  16.475  0.00  0.00    +0.000 A 
ATOM     15  C   UNL     1      -1.539   9.962  17.324  0.00  0.00    +0.000 A 
ENDBRANCH   9  10
ENDBRANCH   8   9
ENDBRANCH   5   8
ENDBRANCH   1   2
BRANCH   1  18
ATOM     16  C   UNL     1       4.391   4.223  17.190  0.00  0.00    +0.000 A 
ATOM     17  C   UNL     1       3.327   4.946  17.683  0.00  0.00    +0.000 A 
ATOM     18  N   UNL     1       3.366   4.715  19.030  0.00  0.00    +0.000 N 
ATOM     19  N   UNL     1       4.329   3.821  19.335  0.00  0.00    +0.000 NA
ATOM     20  N   UNL     1       4.968   3.520  18.214  0.00  0.00    +0.000 NA
BRANCH  16  21
ATOM     21  C   UNL     1       4.954   4.169  15.819  0.00  0.00    +0.000 C 
BRANCH  21  22
ATOM     22  C   UNL     1       6.475   4.361  15.790  0.00  0.00    +0.000 C 
BRANCH  22  23
ATOM     23  C   UNL     1       6.926   5.684  16.427  0.00  0.00    +0.000 C 
BRANCH  23  24
ATOM     24  C   UNL     1       7.618   5.475  17.768  0.00  0.00    +0.000 C 
BRANCH  24  25
ATOM     25  O   UNL     1       7.964   4.107  17.930  0.00  0.00    +0.000 OA
ATOM     26  H   UNL     1       7.151   3.639  18.191  0.00  0.00    +0.000 HD
ENDBRANCH  24  25
ENDBRANCH  23  24
ENDBRANCH  22  23
ENDBRANCH  21  22
ENDBRANCH  16  21
ENDBRANCH   1  18
BRANCH   1  27
ATOM     27  C   UNL     1       1.365   4.599  20.537  0.00  0.00    +0.000 C 
ATOM     28  C   UNL     1       0.967   3.272  19.941  0.00  0.00    +0.000 C 
ATOM     29  C   UNL     1       1.522   3.325  21.335  0.00  0.00    +0.000 C 
ENDBRANCH   1  27
TORSDOF 11
ENDMDL
MODEL 6
REMARK VINA RESULT:      -7.5      5.231      7.426
REMARK  Name = 
REMARK  11 active torsions:
REMARK  status: ('A' for Active; 'I' for Inactive)
REMARK    1  A    between atoms: O_1  and  C_2
REMARK    2  A    between atoms: C_2  and  C_3
REMARK    3  A    between atoms: C_3  and  C_4
REMARK    4  A    between atoms: C_4  and  C_5
REMARK    5  A    between atoms: C_5  and  C_6
REMARK    6  A    between atoms: N_8  and  C_9
REMARK    7  A    between atoms: C_9  and  C_10
REMARK    8  A    between atoms: C_9  and  C_24
REMARK    9  A    between atoms: C_13  and  O_14
REMARK   10  A    between atoms: O_14  and  C_15
REMARK   11  A    between atoms: C_15  and  C_16
REMARK                            x       y       z     vdW  Elec       q    Type
REMARK                         _______ _______ _______ _____ _____    ______ ____
ROOT
ATOM      1  C   UNL     1       5.993   4.608  16.758  0.00  0.00    +0.000 C 
ENDROOT
BRANCH   1   2
ATOM      2  C   UNL     1       6.719   5.781  17.411  0.00  0.00    +0.000 A 
ATOM      3  C   UNL     1       7.635   5.573  18.456  0.00  0.00    +0.000 A 
ATOM      4  C   UNL     1       8.347   6.632  19.009  0.00  0.00    +0.000 A 
ATOM      5  C   UNL     1       8.184   7.921  18.507  0.00  0.00    +0.000 A 
ATOM      6  C   UNL     1       7.239   8.155  17.507  0.00  0.00    +0.000 A 
ATOM      7  C   UNL     1       6.514   7.093  16.955  0.00  0.00    +0.000 A 
BRANCH   5   8
ATOM      8  O   UNL     1       8.904   9.009  18.923  0.00  0.00    +0.000 OA
BRANCH   8   9
ATOM      9  C   UNL     1       8.789  10.157  18.079  0.00  0.00    +0.000 C 
BRANCH   9  10
ATOM     10  C   UNL     1       9.647  11.269  18.618  0.00  0.00    +0.000 A 
ATOM     11  C   UNL     1      10.349  11.110  19.817  0.00  0.00    +0.000 A 
ATOM     12  C   UNL     1      11.153  12.142  20.306  0.00  0.00    +0.000 A 
ATOM     13  C   UNL     1      11.259  13.339  19.597  0.00  0.00    +0.000 A 
ATOM     14  C   UNL     1      10.563  13.508  18.403  0.00  0.00    +0.000 A 
ATOM     15  C   UNL     1       9.759  12.478  17.915  0.00  0.00    +0.000 A 
ENDBRANCH   9  10
ENDBRANCH   8   9
ENDBRANCH   5   8
ENDBRANCH   1   2
BRANCH   1  18
ATOM     16  C   UNL     1       6.573   4.049  13.246  0.00  0.00    +0.000 A 
ATOM     17  C   UNL     1       5.947   3.616  14.394  0.00  0.00    +0.000 A 
ATOM     18  N   UNL     1       6.428   4.447  15.367  0.00  0.00    +0.000 N 
ATOM     19  N   UNL     1       7.371   5.272  14.867  0.00  0.00    +0.000 NA
ATOM     20  N   UNL     1       7.461   5.041  13.566  0.00  0.00    +0.000 NA
BRANCH  16  21
ATOM     21  C   UNL     1       6.372   3.635  11.835  0.00  0.00    +0.000 C 
BRANCH  21  22
ATOM     22  C   UNL     1       5.256   2.597  11.671  0.00  0.00    +0.000 C 
BRANCH  22  23
ATOM     23  C   UNL     1       3.875   3.230  11.449  0.00  0.00    +0.000 C 
BRANCH  23  24
ATOM     24  C   UNL     1       3.792   3.993  10.133  0.00  0.00    +0.000 C 
BRANCH  24  25
ATOM     25  O   UNL     1       2.798   3.418   9.298  0.00  0.00    +0.000 OA
ATOM     26  H   UNL     1       2.340   4.154   8.856  0.00  0.00    +0.000 HD
ENDBRANCH  24  25
ENDBRANCH  23  24
ENDBRANCH  22  23
ENDBRANCH  21  22
ENDBRANCH  16  21
ENDBRANCH   1  18
BRANCH   1  27
ATOM     27  C   UNL     1       4.492   4.795  16.922  0.00  0.00    +0.000 C 
ATOM     28  C   UNL     1       3.538   3.645  17.131  0.00  0.00    +0.000 C 
ATOM     29  C   UNL     1       3.869   4.556  18.278  0.00  0.00    +0.000 C 
ENDBRANCH   1  27
TORSDOF 11
ENDMDL
MODEL 7
REMARK VINA RESULT:      -7.5      2.146      2.747
REMARK  Name = 
REMARK  11 active torsions:
REMARK  status: ('A' for Active; 'I' for Inactive)
REMARK    1  A    between atoms: O_1  and  C_2
REMARK    2  A    between atoms: C_2  and  C_3
REMARK    3  A    between atoms: C_3  and  C_4
REMARK    4  A    between atoms: C_4  and  C_5
REMARK    5  A    between atoms: C_5  and  C_6
REMARK    6  A    between atoms: N_8  and  C_9
REMARK    7  A    between atoms: C_9  and  C_10
REMARK    8  A    between atoms: C_9  and  C_24
REMARK    9  A    between atoms: C_13  and  O_14
REMARK   10  A    between atoms: O_14  and  C_15
REMARK   11  A    between atoms: C_15  and  C_16
REMARK                            x       y       z     vdW  Elec       q    Type
REMARK                         _______ _______ _______ _____ _____    ______ ____
ROOT
ATOM      1  C   UNL     1       2.636   4.933  20.192  0.00  0.00    +0.000 C 
ENDROOT
BRANCH   1   2
ATOM      2  C   UNL     1       2.195   6.342  19.802  0.00  0.00    +0.000 A 
ATOM      3  C   UNL     1       1.591   7.196  20.740  0.00  0.00    +0.000 A 
ATOM      4  C   UNL     1       1.248   8.502  20.406  0.00  0.00    +0.000 A 
ATOM      5  C   UNL     1       1.532   8.995  19.135  0.00  0.00    +0.000 A 
ATOM      6  C   UNL     1       2.080   8.145  18.174  0.00  0.00    +0.000 A 
ATOM      7  C   UNL     1       2.418   6.828  18.504  0.00  0.00    +0.000 A 
BRANCH   5   8
ATOM      8  O   UNL     1       1.315  10.290  18.743  0.00  0.00    +0.000 OA
BRANCH   8   9
ATOM      9  C   UNL     1       0.280  10.964  19.463  0.00  0.00    +0.000 C 
BRANCH   9  10
ATOM     10  C   UNL     1      -1.011  10.870  18.697  0.00  0.00    +0.000 A 
ATOM     11  C   UNL     1      -2.118  11.639  19.069  0.00  0.00    +0.000 A 
ATOM     12  C   UNL     1      -3.310  11.557  18.346  0.00  0.00    +0.000 A 
ATOM     13  C   UNL     1      -3.401  10.704  17.247  0.00  0.00    +0.000 A 
ATOM     14  C   UNL     1      -2.305   9.931  16.868  0.00  0.00    +0.000 A 
ATOM     15  C   UNL     1      -1.114  10.013  17.590  0.00  0.00    +0.000 A 
ENDBRANCH   9  10
ENDBRANCH   8   9
ENDBRANCH   5   8
ENDBRANCH   1   2
BRANCH   1  18
ATOM     16  C   UNL     1       5.134   4.191  17.705  0.00  0.00    +0.000 A 
ATOM     17  C   UNL     1       3.852   4.628  17.956  0.00  0.00    +0.000 A 
ATOM     18  N   UNL     1       3.707   4.468  19.306  0.00  0.00    +0.000 N 
ATOM     19  N   UNL     1       4.794   3.871  19.836  0.00  0.00    +0.000 NA
ATOM     20  N   UNL     1       5.677   3.704  18.863  0.00  0.00    +0.000 NA
BRANCH  16  21
ATOM     21  C   UNL     1       5.928   4.234  16.452  0.00  0.00    +0.000 C 
BRANCH  21  22
ATOM     22  C   UNL     1       7.278   4.939  16.625  0.00  0.00    +0.000 C 
BRANCH  22  23
ATOM     23  C   UNL     1       7.143   6.374  17.154  0.00  0.00    +0.000 C 
BRANCH  23  24
ATOM     24  C   UNL     1       7.850   6.568  18.490  0.00  0.00    +0.000 C 
BRANCH  24  25
ATOM     25  O   UNL     1       8.037   5.313  19.128  0.00  0.00    +0.000 OA
ATOM     26  H   UNL     1       7.643   5.385  20.015  0.00  0.00    +0.000 HD
ENDBRANCH  24  25
ENDBRANCH  23  24
ENDBRANCH  22  23
ENDBRANCH  21  22
ENDBRANCH  16  21
ENDBRANCH   1  18
BRANCH   1  27
ATOM     27  C   UNL     1       1.419   4.021  20.229  0.00  0.00    +0.000 C 
ATOM     28  C   UNL     1       1.479   2.556  19.873  0.00  0.00    +0.000 C 
ATOM     29  C   UNL     1       1.326   2.967  21.309  0.00  0.00    +0.000 C 
ENDBRANCH   1  27
TORSDOF 11
ENDMDL
MODEL 8
REMARK VINA RESULT:      -7.5      0.623      1.119
REMARK  Name = 
REMARK  11 active torsions:
REMARK  status: ('A' for Active; 'I' for Inactive)
REMARK    1  A    between atoms: O_1  and  C_2
REMARK    2  A    between atoms: C_2  and  C_3
REMARK    3  A    between atoms: C_3  and  C_4
REMARK    4  A    between atoms: C_4  and  C_5
REMARK    5  A    between atoms: C_5  and  C_6
REMARK    6  A    between atoms: N_8  and  C_9
REMARK    7  A    between atoms: C_9  and  C_10
REMARK    8  A    between atoms: C_9  and  C_24
REMARK    9  A    between atoms: C_13  and  O_14
REMARK   10  A    between atoms: O_14  and  C_15
REMARK   11  A    between atoms: C_15  and  C_16
REMARK                            x       y       z     vdW  Elec       q    Type
REMARK                         _______ _______ _______ _____ _____    ______ ____
ROOT
ATOM      1  C   UNL     1       3.105   4.933  19.345  0.00  0.00    +0.000 C 
ENDROOT
BRANCH   1   2
ATOM      2  C   UNL     1       2.490   6.327  19.253  0.00  0.00    +0.000 A 
ATOM      3  C   UNL     1       1.925   6.943  20.383  0.00  0.00    +0.000 A 
ATOM      4  C   UNL     1       1.422   8.238  20.318  0.00  0.00    +0.000 A 
ATOM      5  C   UNL     1       1.504   8.961  19.130  0.00  0.00    +0.000 A 
ATOM      6  C   UNL     1       2.012   8.346  17.985  0.00  0.00    +0.000 A 
ATOM      7  C   UNL     1       2.509   7.040  18.044  0.00  0.00    +0.000 A 
BRANCH   5   8
ATOM      8  O   UNL     1       1.121  10.269  18.993  0.00  0.00    +0.000 OA
BRANCH   8   9
ATOM      9  C   UNL     1      -0.063  10.620  19.714  0.00  0.00    +0.000 C 
BRANCH   9  10
ATOM     10  C   UNL     1      -1.229  10.688  18.766  0.00  0.00    +0.000 A 
ATOM     11  C   UNL     1      -2.315  11.528  19.030  0.00  0.00    +0.000 A 
ATOM     12  C   UNL     1      -3.388  11.596  18.139  0.00  0.00    +0.000 A 
ATOM     13  C   UNL     1      -3.381  10.822  16.979  0.00  0.00    +0.000 A 
ATOM     14  C   UNL     1      -2.306   9.979  16.707  0.00  0.00    +0.000 A 
ATOM     15  C   UNL     1      -1.234   9.911  17.596  0.00  0.00    +0.000 A 
ENDBRANCH   9  10
ENDBRANCH   8   9
ENDBRANCH   5   8
ENDBRANCH   1   2
BRANCH   1  18
ATOM     16  C   UNL     1       6.028   4.968  17.238  0.00  0.00    +0.000 A 
ATOM     17  C   UNL     1       4.695   4.640  17.356  0.00  0.00    +0.000 A 
ATOM     18  N   UNL     1       4.404   4.900  18.665  0.00  0.00    +0.000 N 
ATOM     19  N   UNL     1       5.514   5.266  19.338  0.00  0.00    +0.000 NA
ATOM     20  N   UNL     1       6.514   5.317  18.470  0.00  0.00    +0.000 NA
BRANCH  16  21
ATOM     21  C   UNL     1       6.894   5.027  16.035  0.00  0.00    +0.000 C 
BRANCH  21  22
ATOM     22  C   UNL     1       6.101   4.948  14.725  0.00  0.00    +0.000 C 
BRANCH  22  23
ATOM     23  C   UNL     1       6.149   3.557  14.077  0.00  0.00    +0.000 C 
BRANCH  23  24
ATOM     24  C   UNL     1       6.122   3.626  12.555  0.00  0.00    +0.000 C 
BRANCH  24  25
ATOM     25  O   UNL     1       4.788   3.497  12.085  0.00  0.00    +0.000 OA
ATOM     26  H   UNL     1       4.830   3.491  11.113  0.00  0.00    +0.000 HD
ENDBRANCH  24  25
ENDBRANCH  23  24
ENDBRANCH  22  23
ENDBRANCH  21  22
ENDBRANCH  16  21
ENDBRANCH   1  18
BRANCH   1  27
ATOM     27  C   UNL     1       2.106   3.910  18.825  0.00  0.00    +0.000 C 
ATOM     28  C   UNL     1       2.234   2.430  19.086  0.00  0.00    +0.000 C 
ATOM     29  C   UNL     1       1.183   3.224  19.807  0.00  0.00    +0.000 C 
ENDBRANCH   1  27
TORSDOF 11
ENDMDL
MODEL 9
REMARK VINA RESULT:      -7.5      1.853      2.533
REMARK  Name = 
REMARK  11 active torsions:
REMARK  status: ('A' for Active; 'I' for Inactive)
REMARK    1  A    between atoms: O_1  and  C_2
REMARK    2  A    between atoms: C_2  and  C_3
REMARK    3  A    between atoms: C_3  and  C_4
REMARK    4  A    between atoms: C_4  and  C_5
REMARK    5  A    between atoms: C_5  and  C_6
REMARK    6  A    between atoms: N_8  and  C_9
REMARK    7  A    between atoms: C_9  and  C_10
REMARK    8  A    between atoms: C_9  and  C_24
REMARK    9  A    between atoms: C_13  and  O_14
REMARK   10  A    between atoms: O_14  and  C_15
REMARK   11  A    between atoms: C_15  and  C_16
REMARK                            x       y       z     vdW  Elec       q    Type
REMARK                         _______ _______ _______ _____ _____    ______ ____
ROOT
ATOM      1  C   UNL     1       2.825   4.831  20.102  0.00  0.00    +0.000 C 
ENDROOT
BRANCH   1   2
ATOM      2  C   UNL     1       2.351   6.242  19.764  0.00  0.00    +0.000 A 
ATOM      3  C   UNL     1       1.682   7.027  20.718  0.00  0.00    +0.000 A 
ATOM      4  C   UNL     1       1.307   8.336  20.435  0.00  0.00    +0.000 A 
ATOM      5  C   UNL     1       1.624   8.903  19.202  0.00  0.00    +0.000 A 
ATOM      6  C   UNL     1       2.240   8.121  18.224  0.00  0.00    +0.000 A 
ATOM      7  C   UNL     1       2.610   6.801  18.502  0.00  0.00    +0.000 A 
BRANCH   5   8
ATOM      8  O   UNL     1       1.379  10.208  18.866  0.00  0.00    +0.000 OA
BRANCH   8   9
ATOM      9  C   UNL     1       0.427  10.869  19.705  0.00  0.00    +0.000 C 
BRANCH   9  10
ATOM     10  C   UNL     1      -0.902  10.938  19.003  0.00  0.00    +0.000 A 
ATOM     11  C   UNL     1      -1.146  10.169  17.861  0.00  0.00    +0.000 A 
ATOM     12  C   UNL     1      -2.386  10.229  17.221  0.00  0.00    +0.000 A 
ATOM     13  C   UNL     1      -3.389  11.059  17.721  0.00  0.00    +0.000 A 
ATOM     14  C   UNL     1      -3.156  11.831  18.858  0.00  0.00    +0.000 A 
ATOM     15  C   UNL     1      -1.918  11.772  19.496  0.00  0.00    +0.000 A 
ENDBRANCH   9  10
ENDBRANCH   8   9
ENDBRANCH   5   8
ENDBRANCH   1   2
BRANCH   1  18
ATOM     16  C   UNL     1       4.973   3.956  17.345  0.00  0.00    +0.000 A 
ATOM     17  C   UNL     1       3.681   4.136  17.788  0.00  0.00    +0.000 A 
ATOM     18  N   UNL     1       3.820   4.377  19.126  0.00  0.00    +0.000 N 
ATOM     19  N   UNL     1       5.109   4.248  19.503  0.00  0.00    +0.000 NA
ATOM     20  N   UNL     1       5.824   3.998  18.417  0.00  0.00    +0.000 NA
BRANCH  16  21
ATOM     21  C   UNL     1       5.495   3.791  15.966  0.00  0.00    +0.000 C 
BRANCH  21  22
ATOM     22  C   UNL     1       6.056   5.091  15.380  0.00  0.00    +0.000 C 
BRANCH  22  23
ATOM     23  C   UNL     1       5.348   6.345  15.913  0.00  0.00    +0.000 C 
BRANCH  23  24
ATOM     24  C   UNL     1       6.219   7.134  16.883  0.00  0.00    +0.000 C 
BRANCH  24  25
ATOM     25  O   UNL     1       7.586   6.802  16.690  0.00  0.00    +0.000 OA
ATOM     26  H   UNL     1       8.100   7.355  17.304  0.00  0.00    +0.000 HD
ENDBRANCH  24  25
ENDBRANCH  23  24
ENDBRANCH  22  23
ENDBRANCH  21  22
ENDBRANCH  16  21
ENDBRANCH   1  18
BRANCH   1  27
ATOM     27  C   UNL     1       1.617   3.915  20.229  0.00  0.00    +0.000 C 
ATOM     28  C   UNL     1       1.705   2.414  20.102  0.00  0.00    +0.000 C 
ATOM     29  C   UNL     1       1.490   3.035  21.452  0.00  0.00    +0.000 C 
ENDBRANCH   1  27
TORSDOF 11
ENDMDL
