MODEL 1
REMARK VINA RESULT:      -7.3      0.000      0.000
REMARK  Name = 
REMARK  7 active torsions:
REMARK  status: ('A' for Active; 'I' for Inactive)
REMARK    1  A    between atoms: C_1  and  N_2
REMARK    2  A    between atoms: N_2  and  C_3
REMARK    3  A    between atoms: N_2  and  C_4
REMARK    4  A    between atoms: C_4  and  C_5
REMARK    5  A    between atoms: C_5  and  N_6
REMARK    6  A    between atoms: C_14  and  O_15
REMARK    7  A    between atoms: C_26  and  O_27
REMARK                            x       y       z     vdW  Elec       q    Type
REMARK                         _______ _______ _______ _____ _____    ______ ____
ROOT
ATOM      1  N   UNL     1       4.314   5.574  18.060  0.00  0.00    +0.000 NA
ATOM      2  C   UNL     1       4.095   6.888  17.416  0.00  0.00    +0.000 C 
ATOM      3  C   UNL     1       2.676   7.454  17.606  0.00  0.00    +0.000 C 
ATOM      4  N   UNL     1       2.362   7.515  19.038  0.00  0.00    +0.000 N 
ATOM      5  C   UNL     1       1.623   8.513  19.576  0.00  0.00    +0.000 A 
ATOM      6  N   UNL     1       0.963   8.418  20.707  0.00  0.00    +0.000 NA
ATOM      7  C   UNL     1       0.363   9.620  21.029  0.00  0.00    +0.000 A 
ATOM      8  C   UNL     1      -0.422   9.855  22.169  0.00  0.00    +0.000 A 
ATOM      9  C   UNL     1      -0.964  11.127  22.383  0.00  0.00    +0.000 A 
ATOM     10  C   UNL     1      -0.740  12.183  21.480  0.00  0.00    +0.000 A 
ATOM     11  C   UNL     1       0.042  11.952  20.342  0.00  0.00    +0.000 A 
ATOM     12  C   UNL     1       0.579  10.665  20.133  0.00  0.00    +0.000 A 
ATOM     13  S   UNL     1       1.551  10.064  18.858  0.00  0.00    +0.000 S 
ATOM     14  C   UNL     1       0.310  13.029  19.373  0.00  0.00    +0.000 C 
ATOM     15  O   UNL     1       1.018  12.861  18.389  0.00  0.00    +0.000 OA
ATOM     16  C   UNL     1      -0.279  14.355  19.576  0.00  0.00    +0.000 A 
ATOM     17  C   UNL     1      -0.025  15.338  18.603  0.00  0.00    +0.000 A 
ATOM     18  C   UNL     1      -0.562  16.611  18.744  0.00  0.00    +0.000 A 
ATOM     19  C   UNL     1      -1.352  16.901  19.852  0.00  0.00    +0.000 A 
ATOM     20  C   UNL     1      -1.604  15.912  20.816  0.00  0.00    +0.000 A 
ATOM     21  C   UNL     1      -1.067  14.621  20.689  0.00  0.00    +0.000 A 
ATOM     22  C   UNL     1      -1.305  13.549  21.698  0.00  0.00    +0.000 C 
ATOM     23  O   UNL     1      -1.954  13.791  22.707  0.00  0.00    +0.000 OA
ATOM     24  C   UNL     1       2.559   6.279  19.795  0.00  0.00    +0.000 C 
ATOM     25  C   UNL     1       3.974   5.715  19.505  0.00  0.00    +0.000 C 
ENDROOT
BRANCH   9  26
ATOM     26  O   UNL     1      -1.724  11.302  23.505  0.00  0.00    +0.000 OA
ATOM     27  H   UNL     1      -1.899  12.243  23.668  0.00  0.00    +0.000 HD
ENDBRANCH   9  26
BRANCH  20  28
ATOM     28  O   UNL     1      -2.391  16.244  21.880  0.00  0.00    +0.000 OA
ATOM     29  H   UNL     1      -2.954  15.496  22.128  0.00  0.00    +0.000 HD
ENDBRANCH  20  28
BRANCH   1  30
ATOM     30  C   UNL     1       3.485   4.501  17.477  0.00  0.00    +0.000 C 
BRANCH  30  31
ATOM     31  C   UNL     1       4.103   3.086  17.478  0.00  0.00    +0.000 C 
BRANCH  31  33
ATOM     32  C   UNL     1       4.104   2.142  19.693  0.00  0.00    +0.000 C 
ATOM     33  N   UNL     1       3.412   2.163  18.404  0.00  0.00    +0.000 NA
ATOM     34  C   UNL     1       2.006   2.523  18.595  0.00  0.00    +0.000 C 
ENDBRANCH  31  33
ENDBRANCH  30  31
ENDBRANCH   1  30
TORSDOF 5
ENDMDL
MODEL 2
REMARK VINA RESULT:      -7.3      3.818      9.813
REMARK  Name = 
REMARK  7 active torsions:
REMARK  status: ('A' for Active; 'I' for Inactive)
REMARK    1  A    between atoms: C_1  and  N_2
REMARK    2  A    between atoms: N_2  and  C_3
REMARK    3  A    between atoms: N_2  and  C_4
REMARK    4  A    between atoms: C_4  and  C_5
REMARK    5  A    between atoms: C_5  and  N_6
REMARK    6  A    between atoms: C_14  and  O_15
REMARK    7  A    between atoms: C_26  and  O_27
REMARK                            x       y       z     vdW  Elec       q    Type
REMARK                         _______ _______ _______ _____ _____    ______ ____
ROOT
ATOM      1  N   UNL     1      -1.601  13.910  20.293  0.00  0.00    +0.000 NA
ATOM      2  C   UNL     1      -0.590  13.594  19.261  0.00  0.00    +0.000 C 
ATOM      3  C   UNL     1       0.550  12.682  19.754  0.00  0.00    +0.000 C 
ATOM      4  N   UNL     1      -0.018  11.456  20.324  0.00  0.00    +0.000 N 
ATOM      5  C   UNL     1       0.583  10.251  20.191  0.00  0.00    +0.000 A 
ATOM      6  N   UNL     1       0.385   9.232  20.996  0.00  0.00    +0.000 NA
ATOM      7  C   UNL     1       1.082   8.120  20.564  0.00  0.00    +0.000 A 
ATOM      8  C   UNL     1       1.091   6.870  21.203  0.00  0.00    +0.000 A 
ATOM      9  C   UNL     1       1.833   5.820  20.652  0.00  0.00    +0.000 A 
ATOM     10  C   UNL     1       2.572   5.985  19.466  0.00  0.00    +0.000 A 
ATOM     11  C   UNL     1       2.566   7.231  18.826  0.00  0.00    +0.000 A 
ATOM     12  C   UNL     1       1.819   8.285  19.393  0.00  0.00    +0.000 A 
ATOM     13  S   UNL     1       1.616   9.902  18.872  0.00  0.00    +0.000 S 
ATOM     14  C   UNL     1       3.319   7.449  17.579  0.00  0.00    +0.000 C 
ATOM     15  O   UNL     1       3.302   8.517  16.984  0.00  0.00    +0.000 OA
ATOM     16  C   UNL     1       4.122   6.361  17.014  0.00  0.00    +0.000 A 
ATOM     17  C   UNL     1       4.853   6.630  15.843  0.00  0.00    +0.000 A 
ATOM     18  C   UNL     1       5.633   5.637  15.266  0.00  0.00    +0.000 A 
ATOM     19  C   UNL     1       5.685   4.379  15.858  0.00  0.00    +0.000 A 
ATOM     20  C   UNL     1       4.955   4.120  17.028  0.00  0.00    +0.000 A 
ATOM     21  C   UNL     1       4.160   5.113  17.623  0.00  0.00    +0.000 A 
ATOM     22  C   UNL     1       3.363   4.871  18.860  0.00  0.00    +0.000 C 
ATOM     23  O   UNL     1       3.351   3.760  19.373  0.00  0.00    +0.000 OA
ATOM     24  C   UNL     1      -1.049  11.636  21.345  0.00  0.00    +0.000 C 
ATOM     25  C   UNL     1      -2.127  12.620  20.824  0.00  0.00    +0.000 C 
ENDROOT
BRANCH   9  26
ATOM     26  O   UNL     1       1.812   4.625  21.314  0.00  0.00    +0.000 OA
ATOM     27  H   UNL     1       2.261   3.932  20.804  0.00  0.00    +0.000 HD
ENDBRANCH   9  26
BRANCH  20  28
ATOM     28  O   UNL     1       5.045   2.872  17.574  0.00  0.00    +0.000 OA
ATOM     29  H   UNL     1       5.225   2.933  18.524  0.00  0.00    +0.000 HD
ENDBRANCH  20  28
BRANCH   1  30
ATOM     30  C   UNL     1      -1.053  14.699  21.414  0.00  0.00    +0.000 C 
BRANCH  30  31
ATOM     31  C   UNL     1      -1.995  15.761  22.024  0.00  0.00    +0.000 C 
BRANCH  31  33
ATOM     32  C   UNL     1      -3.714  14.855  23.446  0.00  0.00    +0.000 C 
ATOM     33  N   UNL     1      -2.377  15.448  23.418  0.00  0.00    +0.000 NA
ATOM     34  C   UNL     1      -1.417  14.553  24.066  0.00  0.00    +0.000 C 
ENDBRANCH  31  33
ENDBRANCH  30  31
ENDBRANCH   1  30
TORSDOF 5
ENDMDL
MODEL 3
REMARK VINA RESULT:      -7.1      1.960      3.662
REMARK  Name = 
REMARK  7 active torsions:
REMARK  status: ('A' for Active; 'I' for Inactive)
REMARK    1  A    between atoms: C_1  and  N_2
REMARK    2  A    between atoms: N_2  and  C_3
REMARK    3  A    between atoms: N_2  and  C_4
REMARK    4  A    between atoms: C_4  and  C_5
REMARK    5  A    between atoms: C_5  and  N_6
REMARK    6  A    between atoms: C_14  and  O_15
REMARK    7  A    between atoms: C_26  and  O_27
REMARK                            x       y       z     vdW  Elec       q    Type
REMARK                         _______ _______ _______ _____ _____    ______ ____
ROOT
ATOM      1  N   UNL     1       2.734   5.027  19.207  0.00  0.00    +0.000 NA
ATOM      2  C   UNL     1       1.982   5.450  20.409  0.00  0.00    +0.000 C 
ATOM      3  C   UNL     1       2.196   6.925  20.798  0.00  0.00    +0.000 C 
ATOM      4  N   UNL     1       1.878   7.784  19.652  0.00  0.00    +0.000 N 
ATOM      5  C   UNL     1       1.292   8.995  19.796  0.00  0.00    +0.000 A 
ATOM      6  N   UNL     1       1.367   9.963  18.911  0.00  0.00    +0.000 NA
ATOM      7  C   UNL     1       0.610  11.049  19.306  0.00  0.00    +0.000 A 
ATOM      8  C   UNL     1       0.481  12.250  18.591  0.00  0.00    +0.000 A 
ATOM      9  C   UNL     1      -0.330  13.271  19.098  0.00  0.00    +0.000 A 
ATOM     10  C   UNL     1      -1.024  13.124  20.313  0.00  0.00    +0.000 A 
ATOM     11  C   UNL     1      -0.897  11.928  21.029  0.00  0.00    +0.000 A 
ATOM     12  C   UNL     1      -0.073  10.907  20.512  0.00  0.00    +0.000 A 
ATOM     13  S   UNL     1       0.295   9.357  21.139  0.00  0.00    +0.000 S 
ATOM     14  C   UNL     1      -1.610  11.725  22.302  0.00  0.00    +0.000 C 
ATOM     15  O   UNL     1      -1.542  10.677  22.929  0.00  0.00    +0.000 OA
ATOM     16  C   UNL     1      -2.437  12.802  22.854  0.00  0.00    +0.000 A 
ATOM     17  C   UNL     1      -3.067  12.574  24.090  0.00  0.00    +0.000 A 
ATOM     18  C   UNL     1      -3.859  13.562  24.660  0.00  0.00    +0.000 A 
ATOM     19  C   UNL     1      -4.020  14.775  23.998  0.00  0.00    +0.000 A 
ATOM     20  C   UNL     1      -3.385  14.995  22.767  0.00  0.00    +0.000 A 
ATOM     21  C   UNL     1      -2.581  14.007  22.176  0.00  0.00    +0.000 A 
ATOM     22  C   UNL     1      -1.900  14.202  20.864  0.00  0.00    +0.000 C 
ATOM     23  O   UNL     1      -2.065  15.240  20.238  0.00  0.00    +0.000 OA
ATOM     24  C   UNL     1       2.545   7.453  18.394  0.00  0.00    +0.000 C 
ATOM     25  C   UNL     1       2.362   5.944  18.092  0.00  0.00    +0.000 C 
ENDROOT
BRANCH   9  26
ATOM     26  O   UNL     1      -0.418  14.422  18.365  0.00  0.00    +0.000 OA
ATOM     27  H   UNL     1      -1.017  15.061  18.784  0.00  0.00    +0.000 HD
ENDBRANCH   9  26
BRANCH  20  28
ATOM     28  O   UNL     1      -3.568  16.205  22.161  0.00  0.00    +0.000 OA
ATOM     29  H   UNL     1      -3.718  16.087  21.211  0.00  0.00    +0.000 HD
ENDBRANCH  20  28
BRANCH   1  30
ATOM     30  C   UNL     1       4.197   5.076  19.396  0.00  0.00    +0.000 C 
BRANCH  30  31
ATOM     31  C   UNL     1       5.036   4.180  18.458  0.00  0.00    +0.000 C 
BRANCH  31  33
ATOM     32  C   UNL     1       7.087   4.553  17.253  0.00  0.00    +0.000 C 
ATOM     33  N   UNL     1       6.488   4.429  18.582  0.00  0.00    +0.000 NA
ATOM     34  C   UNL     1       6.778   5.624  19.377  0.00  0.00    +0.000 C 
ENDBRANCH  31  33
ENDBRANCH  30  31
ENDBRANCH   1  30
TORSDOF 5
ENDMDL
MODEL 4
REMARK VINA RESULT:      -7.1      3.820      9.977
REMARK  Name = 
REMARK  7 active torsions:
REMARK  status: ('A' for Active; 'I' for Inactive)
REMARK    1  A    between atoms: C_1  and  N_2
REMARK    2  A    between atoms: N_2  and  C_3
REMARK    3  A    between atoms: N_2  and  C_4
REMARK    4  A    between atoms: C_4  and  C_5
REMARK    5  A    between atoms: C_5  and  N_6
REMARK    6  A    between atoms: C_14  and  O_15
REMARK    7  A    between atoms: C_26  and  O_27
REMARK                            x       y       z     vdW  Elec       q    Type
REMARK                         _______ _______ _______ _____ _____    ______ ____
ROOT
ATOM      1  N   UNL     1      -1.448  14.112  19.838  0.00  0.00    +0.000 NA
ATOM      2  C   UNL     1      -0.428  13.729  18.837  0.00  0.00    +0.000 C 
ATOM      3  C   UNL     1       0.687  12.822  19.389  0.00  0.00    +0.000 C 
ATOM      4  N   UNL     1       0.089  11.634  20.007  0.00  0.00    +0.000 N 
ATOM      5  C   UNL     1       0.668  10.413  19.940  0.00  0.00    +0.000 A 
ATOM      6  N   UNL     1       0.439   9.437  20.788  0.00  0.00    +0.000 NA
ATOM      7  C   UNL     1       1.121   8.293  20.419  0.00  0.00    +0.000 A 
ATOM      8  C   UNL     1       1.098   7.075  21.115  0.00  0.00    +0.000 A 
ATOM      9  C   UNL     1       1.827   5.986  20.625  0.00  0.00    +0.000 A 
ATOM     10  C   UNL     1       2.586   6.082  19.444  0.00  0.00    +0.000 A 
ATOM     11  C   UNL     1       2.612   7.296  18.747  0.00  0.00    +0.000 A 
ATOM     12  C   UNL     1       1.878   8.389  19.253  0.00  0.00    +0.000 A 
ATOM     13  S   UNL     1       1.712   9.984  18.654  0.00  0.00    +0.000 S 
ATOM     14  C   UNL     1       3.387   7.442  17.503  0.00  0.00    +0.000 C 
ATOM     15  O   UNL     1       3.398   8.482  16.858  0.00  0.00    +0.000 OA
ATOM     16  C   UNL     1       4.177   6.315  17.000  0.00  0.00    +0.000 A 
ATOM     17  C   UNL     1       4.929   6.515  15.830  0.00  0.00    +0.000 A 
ATOM     18  C   UNL     1       5.699   5.481  15.312  0.00  0.00    +0.000 A 
ATOM     19  C   UNL     1       5.718   4.252  15.962  0.00  0.00    +0.000 A 
ATOM     20  C   UNL     1       4.967   4.062  17.132  0.00  0.00    +0.000 A 
ATOM     21  C   UNL     1       4.183   5.096  17.668  0.00  0.00    +0.000 A 
ATOM     22  C   UNL     1       3.364   4.927  18.903  0.00  0.00    +0.000 C 
ATOM     23  O   UNL     1       3.324   3.841  19.466  0.00  0.00    +0.000 OA
ATOM     24  C   UNL     1      -0.953  11.880  21.003  0.00  0.00    +0.000 C 
ATOM     25  C   UNL     1      -2.005  12.858  20.421  0.00  0.00    +0.000 C 
ENDROOT
BRANCH   9  26
ATOM     26  O   UNL     1       1.774   4.824  21.342  0.00  0.00    +0.000 OA
ATOM     27  H   UNL     1       2.633   4.620  21.745  0.00  0.00    +0.000 HD
ENDBRANCH   9  26
BRANCH  20  28
ATOM     28  O   UNL     1       5.026   2.839  17.737  0.00  0.00    +0.000 OA
ATOM     29  H   UNL     1       5.821   2.774  18.288  0.00  0.00    +0.000 HD
ENDBRANCH  20  28
BRANCH   1  30
ATOM     30  C   UNL     1      -0.901  14.943  20.929  0.00  0.00    +0.000 C 
BRANCH  30  31
ATOM     31  C   UNL     1      -0.277  16.292  20.510  0.00  0.00    +0.000 C 
BRANCH  31  33
ATOM     32  C   UNL     1      -1.428  18.407  20.512  0.00  0.00    +0.000 C 
ATOM     33  N   UNL     1      -1.229  17.157  19.779  0.00  0.00    +0.000 NA
ATOM     34  C   UNL     1      -0.780  17.441  18.415  0.00  0.00    +0.000 C 
ENDBRANCH  31  33
ENDBRANCH  30  31
ENDBRANCH   1  30
TORSDOF 5
ENDMDL
MODEL 5
REMARK VINA RESULT:      -7.1      3.914      9.838
REMARK  Name = 
REMARK  7 active torsions:
REMARK  status: ('A' for Active; 'I' for Inactive)
REMARK    1  A    between atoms: C_1  and  N_2
REMARK    2  A    between atoms: N_2  and  C_3
REMARK    3  A    between atoms: N_2  and  C_4
REMARK    4  A    between atoms: C_4  and  C_5
REMARK    5  A    between atoms: C_5  and  N_6
REMARK    6  A    between atoms: C_14  and  O_15
REMARK    7  A    between atoms: C_26  and  O_27
REMARK                            x       y       z     vdW  Elec       q    Type
REMARK                         _______ _______ _______ _____ _____    ______ ____
ROOT
ATOM      1  N   UNL     1      -1.253  13.445  21.370  0.00  0.00    +0.000 NA
ATOM      2  C   UNL     1      -0.262  13.243  20.291  0.00  0.00    +0.000 C 
ATOM      3  C   UNL     1       0.843  12.226  20.633  0.00  0.00    +0.000 C 
ATOM      4  N   UNL     1       0.230  10.953  21.026  0.00  0.00    +0.000 N 
ATOM      5  C   UNL     1       0.781   9.757  20.713  0.00  0.00    +0.000 A 
ATOM      6  N   UNL     1       0.547   8.641  21.364  0.00  0.00    +0.000 NA
ATOM      7  C   UNL     1       1.196   7.577  20.766  0.00  0.00    +0.000 A 
ATOM      8  C   UNL     1       1.159   6.249  21.217  0.00  0.00    +0.000 A 
ATOM      9  C   UNL     1       1.854   5.261  20.511  0.00  0.00    +0.000 A 
ATOM     10  C   UNL     1       2.592   5.568  19.353  0.00  0.00    +0.000 A 
ATOM     11  C   UNL     1       2.631   6.892  18.901  0.00  0.00    +0.000 A 
ATOM     12  C   UNL     1       1.932   7.881  19.623  0.00  0.00    +0.000 A 
ATOM     13  S   UNL     1       1.790   9.564  19.345  0.00  0.00    +0.000 S 
ATOM     14  C   UNL     1       3.385   7.260  17.689  0.00  0.00    +0.000 C 
ATOM     15  O   UNL     1       3.407   8.404  17.256  0.00  0.00    +0.000 OA
ATOM     16  C   UNL     1       4.139   6.236  16.962  0.00  0.00    +0.000 A 
ATOM     17  C   UNL     1       4.874   6.643  15.834  0.00  0.00    +0.000 A 
ATOM     18  C   UNL     1       5.609   5.714  15.110  0.00  0.00    +0.000 A 
ATOM     19  C   UNL     1       5.614   4.383  15.513  0.00  0.00    +0.000 A 
ATOM     20  C   UNL     1       4.882   3.985  16.642  0.00  0.00    +0.000 A 
ATOM     21  C   UNL     1       4.132   4.912  17.384  0.00  0.00    +0.000 A 
ATOM     22  C   UNL     1       3.334   4.524  18.583  0.00  0.00    +0.000 C 
ATOM     23  O   UNL     1       3.280   3.351  18.929  0.00  0.00    +0.000 OA
ATOM     24  C   UNL     1      -0.786  11.023  22.075  0.00  0.00    +0.000 C 
ATOM     25  C   UNL     1      -1.827  12.113  21.715  0.00  0.00    +0.000 C 
ENDROOT
BRANCH   9  26
ATOM     26  O   UNL     1       1.789   3.984  20.993  0.00  0.00    +0.000 OA
ATOM     27  H   UNL     1       2.675   3.602  21.099  0.00  0.00    +0.000 HD
ENDBRANCH   9  26
BRANCH  20  28
ATOM     28  O   UNL     1       4.925   2.669  17.000  0.00  0.00    +0.000 OA
ATOM     29  H   UNL     1       5.364   2.568  17.858  0.00  0.00    +0.000 HD
ENDBRANCH  20  28
BRANCH   1  30
ATOM     30  C   UNL     1      -0.667  14.041  22.587  0.00  0.00    +0.000 C 
BRANCH  30  31
ATOM     31  C   UNL     1      -0.330  15.547  22.514  0.00  0.00    +0.000 C 
BRANCH  31  33
ATOM     32  C   UNL     1       2.047  15.444  22.144  0.00  0.00    +0.000 C 
ATOM     33  N   UNL     1       1.001  15.860  23.078  0.00  0.00    +0.000 NA
ATOM     34  C   UNL     1       1.145  17.283  23.392  0.00  0.00    +0.000 C 
ENDBRANCH  31  33
ENDBRANCH  30  31
ENDBRANCH   1  30
TORSDOF 5
ENDMDL
MODEL 6
REMARK VINA RESULT:      -7.1      2.264      3.220
REMARK  Name = 
REMARK  7 active torsions:
REMARK  status: ('A' for Active; 'I' for Inactive)
REMARK    1  A    between atoms: C_1  and  N_2
REMARK    2  A    between atoms: N_2  and  C_3
REMARK    3  A    between atoms: N_2  and  C_4
REMARK    4  A    between atoms: C_4  and  C_5
REMARK    5  A    between atoms: C_5  and  N_6
REMARK    6  A    between atoms: C_14  and  O_15
REMARK    7  A    between atoms: C_26  and  O_27
REMARK                            x       y       z     vdW  Elec       q    Type
REMARK                         _______ _______ _______ _____ _____    ______ ____
ROOT
ATOM      1  N   UNL     1       6.340   4.949  16.759  0.00  0.00    +0.000 NA
ATOM      2  C   UNL     1       5.932   6.311  16.350  0.00  0.00    +0.000 C 
ATOM      3  C   UNL     1       4.431   6.602  16.535  0.00  0.00    +0.000 C 
ATOM      4  N   UNL     1       4.050   6.338  17.926  0.00  0.00    +0.000 N 
ATOM      5  C   UNL     1       3.131   7.086  18.580  0.00  0.00    +0.000 A 
ATOM      6  N   UNL     1       2.447   6.674  19.623  0.00  0.00    +0.000 NA
ATOM      7  C   UNL     1       1.641   7.684  20.112  0.00  0.00    +0.000 A 
ATOM      8  C   UNL     1       0.779   7.570  21.214  0.00  0.00    +0.000 A 
ATOM      9  C   UNL     1       0.023   8.677  21.615  0.00  0.00    +0.000 A 
ATOM     10  C   UNL     1       0.106   9.908  20.939  0.00  0.00    +0.000 A 
ATOM     11  C   UNL     1       0.965  10.025  19.839  0.00  0.00    +0.000 A 
ATOM     12  C   UNL     1       1.719   8.902  19.440  0.00  0.00    +0.000 A 
ATOM     13  S   UNL     1       2.832   8.716  18.153  0.00  0.00    +0.000 S 
ATOM     14  C   UNL     1       1.092  11.296  19.105  0.00  0.00    +0.000 C 
ATOM     15  O   UNL     1       1.860  11.432  18.162  0.00  0.00    +0.000 OA
ATOM     16  C   UNL     1       0.280  12.450  19.501  0.00  0.00    +0.000 A 
ATOM     17  C   UNL     1       0.408  13.629  18.746  0.00  0.00    +0.000 A 
ATOM     18  C   UNL     1      -0.339  14.751  19.075  0.00  0.00    +0.000 A 
ATOM     19  C   UNL     1      -1.215  14.696  20.155  0.00  0.00    +0.000 A 
ATOM     20  C   UNL     1      -1.339  13.515  20.901  0.00  0.00    +0.000 A 
ATOM     21  C   UNL     1      -0.589  12.371  20.582  0.00  0.00    +0.000 A 
ATOM     22  C   UNL     1      -0.688  11.102  21.359  0.00  0.00    +0.000 C 
ATOM     23  O   UNL     1      -1.413  11.042  22.344  0.00  0.00    +0.000 OA
ATOM     24  C   UNL     1       4.418   5.026  18.458  0.00  0.00    +0.000 C 
ATOM     25  C   UNL     1       5.918   4.756  18.176  0.00  0.00    +0.000 C 
ENDROOT
BRANCH   9  26
ATOM     26  O   UNL     1      -0.804   8.513  22.691  0.00  0.00    +0.000 OA
ATOM     27  H   UNL     1      -0.537   7.750  23.226  0.00  0.00    +0.000 HD
ENDBRANCH   9  26
BRANCH  20  28
ATOM     28  O   UNL     1      -2.217  13.510  21.947  0.00  0.00    +0.000 OA
ATOM     29  H   UNL     1      -2.392  12.601  22.234  0.00  0.00    +0.000 HD
ENDBRANCH  20  28
BRANCH   1  30
ATOM     30  C   UNL     1       5.728   3.892  15.931  0.00  0.00    +0.000 C 
BRANCH  30  31
ATOM     31  C   UNL     1       5.441   4.261  14.459  0.00  0.00    +0.000 C 
BRANCH  31  33
ATOM     32  C   UNL     1       5.950   3.299  12.310  0.00  0.00    +0.000 C 
ATOM     33  N   UNL     1       6.523   3.837  13.545  0.00  0.00    +0.000 NA
ATOM     34  C   UNL     1       7.445   4.932  13.235  0.00  0.00    +0.000 C 
ENDBRANCH  31  33
ENDBRANCH  30  31
ENDBRANCH   1  30
TORSDOF 5
ENDMDL
MODEL 7
REMARK VINA RESULT:      -7.0      3.805      9.806
REMARK  Name = 
REMARK  7 active torsions:
REMARK  status: ('A' for Active; 'I' for Inactive)
REMARK    1  A    between atoms: C_1  and  N_2
REMARK    2  A    between atoms: N_2  and  C_3
REMARK    3  A    between atoms: N_2  and  C_4
REMARK    4  A    between atoms: C_4  and  C_5
REMARK    5  A    between atoms: C_5  and  N_6
REMARK    6  A    between atoms: C_14  and  O_15
REMARK    7  A    between atoms: C_26  and  O_27
REMARK                            x       y       z     vdW  Elec       q    Type
REMARK                         _______ _______ _______ _____ _____    ______ ____
ROOT
ATOM      1  N   UNL     1      -1.419  14.067  20.060  0.00  0.00    +0.000 NA
ATOM      2  C   UNL     1      -0.405  13.706  19.046  0.00  0.00    +0.000 C 
ATOM      3  C   UNL     1       0.707  12.778  19.569  0.00  0.00    +0.000 C 
ATOM      4  N   UNL     1       0.105  11.577  20.158  0.00  0.00    +0.000 N 
ATOM      5  C   UNL     1       0.678  10.355  20.056  0.00  0.00    +0.000 A 
ATOM      6  N   UNL     1       0.446   9.358  20.879  0.00  0.00    +0.000 NA
ATOM      7  C   UNL     1       1.121   8.222  20.476  0.00  0.00    +0.000 A 
ATOM      8  C   UNL     1       1.094   6.985  21.140  0.00  0.00    +0.000 A 
ATOM      9  C   UNL     1       1.816   5.906  20.618  0.00  0.00    +0.000 A 
ATOM     10  C   UNL     1       2.571   6.030  19.438  0.00  0.00    +0.000 A 
ATOM     11  C   UNL     1       2.601   7.262  18.773  0.00  0.00    +0.000 A 
ATOM     12  C   UNL     1       1.874   8.345  19.311  0.00  0.00    +0.000 A 
ATOM     13  S   UNL     1       1.715   9.956  18.755  0.00  0.00    +0.000 S 
ATOM     14  C   UNL     1       3.372   7.437  17.530  0.00  0.00    +0.000 C 
ATOM     15  O   UNL     1       3.387   8.493  16.914  0.00  0.00    +0.000 OA
ATOM     16  C   UNL     1       4.155   6.319  16.995  0.00  0.00    +0.000 A 
ATOM     17  C   UNL     1       4.905   6.547  15.828  0.00  0.00    +0.000 A 
ATOM     18  C   UNL     1       5.666   5.524  15.279  0.00  0.00    +0.000 A 
ATOM     19  C   UNL     1       5.682   4.277  15.897  0.00  0.00    +0.000 A 
ATOM     20  C   UNL     1       4.934   4.060  17.064  0.00  0.00    +0.000 A 
ATOM     21  C   UNL     1       4.157   5.083  17.630  0.00  0.00    +0.000 A 
ATOM     22  C   UNL     1       3.342   4.885  18.863  0.00  0.00    +0.000 C 
ATOM     23  O   UNL     1       3.298   3.785  19.397  0.00  0.00    +0.000 OA
ATOM     24  C   UNL     1      -0.932  11.802  21.164  0.00  0.00    +0.000 C 
ATOM     25  C   UNL     1      -1.981  12.800  20.611  0.00  0.00    +0.000 C 
ENDROOT
BRANCH   9  26
ATOM     26  O   UNL     1       1.760   4.725  21.304  0.00  0.00    +0.000 OA
ATOM     27  H   UNL     1       0.917   4.270  21.151  0.00  0.00    +0.000 HD
ENDBRANCH   9  26
BRANCH  20  28
ATOM     28  O   UNL     1       4.989   2.821  17.635  0.00  0.00    +0.000 OA
ATOM     29  H   UNL     1       4.235   2.692  18.231  0.00  0.00    +0.000 HD
ENDBRANCH  20  28
BRANCH   1  30
ATOM     30  C   UNL     1      -0.864  14.865  21.171  0.00  0.00    +0.000 C 
BRANCH  30  31
ATOM     31  C   UNL     1      -0.335  16.268  20.803  0.00  0.00    +0.000 C 
BRANCH  31  33
ATOM     32  C   UNL     1       1.738  16.680  19.647  0.00  0.00    +0.000 C 
ATOM     33  N   UNL     1       1.133  16.378  20.945  0.00  0.00    +0.000 NA
ATOM     34  C   UNL     1       1.518  17.395  21.926  0.00  0.00    +0.000 C 
ENDBRANCH  31  33
ENDBRANCH  30  31
ENDBRANCH   1  30
TORSDOF 5
ENDMDL
MODEL 8
REMARK VINA RESULT:      -7.0      3.832      9.974
REMARK  Name = 
REMARK  7 active torsions:
REMARK  status: ('A' for Active; 'I' for Inactive)
REMARK    1  A    between atoms: C_1  and  N_2
REMARK    2  A    between atoms: N_2  and  C_3
REMARK    3  A    between atoms: N_2  and  C_4
REMARK    4  A    between atoms: C_4  and  C_5
REMARK    5  A    between atoms: C_5  and  N_6
REMARK    6  A    between atoms: C_14  and  O_15
REMARK    7  A    between atoms: C_26  and  O_27
REMARK                            x       y       z     vdW  Elec       q    Type
REMARK                         _______ _______ _______ _____ _____    ______ ____
ROOT
ATOM      1  N   UNL     1      -1.566  13.922  20.276  0.00  0.00    +0.000 NA
ATOM      2  C   UNL     1      -0.548  13.604  19.250  0.00  0.00    +0.000 C 
ATOM      3  C   UNL     1       0.584  12.686  19.749  0.00  0.00    +0.000 C 
ATOM      4  N   UNL     1       0.006  11.460  20.311  0.00  0.00    +0.000 N 
ATOM      5  C   UNL     1       0.603  10.252  20.179  0.00  0.00    +0.000 A 
ATOM      6  N   UNL     1       0.393   9.232  20.979  0.00  0.00    +0.000 NA
ATOM      7  C   UNL     1       1.089   8.119  20.548  0.00  0.00    +0.000 A 
ATOM      8  C   UNL     1       1.088   6.867  21.183  0.00  0.00    +0.000 A 
ATOM      9  C   UNL     1       1.829   5.814  20.634  0.00  0.00    +0.000 A 
ATOM     10  C   UNL     1       2.578   5.980  19.455  0.00  0.00    +0.000 A 
ATOM     11  C   UNL     1       2.581   7.227  18.819  0.00  0.00    +0.000 A 
ATOM     12  C   UNL     1       1.835   8.283  19.384  0.00  0.00    +0.000 A 
ATOM     13  S   UNL     1       1.644   9.903  18.867  0.00  0.00    +0.000 S 
ATOM     14  C   UNL     1       3.345   7.446  17.579  0.00  0.00    +0.000 C 
ATOM     15  O   UNL     1       3.337   8.517  16.987  0.00  0.00    +0.000 OA
ATOM     16  C   UNL     1       4.147   6.357  17.015  0.00  0.00    +0.000 A 
ATOM     17  C   UNL     1       4.889   6.626  15.851  0.00  0.00    +0.000 A 
ATOM     18  C   UNL     1       5.668   5.631  15.277  0.00  0.00    +0.000 A 
ATOM     19  C   UNL     1       5.710   4.371  15.865  0.00  0.00    +0.000 A 
ATOM     20  C   UNL     1       4.970   4.112  17.029  0.00  0.00    +0.000 A 
ATOM     21  C   UNL     1       4.175   5.106  17.621  0.00  0.00    +0.000 A 
ATOM     22  C   UNL     1       3.368   4.864  18.852  0.00  0.00    +0.000 C 
ATOM     23  O   UNL     1       3.347   3.751  19.360  0.00  0.00    +0.000 OA
ATOM     24  C   UNL     1      -1.032  11.642  21.325  0.00  0.00    +0.000 C 
ATOM     25  C   UNL     1      -2.101  12.632  20.799  0.00  0.00    +0.000 C 
ENDROOT
BRANCH   9  26
ATOM     26  O   UNL     1       1.797   4.617  21.293  0.00  0.00    +0.000 OA
ATOM     27  H   UNL     1       1.211   3.985  20.846  0.00  0.00    +0.000 HD
ENDBRANCH   9  26
BRANCH  20  28
ATOM     28  O   UNL     1       5.050   2.862  17.572  0.00  0.00    +0.000 OA
ATOM     29  H   UNL     1       5.912   2.734  17.997  0.00  0.00    +0.000 HD
ENDBRANCH  20  28
BRANCH   1  30
ATOM     30  C   UNL     1      -1.022  14.704  21.403  0.00  0.00    +0.000 C 
BRANCH  30  31
ATOM     31  C   UNL     1      -1.754  16.024  21.731  0.00  0.00    +0.000 C 
BRANCH  31  33
ATOM     32  C   UNL     1      -4.078  15.802  22.324  0.00  0.00    +0.000 C 
ATOM     33  N   UNL     1      -3.144  16.046  21.224  0.00  0.00    +0.000 NA
ATOM     34  C   UNL     1      -3.469  17.309  20.560  0.00  0.00    +0.000 C 
ENDBRANCH  31  33
ENDBRANCH  30  31
ENDBRANCH   1  30
TORSDOF 5
ENDMDL
MODEL 9
REMARK VINA RESULT:      -6.9      3.826     10.110
REMARK  Name = 
REMARK  7 active torsions:
REMARK  status: ('A' for Active; 'I' for Inactive)
REMARK    1  A    between atoms: C_1  and  N_2
REMARK    2  A    between atoms: N_2  and  C_3
REMARK    3  A    between atoms: N_2  and  C_4
REMARK    4  A    between atoms: C_4  and  C_5
REMARK    5  A    between atoms: C_5  and  N_6
REMARK    6  A    between atoms: C_14  and  O_15
REMARK    7  A    between atoms: C_26  and  O_27
REMARK                            x       y       z     vdW  Elec       q    Type
REMARK                         _______ _______ _______ _____ _____    ______ ____
ROOT
ATOM      1  N   UNL     1      -1.203  13.867  22.562  0.00  0.00    +0.000 NA
ATOM      2  C   UNL     1      -1.179  12.474  23.059  0.00  0.00    +0.000 C 
ATOM      3  C   UNL     1      -1.277  11.408  21.951  0.00  0.00    +0.000 C 
ATOM      4  N   UNL     1      -0.214  11.630  20.965  0.00  0.00    +0.000 N 
ATOM      5  C   UNL     1       0.419  10.610  20.340  0.00  0.00    +0.000 A 
ATOM      6  N   UNL     1       1.041  10.719  19.189  0.00  0.00    +0.000 NA
ATOM      7  C   UNL     1       1.648   9.527  18.843  0.00  0.00    +0.000 A 
ATOM      8  C   UNL     1       2.386   9.304  17.671  0.00  0.00    +0.000 A 
ATOM      9  C   UNL     1       2.961   8.048  17.446  0.00  0.00    +0.000 A 
ATOM     10  C   UNL     1       2.818   6.998  18.371  0.00  0.00    +0.000 A 
ATOM     11  C   UNL     1       2.081   7.217  19.542  0.00  0.00    +0.000 A 
ATOM     12  C   UNL     1       1.501   8.485  19.756  0.00  0.00    +0.000 A 
ATOM     13  S   UNL     1       0.550   9.062  21.057  0.00  0.00    +0.000 S 
ATOM     14  C   UNL     1       1.910   6.150  20.543  0.00  0.00    +0.000 C 
ATOM     15  O   UNL     1       1.299   6.327  21.588  0.00  0.00    +0.000 OA
ATOM     16  C   UNL     1       2.484   4.824  20.300  0.00  0.00    +0.000 A 
ATOM     17  C   UNL     1       2.261   3.828  21.267  0.00  0.00    +0.000 A 
ATOM     18  C   UNL     1       2.779   2.553  21.085  0.00  0.00    +0.000 A 
ATOM     19  C   UNL     1       3.516   2.272  19.939  0.00  0.00    +0.000 A 
ATOM     20  C   UNL     1       3.731   3.270  18.977  0.00  0.00    +0.000 A 
ATOM     21  C   UNL     1       3.215   4.565  19.146  0.00  0.00    +0.000 A 
ATOM     22  C   UNL     1       3.431   5.654  18.151  0.00  0.00    +0.000 C 
ATOM     23  O   UNL     1       4.118   5.448  17.159  0.00  0.00    +0.000 OA
ATOM     24  C   UNL     1      -0.119  12.981  20.412  0.00  0.00    +0.000 C 
ATOM     25  C   UNL     1      -0.102  14.013  21.568  0.00  0.00    +0.000 C 
ENDROOT
BRANCH   9  26
ATOM     26  O   UNL     1       3.667   7.881  16.287  0.00  0.00    +0.000 OA
ATOM     27  H   UNL     1       4.036   6.986  16.226  0.00  0.00    +0.000 HD
ENDBRANCH   9  26
BRANCH  20  28
ATOM     28  O   UNL     1       4.454   2.942  17.867  0.00  0.00    +0.000 OA
ATOM     29  H   UNL     1       5.054   2.206  18.062  0.00  0.00    +0.000 HD
ENDBRANCH  20  28
BRANCH   1  30
ATOM     30  C   UNL     1      -2.480  14.226  21.915  0.00  0.00    +0.000 C 
BRANCH  30  31
ATOM     31  C   UNL     1      -3.700  14.372  22.851  0.00  0.00    +0.000 C 
BRANCH  31  33
ATOM     32  C   UNL     1      -4.587  12.898  21.166  0.00  0.00    +0.000 C 
ATOM     33  N   UNL     1      -4.931  13.786  22.277  0.00  0.00    +0.000 NA
ATOM     34  C   UNL     1      -5.714  13.059  23.277  0.00  0.00    +0.000 C 
ENDBRANCH  31  33
ENDBRANCH  30  31
ENDBRANCH   1  30
TORSDOF 5
ENDMDL
