MODEL 1
REMARK VINA RESULT:      -8.1      0.000      0.000
REMARK  Name = 
REMARK  8 active torsions:
REMARK  status: ('A' for Active; 'I' for Inactive)
REMARK    1  A    between atoms: C_2  and  C_3
REMARK    2  A    between atoms: C_9  and  C_10
REMARK    3  A    between atoms: C_13  and  C_14
REMARK    4  A    between atoms: C_18  and  O_19
REMARK    5  A    between atoms: O_19  and  C_20
REMARK    6  A    between atoms: C_20  and  C_21
REMARK    7  A    between atoms: C_25  and  C_26
REMARK    8  A    between atoms: C_26  and  O_28
REMARK                            x       y       z     vdW  Elec       q    Type
REMARK                         _______ _______ _______ _____ _____    ______ ____
ROOT
ATOM      1  C   UNL     1       0.737   9.521  18.928  0.00  0.00    +0.000 A 
ATOM      2  C   UNL     1       1.487   9.523  17.745  0.00  0.00    +0.000 A 
ATOM      3  C   UNL     1       2.471   8.556  17.505  0.00  0.00    +0.000 A 
ATOM      4  C   UNL     1       2.812   7.568  18.449  0.00  0.00    +0.000 A 
ATOM      5  C   UNL     1       2.084   7.580  19.660  0.00  0.00    +0.000 A 
ATOM      6  C   UNL     1       1.063   8.528  19.877  0.00  0.00    +0.000 A 
ATOM      7  F   UNL     1       0.363   8.486  21.020  0.00  0.00    +0.000 F 
ENDROOT
BRANCH   1  14
ATOM      8  C   UNL     1      -0.205  11.692  19.949  0.00  0.00    +0.000 A 
ATOM      9  N   UNL     1      -1.233  12.574  20.145  0.00  0.00    +0.000 NA
ATOM     10  C   UNL     1      -2.398  12.281  19.547  0.00  0.00    +0.000 A 
ATOM     11  N   UNL     1      -3.417  13.218  19.654  0.00  0.00    +0.000 N 
ATOM     12  C   UNL     1      -2.528  11.131  18.782  0.00  0.00    +0.000 A 
ATOM     13  N   UNL     1      -1.530  10.228  18.620  0.00  0.00    +0.000 NA
ATOM     14  C   UNL     1      -0.329  10.517  19.196  0.00  0.00    +0.000 A 
ATOM     15  H   UNL     1      -3.131  13.941  20.311  0.00  0.00    +0.000 HD
ATOM     16  H   UNL     1      -4.317  12.816  19.885  0.00  0.00    +0.000 HD
BRANCH   8  18
ATOM     17  N   UNL     1       2.001  12.446  21.094  0.00  0.00    +0.000 NA
ATOM     18  C   UNL     1       1.025  12.105  20.565  0.00  0.00    +0.000 C 
ENDBRANCH   8  18
ENDBRANCH   1  14
BRANCH   4  19
ATOM     19  C   UNL     1       3.920   6.472  18.123  0.00  0.00    +0.000 C 
ATOM     20  C   UNL     1       3.547   5.254  17.222  0.00  0.00    +0.000 C 
ATOM     21  C   UNL     1       4.997   5.280  16.707  0.00  0.00    +0.000 C 
ATOM     22  C   UNL     1       5.008   6.782  17.052  0.00  0.00    +0.000 C 
ENDBRANCH   4  19
BRANCH   5  23
ATOM     23  O   UNL     1       2.499   6.633  20.569  0.00  0.00    +0.000 OA
BRANCH  23  24
ATOM     24  C   UNL     1       1.553   5.663  21.015  0.00  0.00    +0.000 C 
BRANCH  24  25
ATOM     25  C   UNL     1       1.742   4.378  20.231  0.00  0.00    +0.000 A 
ATOM     26  C   UNL     1       0.666   3.824  19.521  0.00  0.00    +0.000 A 
ATOM     27  C   UNL     1       0.796   2.595  18.872  0.00  0.00    +0.000 A 
ATOM     28  C   UNL     1       2.006   1.903  18.920  0.00  0.00    +0.000 A 
ATOM     29  C   UNL     1       3.093   2.438  19.620  0.00  0.00    +0.000 A 
ATOM     30  C   UNL     1       2.951   3.663  20.291  0.00  0.00    +0.000 A 
BRANCH  29  31
ATOM     31  C   UNL     1       4.346   1.641  19.677  0.00  0.00    +0.000 C 
ATOM     32  O   UNL     1       5.189   1.798  20.545  0.00  0.00    +0.000 OA
BRANCH  31  33
ATOM     33  O   UNL     1       4.447   0.701  18.715  0.00  0.00    +0.000 OA
ATOM     34  H   UNL     1       3.705   0.674  18.084  0.00  0.00    +0.000 HD
ENDBRANCH  31  33
ENDBRANCH  29  31
ENDBRANCH  24  25
ENDBRANCH  23  24
ENDBRANCH   5  23
TORSDOF 8
ENDMDL
MODEL 2
REMARK VINA RESULT:      -8.0      2.376      4.438
REMARK  Name = 
REMARK  8 active torsions:
REMARK  status: ('A' for Active; 'I' for Inactive)
REMARK    1  A    between atoms: C_2  and  C_3
REMARK    2  A    between atoms: C_9  and  C_10
REMARK    3  A    between atoms: C_13  and  C_14
REMARK    4  A    between atoms: C_18  and  O_19
REMARK    5  A    between atoms: O_19  and  C_20
REMARK    6  A    between atoms: C_20  and  C_21
REMARK    7  A    between atoms: C_25  and  C_26
REMARK    8  A    between atoms: C_26  and  O_28
REMARK                            x       y       z     vdW  Elec       q    Type
REMARK                         _______ _______ _______ _____ _____    ______ ____
ROOT
ATOM      1  C   UNL     1       1.034   9.383  20.034  0.00  0.00    +0.000 A 
ATOM      2  C   UNL     1       0.730   8.519  21.092  0.00  0.00    +0.000 A 
ATOM      3  C   UNL     1       1.169   7.190  21.096  0.00  0.00    +0.000 A 
ATOM      4  C   UNL     1       1.882   6.622  20.023  0.00  0.00    +0.000 A 
ATOM      5  C   UNL     1       2.162   7.477  18.933  0.00  0.00    +0.000 A 
ATOM      6  C   UNL     1       1.757   8.827  18.956  0.00  0.00    +0.000 A 
ATOM      7  F   UNL     1       2.075   9.624  17.925  0.00  0.00    +0.000 F 
ENDROOT
BRANCH   1  14
ATOM      8  C   UNL     1      -0.400  11.363  19.216  0.00  0.00    +0.000 A 
ATOM      9  N   UNL     1      -0.753  12.685  19.263  0.00  0.00    +0.000 NA
ATOM     10  C   UNL     1      -0.102  13.448  20.153  0.00  0.00    +0.000 A 
ATOM     11  N   UNL     1      -0.520  14.766  20.282  0.00  0.00    +0.000 N 
ATOM     12  C   UNL     1       0.881  12.902  20.966  0.00  0.00    +0.000 A 
ATOM     13  N   UNL     1       1.269  11.605  20.895  0.00  0.00    +0.000 NA
ATOM     14  C   UNL     1       0.604  10.803  20.016  0.00  0.00    +0.000 A 
ATOM     15  H   UNL     1      -1.195  14.970  19.548  0.00  0.00    +0.000 HD
ATOM     16  H   UNL     1       0.240  15.435  20.307  0.00  0.00    +0.000 HD
BRANCH   8  18
ATOM     17  N   UNL     1      -1.792   9.987  17.509  0.00  0.00    +0.000 NA
ATOM     18  C   UNL     1      -1.183  10.597  18.287  0.00  0.00    +0.000 C 
ENDBRANCH   8  18
ENDBRANCH   1  14
BRANCH   4  19
ATOM     19  C   UNL     1       2.385   5.111  20.081  0.00  0.00    +0.000 C 
ATOM     20  C   UNL     1       2.249   4.313  21.414  0.00  0.00    +0.000 C 
ATOM     21  C   UNL     1       2.038   3.053  20.556  0.00  0.00    +0.000 C 
ATOM     22  C   UNL     1       1.504   3.989  19.455  0.00  0.00    +0.000 C 
ENDBRANCH   4  19
BRANCH   5  23
ATOM     23  O   UNL     1       2.806   6.855  17.888  0.00  0.00    +0.000 OA
BRANCH  23  24
ATOM     24  C   UNL     1       4.003   7.445  17.382  0.00  0.00    +0.000 C 
BRANCH  24  25
ATOM     25  C   UNL     1       5.042   6.363  17.160  0.00  0.00    +0.000 A 
ATOM     26  C   UNL     1       5.658   5.744  18.259  0.00  0.00    +0.000 A 
ATOM     27  C   UNL     1       6.682   4.814  18.073  0.00  0.00    +0.000 A 
ATOM     28  C   UNL     1       7.105   4.486  16.786  0.00  0.00    +0.000 A 
ATOM     29  C   UNL     1       6.505   5.089  15.675  0.00  0.00    +0.000 A 
ATOM     30  C   UNL     1       5.491   6.041  15.866  0.00  0.00    +0.000 A 
BRANCH  29  31
ATOM     31  C   UNL     1       7.021   4.739  14.327  0.00  0.00    +0.000 C 
ATOM     32  O   UNL     1       7.847   5.417  13.738  0.00  0.00    +0.000 OA
BRANCH  31  33
ATOM     33  O   UNL     1       6.531   3.584  13.831  0.00  0.00    +0.000 OA
ATOM     34  H   UNL     1       5.746   3.236  14.292  0.00  0.00    +0.000 HD
ENDBRANCH  31  33
ENDBRANCH  29  31
ENDBRANCH  24  25
ENDBRANCH  23  24
ENDBRANCH   5  23
TORSDOF 8
ENDMDL
MODEL 3
REMARK VINA RESULT:      -7.9      4.505      8.301
REMARK  Name = 
REMARK  8 active torsions:
REMARK  status: ('A' for Active; 'I' for Inactive)
REMARK    1  A    between atoms: C_2  and  C_3
REMARK    2  A    between atoms: C_9  and  C_10
REMARK    3  A    between atoms: C_13  and  C_14
REMARK    4  A    between atoms: C_18  and  O_19
REMARK    5  A    between atoms: O_19  and  C_20
REMARK    6  A    between atoms: C_20  and  C_21
REMARK    7  A    between atoms: C_25  and  C_26
REMARK    8  A    between atoms: C_26  and  O_28
REMARK                            x       y       z     vdW  Elec       q    Type
REMARK                         _______ _______ _______ _____ _____    ______ ____
ROOT
ATOM      1  C   UNL     1       4.797   4.479  16.946  0.00  0.00    +0.000 A 
ATOM      2  C   UNL     1       4.774   3.291  17.687  0.00  0.00    +0.000 A 
ATOM      3  C   UNL     1       3.958   3.152  18.816  0.00  0.00    +0.000 A 
ATOM      4  C   UNL     1       3.164   4.203  19.314  0.00  0.00    +0.000 A 
ATOM      5  C   UNL     1       3.208   5.418  18.594  0.00  0.00    +0.000 A 
ATOM      6  C   UNL     1       3.997   5.537  17.431  0.00  0.00    +0.000 A 
ATOM      7  F   UNL     1       3.984   6.691  16.746  0.00  0.00    +0.000 F 
ENDROOT
BRANCH   1  14
ATOM      8  C   UNL     1       6.804   5.404  15.619  0.00  0.00    +0.000 A 
ATOM      9  N   UNL     1       7.532   5.500  14.464  0.00  0.00    +0.000 NA
ATOM     10  C   UNL     1       7.087   4.796  13.413  0.00  0.00    +0.000 A 
ATOM     11  N   UNL     1       7.872   4.805  12.267  0.00  0.00    +0.000 N 
ATOM     12  C   UNL     1       5.939   4.025  13.517  0.00  0.00    +0.000 A 
ATOM     13  N   UNL     1       5.185   3.959  14.642  0.00  0.00    +0.000 NA
ATOM     14  C   UNL     1       5.632   4.645  15.731  0.00  0.00    +0.000 A 
ATOM     15  H   UNL     1       8.620   5.484  12.387  0.00  0.00    +0.000 HD
ATOM     16  H   UNL     1       7.346   4.952  11.414  0.00  0.00    +0.000 HD
BRANCH   8  18
ATOM     17  N   UNL     1       7.810   6.713  17.624  0.00  0.00    +0.000 NA
ATOM     18  C   UNL     1       7.377   6.132  16.717  0.00  0.00    +0.000 C 
ENDBRANCH   8  18
ENDBRANCH   1  14
BRANCH   4  19
ATOM     19  C   UNL     1       2.230   3.992  20.587  0.00  0.00    +0.000 C 
ATOM     20  C   UNL     1       0.870   3.247  20.421  0.00  0.00    +0.000 C 
ATOM     21  C   UNL     1       1.070   2.712  21.850  0.00  0.00    +0.000 C 
ATOM     22  C   UNL     1       2.583   2.877  21.615  0.00  0.00    +0.000 C 
ENDBRANCH   4  19
BRANCH   5  23
ATOM     23  O   UNL     1       2.462   6.428  19.158  0.00  0.00    +0.000 OA
BRANCH  23  24
ATOM     24  C   UNL     1       2.608   7.749  18.639  0.00  0.00    +0.000 C 
BRANCH  24  25
ATOM     25  C   UNL     1       1.512   8.635  19.202  0.00  0.00    +0.000 A 
ATOM     26  C   UNL     1       0.909   9.608  18.391  0.00  0.00    +0.000 A 
ATOM     27  C   UNL     1      -0.032  10.493  18.918  0.00  0.00    +0.000 A 
ATOM     28  C   UNL     1      -0.389  10.416  20.265  0.00  0.00    +0.000 A 
ATOM     29  C   UNL     1       0.199   9.452  21.091  0.00  0.00    +0.000 A 
ATOM     30  C   UNL     1       1.163   8.579  20.564  0.00  0.00    +0.000 A 
BRANCH  29  31
ATOM     31  C   UNL     1      -0.181   9.440  22.528  0.00  0.00    +0.000 C 
ATOM     32  O   UNL     1       0.143  10.323  23.305  0.00  0.00    +0.000 OA
BRANCH  31  33
ATOM     33  O   UNL     1      -0.954   8.394  22.886  0.00  0.00    +0.000 OA
ATOM     34  H   UNL     1      -0.563   7.516  22.720  0.00  0.00    +0.000 HD
ENDBRANCH  31  33
ENDBRANCH  29  31
ENDBRANCH  24  25
ENDBRANCH  23  24
ENDBRANCH   5  23
TORSDOF 8
ENDMDL
MODEL 4
REMARK VINA RESULT:      -7.9      1.045      1.902
REMARK  Name = 
REMARK  8 active torsions:
REMARK  status: ('A' for Active; 'I' for Inactive)
REMARK    1  A    between atoms: C_2  and  C_3
REMARK    2  A    between atoms: C_9  and  C_10
REMARK    3  A    between atoms: C_13  and  C_14
REMARK    4  A    between atoms: C_18  and  O_19
REMARK    5  A    between atoms: O_19  and  C_20
REMARK    6  A    between atoms: C_20  and  C_21
REMARK    7  A    between atoms: C_25  and  C_26
REMARK    8  A    between atoms: C_26  and  O_28
REMARK                            x       y       z     vdW  Elec       q    Type
REMARK                         _______ _______ _______ _____ _____    ______ ____
ROOT
ATOM      1  C   UNL     1       1.033   9.603  19.363  0.00  0.00    +0.000 A 
ATOM      2  C   UNL     1       1.748   9.714  18.164  0.00  0.00    +0.000 A 
ATOM      3  C   UNL     1       2.580   8.683  17.714  0.00  0.00    +0.000 A 
ATOM      4  C   UNL     1       2.800   7.505  18.454  0.00  0.00    +0.000 A 
ATOM      5  C   UNL     1       2.110   7.399  19.683  0.00  0.00    +0.000 A 
ATOM      6  C   UNL     1       1.238   8.422  20.109  0.00  0.00    +0.000 A 
ATOM      7  F   UNL     1       0.566   8.271  21.260  0.00  0.00    +0.000 F 
ENDROOT
BRANCH   1  14
ATOM      8  C   UNL     1      -1.132  11.002  19.326  0.00  0.00    +0.000 A 
ATOM      9  N   UNL     1      -1.924  11.994  19.838  0.00  0.00    +0.000 NA
ATOM     10  C   UNL     1      -1.454  12.642  20.915  0.00  0.00    +0.000 A 
ATOM     11  N   UNL     1      -2.291  13.580  21.504  0.00  0.00    +0.000 N 
ATOM     12  C   UNL     1      -0.221  12.308  21.456  0.00  0.00    +0.000 A 
ATOM     13  N   UNL     1       0.591  11.359  20.929  0.00  0.00    +0.000 NA
ATOM     14  C   UNL     1       0.124  10.669  19.851  0.00  0.00    +0.000 A 
ATOM     15  H   UNL     1      -3.106  13.714  20.908  0.00  0.00    +0.000 HD
ATOM     16  H   UNL     1      -1.830  14.452  21.732  0.00  0.00    +0.000 HD
BRANCH   8  18
ATOM     17  N   UNL     1      -2.185   9.769  17.298  0.00  0.00    +0.000 NA
ATOM     18  C   UNL     1      -1.728  10.312  18.217  0.00  0.00    +0.000 C 
ENDBRANCH   8  18
ENDBRANCH   1  14
BRANCH   4  19
ATOM     19  C   UNL     1       3.734   6.345  17.890  0.00  0.00    +0.000 C 
ATOM     20  C   UNL     1       4.609   6.616  16.627  0.00  0.00    +0.000 C 
ATOM     21  C   UNL     1       5.650   5.657  17.229  0.00  0.00    +0.000 C 
ATOM     22  C   UNL     1       5.079   6.031  18.610  0.00  0.00    +0.000 C 
ENDBRANCH   4  19
BRANCH   5  23
ATOM     23  O   UNL     1       2.408   6.258  20.392  0.00  0.00    +0.000 OA
BRANCH  23  24
ATOM     24  C   UNL     1       1.498   5.161  20.324  0.00  0.00    +0.000 C 
BRANCH  24  25
ATOM     25  C   UNL     1       2.162   4.000  19.609  0.00  0.00    +0.000 A 
ATOM     26  C   UNL     1       1.682   3.577  18.360  0.00  0.00    +0.000 A 
ATOM     27  C   UNL     1       2.220   2.452  17.732  0.00  0.00    +0.000 A 
ATOM     28  C   UNL     1       3.250   1.735  18.341  0.00  0.00    +0.000 A 
ATOM     29  C   UNL     1       3.745   2.141  19.585  0.00  0.00    +0.000 A 
ATOM     30  C   UNL     1       3.186   3.258  20.225  0.00  0.00    +0.000 A 
BRANCH  29  31
ATOM     31  C   UNL     1       4.812   1.318  20.212  0.00  0.00    +0.000 C 
ATOM     32  O   UNL     1       5.330   1.609  21.278  0.00  0.00    +0.000 OA
BRANCH  31  33
ATOM     33  O   UNL     1       5.125   0.201  19.524  0.00  0.00    +0.000 OA
ATOM     34  H   UNL     1       5.730   0.335  18.772  0.00  0.00    +0.000 HD
ENDBRANCH  31  33
ENDBRANCH  29  31
ENDBRANCH  24  25
ENDBRANCH  23  24
ENDBRANCH   5  23
TORSDOF 8
ENDMDL
MODEL 5
REMARK VINA RESULT:      -7.8      0.992      1.835
REMARK  Name = 
REMARK  8 active torsions:
REMARK  status: ('A' for Active; 'I' for Inactive)
REMARK    1  A    between atoms: C_2  and  C_3
REMARK    2  A    between atoms: C_9  and  C_10
REMARK    3  A    between atoms: C_13  and  C_14
REMARK    4  A    between atoms: C_18  and  O_19
REMARK    5  A    between atoms: O_19  and  C_20
REMARK    6  A    between atoms: C_20  and  C_21
REMARK    7  A    between atoms: C_25  and  C_26
REMARK    8  A    between atoms: C_26  and  O_28
REMARK                            x       y       z     vdW  Elec       q    Type
REMARK                         _______ _______ _______ _____ _____    ______ ____
ROOT
ATOM      1  C   UNL     1       0.835  10.012  19.057  0.00  0.00    +0.000 A 
ATOM      2  C   UNL     1       1.581   9.914  17.876  0.00  0.00    +0.000 A 
ATOM      3  C   UNL     1       2.434   8.830  17.641  0.00  0.00    +0.000 A 
ATOM      4  C   UNL     1       2.646   7.810  18.588  0.00  0.00    +0.000 A 
ATOM      5  C   UNL     1       1.925   7.918  19.798  0.00  0.00    +0.000 A 
ATOM      6  C   UNL     1       1.032   8.989  20.010  0.00  0.00    +0.000 A 
ATOM      7  F   UNL     1       0.331   9.040  21.153  0.00  0.00    +0.000 F 
ENDROOT
BRANCH   1  14
ATOM      8  C   UNL     1      -1.362  11.324  18.751  0.00  0.00    +0.000 A 
ATOM      9  N   UNL     1      -2.175  12.383  19.052  0.00  0.00    +0.000 NA
ATOM     10  C   UNL     1      -1.716  13.251  19.966  0.00  0.00    +0.000 A 
ATOM     11  N   UNL     1      -2.572  14.273  20.354  0.00  0.00    +0.000 N 
ATOM     12  C   UNL     1      -0.473  13.066  20.552  0.00  0.00    +0.000 A 
ATOM     13  N   UNL     1       0.360  12.046  20.226  0.00  0.00    +0.000 NA
ATOM     14  C   UNL     1      -0.096  11.136  19.321  0.00  0.00    +0.000 A 
ATOM     15  H   UNL     1      -3.393  14.261  19.752  0.00  0.00    +0.000 HD
ATOM     16  H   UNL     1      -2.131  15.183  20.391  0.00  0.00    +0.000 HD
BRANCH   8  18
ATOM     17  N   UNL     1      -2.419   9.686  17.034  0.00  0.00    +0.000 NA
ATOM     18  C   UNL     1      -1.948  10.404  17.816  0.00  0.00    +0.000 C 
ENDBRANCH   8  18
ENDBRANCH   1  14
BRANCH   4  19
ATOM     19  C   UNL     1       3.606   6.580  18.267  0.00  0.00    +0.000 C 
ATOM     20  C   UNL     1       3.060   5.385  17.427  0.00  0.00    +0.000 C 
ATOM     21  C   UNL     1       4.483   5.223  16.863  0.00  0.00    +0.000 C 
ATOM     22  C   UNL     1       4.681   6.724  17.149  0.00  0.00    +0.000 C 
ENDBRANCH   4  19
BRANCH   5  23
ATOM     23  O   UNL     1       2.216   6.929  20.711  0.00  0.00    +0.000 OA
BRANCH  23  24
ATOM     24  C   UNL     1       1.196   5.984  21.032  0.00  0.00    +0.000 C 
BRANCH  24  25
ATOM     25  C   UNL     1       1.585   4.621  20.489  0.00  0.00    +0.000 A 
ATOM     26  C   UNL     1       0.602   3.765  19.970  0.00  0.00    +0.000 A 
ATOM     27  C   UNL     1       0.928   2.474  19.554  0.00  0.00    +0.000 A 
ATOM     28  C   UNL     1       2.243   2.019  19.646  0.00  0.00    +0.000 A 
ATOM     29  C   UNL     1       3.240   2.856  20.158  0.00  0.00    +0.000 A 
ATOM     30  C   UNL     1       2.905   4.147  20.598  0.00  0.00    +0.000 A 
BRANCH  29  31
ATOM     31  C   UNL     1       4.617   2.310  20.277  0.00  0.00    +0.000 C 
ATOM     32  O   UNL     1       4.951   1.548  21.170  0.00  0.00    +0.000 OA
BRANCH  31  33
ATOM     33  O   UNL     1       5.450   2.693  19.288  0.00  0.00    +0.000 OA
ATOM     34  H   UNL     1       6.206   3.239  19.573  0.00  0.00    +0.000 HD
ENDBRANCH  31  33
ENDBRANCH  29  31
ENDBRANCH  24  25
ENDBRANCH  23  24
ENDBRANCH   5  23
TORSDOF 8
ENDMDL
MODEL 6
REMARK VINA RESULT:      -7.7      4.436      8.412
REMARK  Name = 
REMARK  8 active torsions:
REMARK  status: ('A' for Active; 'I' for Inactive)
REMARK    1  A    between atoms: C_2  and  C_3
REMARK    2  A    between atoms: C_9  and  C_10
REMARK    3  A    between atoms: C_13  and  C_14
REMARK    4  A    between atoms: C_18  and  O_19
REMARK    5  A    between atoms: O_19  and  C_20
REMARK    6  A    between atoms: C_20  and  C_21
REMARK    7  A    between atoms: C_25  and  C_26
REMARK    8  A    between atoms: C_26  and  O_28
REMARK                            x       y       z     vdW  Elec       q    Type
REMARK                         _______ _______ _______ _____ _____    ______ ____
ROOT
ATOM      1  C   UNL     1       4.877   4.566  17.367  0.00  0.00    +0.000 A 
ATOM      2  C   UNL     1       5.059   3.461  18.208  0.00  0.00    +0.000 A 
ATOM      3  C   UNL     1       4.210   3.225  19.295  0.00  0.00    +0.000 A 
ATOM      4  C   UNL     1       3.168   4.103  19.650  0.00  0.00    +0.000 A 
ATOM      5  C   UNL     1       2.999   5.240  18.828  0.00  0.00    +0.000 A 
ATOM      6  C   UNL     1       3.829   5.448  17.708  0.00  0.00    +0.000 A 
ATOM      7  F   UNL     1       3.615   6.515  16.924  0.00  0.00    +0.000 F 
ENDROOT
BRANCH   1  14
ATOM      8  C   UNL     1       6.883   5.642  16.159  0.00  0.00    +0.000 A 
ATOM      9  N   UNL     1       7.647   5.825  15.037  0.00  0.00    +0.000 NA
ATOM     10  C   UNL     1       7.274   5.150  13.940  0.00  0.00    +0.000 A 
ATOM     11  N   UNL     1       8.097   5.248  12.826  0.00  0.00    +0.000 N 
ATOM     12  C   UNL     1       6.160   4.323  13.966  0.00  0.00    +0.000 A 
ATOM     13  N   UNL     1       5.371   4.171  15.058  0.00  0.00    +0.000 NA
ATOM     14  C   UNL     1       5.745   4.825  16.193  0.00  0.00    +0.000 A 
ATOM     15  H   UNL     1       8.807   5.955  13.004  0.00  0.00    +0.000 HD
ATOM     16  H   UNL     1       7.595   5.410  11.961  0.00  0.00    +0.000 HD
BRANCH   8  18
ATOM     17  N   UNL     1       7.789   6.879  18.255  0.00  0.00    +0.000 NA
ATOM     18  C   UNL     1       7.382   6.344  17.308  0.00  0.00    +0.000 C 
ENDBRANCH   8  18
ENDBRANCH   1  14
BRANCH   4  19
ATOM     19  C   UNL     1       2.208   3.781  20.880  0.00  0.00    +0.000 C 
ATOM     20  C   UNL     1       0.856   3.047  20.622  0.00  0.00    +0.000 C 
ATOM     21  C   UNL     1       1.028   2.393  22.004  0.00  0.00    +0.000 C 
ATOM     22  C   UNL     1       2.546   2.584  21.817  0.00  0.00    +0.000 C 
ENDBRANCH   4  19
BRANCH   5  23
ATOM     23  O   UNL     1       2.007   6.094  19.256  0.00  0.00    +0.000 OA
BRANCH  23  24
ATOM     24  C   UNL     1       2.370   7.178  20.111  0.00  0.00    +0.000 C 
BRANCH  24  25
ATOM     25  C   UNL     1       1.647   8.435  19.662  0.00  0.00    +0.000 A 
ATOM     26  C   UNL     1       1.789   8.894  18.344  0.00  0.00    +0.000 A 
ATOM     27  C   UNL     1       1.209  10.097  17.941  0.00  0.00    +0.000 A 
ATOM     28  C   UNL     1       0.474  10.859  18.849  0.00  0.00    +0.000 A 
ATOM     29  C   UNL     1       0.318  10.420  20.168  0.00  0.00    +0.000 A 
ATOM     30  C   UNL     1       0.922   9.221  20.576  0.00  0.00    +0.000 A 
BRANCH  29  31
ATOM     31  C   UNL     1      -0.436  11.289  21.108  0.00  0.00    +0.000 C 
ATOM     32  O   UNL     1      -0.010  11.598  22.209  0.00  0.00    +0.000 OA
BRANCH  31  33
ATOM     33  O   UNL     1      -1.610  11.742  20.620  0.00  0.00    +0.000 OA
ATOM     34  H   UNL     1      -1.537  12.317  19.837  0.00  0.00    +0.000 HD
ENDBRANCH  31  33
ENDBRANCH  29  31
ENDBRANCH  24  25
ENDBRANCH  23  24
ENDBRANCH   5  23
TORSDOF 8
ENDMDL
MODEL 7
REMARK VINA RESULT:      -7.6      4.600      8.544
REMARK  Name = 
REMARK  8 active torsions:
REMARK  status: ('A' for Active; 'I' for Inactive)
REMARK    1  A    between atoms: C_2  and  C_3
REMARK    2  A    between atoms: C_9  and  C_10
REMARK    3  A    between atoms: C_13  and  C_14
REMARK    4  A    between atoms: C_18  and  O_19
REMARK    5  A    between atoms: O_19  and  C_20
REMARK    6  A    between atoms: C_20  and  C_21
REMARK    7  A    between atoms: C_25  and  C_26
REMARK    8  A    between atoms: C_26  and  O_28
REMARK                            x       y       z     vdW  Elec       q    Type
REMARK                         _______ _______ _______ _____ _____    ______ ____
ROOT
ATOM      1  C   UNL     1       4.802   4.477  17.017  0.00  0.00    +0.000 A 
ATOM      2  C   UNL     1       4.758   3.272  17.729  0.00  0.00    +0.000 A 
ATOM      3  C   UNL     1       3.948   3.124  18.861  0.00  0.00    +0.000 A 
ATOM      4  C   UNL     1       3.183   4.180  19.392  0.00  0.00    +0.000 A 
ATOM      5  C   UNL     1       3.249   5.411  18.701  0.00  0.00    +0.000 A 
ATOM      6  C   UNL     1       4.031   5.540  17.535  0.00  0.00    +0.000 A 
ATOM      7  F   UNL     1       4.039   6.710  16.879  0.00  0.00    +0.000 F 
ENDROOT
BRANCH   1  14
ATOM      8  C   UNL     1       6.809   5.402  15.691  0.00  0.00    +0.000 A 
ATOM      9  N   UNL     1       7.530   5.509  14.532  0.00  0.00    +0.000 NA
ATOM     10  C   UNL     1       7.071   4.825  13.474  0.00  0.00    +0.000 A 
ATOM     11  N   UNL     1       7.848   4.844  12.323  0.00  0.00    +0.000 N 
ATOM     12  C   UNL     1       5.916   4.064  13.574  0.00  0.00    +0.000 A 
ATOM     13  N   UNL     1       5.169   3.988  14.703  0.00  0.00    +0.000 NA
ATOM     14  C   UNL     1       5.630   4.653  15.799  0.00  0.00    +0.000 A 
ATOM     15  H   UNL     1       8.604   5.515  12.447  0.00  0.00    +0.000 HD
ATOM     16  H   UNL     1       7.318   5.009  11.476  0.00  0.00    +0.000 HD
BRANCH   8  18
ATOM     17  N   UNL     1       7.840   6.697  17.692  0.00  0.00    +0.000 NA
ATOM     18  C   UNL     1       7.397   6.107  16.795  0.00  0.00    +0.000 C 
ENDBRANCH   8  18
ENDBRANCH   1  14
BRANCH   4  19
ATOM     19  C   UNL     1       2.255   3.960  20.668  0.00  0.00    +0.000 C 
ATOM     20  C   UNL     1       0.869   3.266  20.492  0.00  0.00    +0.000 C 
ATOM     21  C   UNL     1       1.064   2.678  21.901  0.00  0.00    +0.000 C 
ATOM     22  C   UNL     1       2.580   2.800  21.656  0.00  0.00    +0.000 C 
ENDBRANCH   4  19
BRANCH   5  23
ATOM     23  O   UNL     1       2.531   6.424  19.296  0.00  0.00    +0.000 OA
BRANCH  23  24
ATOM     24  C   UNL     1       2.469   7.688  18.637  0.00  0.00    +0.000 C 
BRANCH  24  25
ATOM     25  C   UNL     1       1.526   8.604  19.395  0.00  0.00    +0.000 A 
ATOM     26  C   UNL     1       1.267   8.375  20.755  0.00  0.00    +0.000 A 
ATOM     27  C   UNL     1       0.331   9.149  21.443  0.00  0.00    +0.000 A 
ATOM     28  C   UNL     1      -0.357  10.166  20.783  0.00  0.00    +0.000 A 
ATOM     29  C   UNL     1      -0.113  10.413  19.427  0.00  0.00    +0.000 A 
ATOM     30  C   UNL     1       0.811   9.618  18.732  0.00  0.00    +0.000 A 
BRANCH  29  31
ATOM     31  C   UNL     1      -0.904  11.479  18.759  0.00  0.00    +0.000 C 
ATOM     32  O   UNL     1      -2.117  11.566  18.863  0.00  0.00    +0.000 OA
BRANCH  31  33
ATOM     33  O   UNL     1      -0.161  12.367  18.067  0.00  0.00    +0.000 OA
ATOM     34  H   UNL     1      -0.591  13.225  17.901  0.00  0.00    +0.000 HD
ENDBRANCH  31  33
ENDBRANCH  29  31
ENDBRANCH  24  25
ENDBRANCH  23  24
ENDBRANCH   5  23
TORSDOF 8
ENDMDL
MODEL 8
REMARK VINA RESULT:      -7.5      4.416      8.860
REMARK  Name = 
REMARK  8 active torsions:
REMARK  status: ('A' for Active; 'I' for Inactive)
REMARK    1  A    between atoms: C_2  and  C_3
REMARK    2  A    between atoms: C_9  and  C_10
REMARK    3  A    between atoms: C_13  and  C_14
REMARK    4  A    between atoms: C_18  and  O_19
REMARK    5  A    between atoms: O_19  and  C_20
REMARK    6  A    between atoms: C_20  and  C_21
REMARK    7  A    between atoms: C_25  and  C_26
REMARK    8  A    between atoms: C_26  and  O_28
REMARK                            x       y       z     vdW  Elec       q    Type
REMARK                         _______ _______ _______ _____ _____    ______ ____
ROOT
ATOM      1  C   UNL     1       2.764   6.820  18.808  0.00  0.00    +0.000 A 
ATOM      2  C   UNL     1       2.413   6.457  20.114  0.00  0.00    +0.000 A 
ATOM      3  C   UNL     1       1.517   7.224  20.868  0.00  0.00    +0.000 A 
ATOM      4  C   UNL     1       0.964   8.430  20.395  0.00  0.00    +0.000 A 
ATOM      5  C   UNL     1       1.341   8.823  19.091  0.00  0.00    +0.000 A 
ATOM      6  C   UNL     1       2.208   8.022  18.320  0.00  0.00    +0.000 A 
ATOM      7  F   UNL     1       2.513   8.403  17.070  0.00  0.00    +0.000 F 
ENDROOT
BRANCH   1  14
ATOM      8  C   UNL     1       3.451   4.729  17.467  0.00  0.00    +0.000 A 
ATOM      9  N   UNL     1       4.350   4.045  16.694  0.00  0.00    +0.000 NA
ATOM     10  C   UNL     1       5.499   4.677  16.409  0.00  0.00    +0.000 A 
ATOM     11  N   UNL     1       6.376   4.036  15.544  0.00  0.00    +0.000 N 
ATOM     12  C   UNL     1       5.740   5.954  16.893  0.00  0.00    +0.000 A 
ATOM     13  N   UNL     1       4.875   6.621  17.697  0.00  0.00    +0.000 NA
ATOM     14  C   UNL     1       3.690   6.011  17.979  0.00  0.00    +0.000 A 
ATOM     15  H   UNL     1       6.036   3.092  15.372  0.00  0.00    +0.000 HD
ATOM     16  H   UNL     1       7.339   4.050  15.856  0.00  0.00    +0.000 HD
BRANCH   8  18
ATOM     17  N   UNL     1       1.242   3.410  17.828  0.00  0.00    +0.000 NA
ATOM     18  C   UNL     1       2.221   4.016  17.675  0.00  0.00    +0.000 C 
ENDBRANCH   8  18
ENDBRANCH   1  14
BRANCH   4  19
ATOM     19  C   UNL     1      -0.073   9.257  21.276  0.00  0.00    +0.000 C 
ATOM     20  C   UNL     1      -0.469   8.726  22.688  0.00  0.00    +0.000 C 
ATOM     21  C   UNL     1      -0.609  10.195  23.124  0.00  0.00    +0.000 C 
ATOM     22  C   UNL     1       0.411  10.537  22.022  0.00  0.00    +0.000 C 
ENDBRANCH   4  19
BRANCH   5  23
ATOM     23  O   UNL     1       0.821  10.038  18.703  0.00  0.00    +0.000 OA
BRANCH  23  24
ATOM     24  C   UNL     1      -0.207  10.048  17.713  0.00  0.00    +0.000 C 
BRANCH  24  25
ATOM     25  C   UNL     1      -1.381  10.867  18.216  0.00  0.00    +0.000 A 
ATOM     26  C   UNL     1      -1.180  11.860  19.187  0.00  0.00    +0.000 A 
ATOM     27  C   UNL     1      -2.260  12.557  19.730  0.00  0.00    +0.000 A 
ATOM     28  C   UNL     1      -3.559  12.275  19.308  0.00  0.00    +0.000 A 
ATOM     29  C   UNL     1      -3.783  11.290  18.340  0.00  0.00    +0.000 A 
ATOM     30  C   UNL     1      -2.696  10.574  17.813  0.00  0.00    +0.000 A 
BRANCH  29  31
ATOM     31  C   UNL     1      -5.188  10.996  17.956  0.00  0.00    +0.000 C 
ATOM     32  O   UNL     1      -5.988  10.479  18.719  0.00  0.00    +0.000 OA
BRANCH  31  33
ATOM     33  O   UNL     1      -5.514  11.392  16.708  0.00  0.00    +0.000 OA
ATOM     34  H   UNL     1      -5.877  12.294  16.642  0.00  0.00    +0.000 HD
ENDBRANCH  31  33
ENDBRANCH  29  31
ENDBRANCH  24  25
ENDBRANCH  23  24
ENDBRANCH   5  23
TORSDOF 8
ENDMDL
MODEL 9
REMARK VINA RESULT:      -7.5      2.254      4.318
REMARK  Name = 
REMARK  8 active torsions:
REMARK  status: ('A' for Active; 'I' for Inactive)
REMARK    1  A    between atoms: C_2  and  C_3
REMARK    2  A    between atoms: C_9  and  C_10
REMARK    3  A    between atoms: C_13  and  C_14
REMARK    4  A    between atoms: C_18  and  O_19
REMARK    5  A    between atoms: O_19  and  C_20
REMARK    6  A    between atoms: C_20  and  C_21
REMARK    7  A    between atoms: C_25  and  C_26
REMARK    8  A    between atoms: C_26  and  O_28
REMARK                            x       y       z     vdW  Elec       q    Type
REMARK                         _______ _______ _______ _____ _____    ______ ____
ROOT
ATOM      1  C   UNL     1       1.125   9.600  19.411  0.00  0.00    +0.000 A 
ATOM      2  C   UNL     1       0.972   8.915  20.624  0.00  0.00    +0.000 A 
ATOM      3  C   UNL     1       1.462   7.616  20.793  0.00  0.00    +0.000 A 
ATOM      4  C   UNL     1       2.078   6.894  19.752  0.00  0.00    +0.000 A 
ATOM      5  C   UNL     1       2.204   7.563  18.514  0.00  0.00    +0.000 A 
ATOM      6  C   UNL     1       1.750   8.889  18.364  0.00  0.00    +0.000 A 
ATOM      7  F   UNL     1       1.923   9.511  17.188  0.00  0.00    +0.000 F 
ENDROOT
BRANCH   1  14
ATOM      8  C   UNL     1      -0.494  11.381  18.489  0.00  0.00    +0.000 A 
ATOM      9  N   UNL     1      -0.891  12.684  18.358  0.00  0.00    +0.000 NA
ATOM     10  C   UNL     1      -0.150  13.604  18.994  0.00  0.00    +0.000 A 
ATOM     11  N   UNL     1      -0.599  14.917  18.953  0.00  0.00    +0.000 N 
ATOM     12  C   UNL     1       0.963  13.225  19.731  0.00  0.00    +0.000 A 
ATOM     13  N   UNL     1       1.391  11.942  19.828  0.00  0.00    +0.000 NA
ATOM     14  C   UNL     1       0.639  10.987  19.213  0.00  0.00    +0.000 A 
ATOM     15  H   UNL     1      -1.381  14.977  18.306  0.00  0.00    +0.000 HD
ATOM     16  H   UNL     1       0.129  15.591  18.746  0.00  0.00    +0.000 HD
BRANCH   8  18
ATOM     17  N   UNL     1      -2.111   9.712  17.328  0.00  0.00    +0.000 NA
ATOM     18  C   UNL     1      -1.372  10.450  17.836  0.00  0.00    +0.000 C 
ENDBRANCH   8  18
ENDBRANCH   1  14
BRANCH   4  19
ATOM     19  C   UNL     1       2.645   5.426  19.997  0.00  0.00    +0.000 C 
ATOM     20  C   UNL     1       2.217   4.647  21.279  0.00  0.00    +0.000 C 
ATOM     21  C   UNL     1       2.320   3.358  20.445  0.00  0.00    +0.000 C 
ATOM     22  C   UNL     1       2.034   4.230  19.208  0.00  0.00    +0.000 C 
ENDBRANCH   4  19
BRANCH   5  23
ATOM     23  O   UNL     1       2.757   6.791  17.517  0.00  0.00    +0.000 OA
BRANCH  23  24
ATOM     24  C   UNL     1       3.776   7.368  16.701  0.00  0.00    +0.000 C 
BRANCH  24  25
ATOM     25  C   UNL     1       5.035   6.527  16.802  0.00  0.00    +0.000 A 
ATOM     26  C   UNL     1       5.257   5.483  15.891  0.00  0.00    +0.000 A 
ATOM     27  C   UNL     1       6.362   4.640  16.027  0.00  0.00    +0.000 A 
ATOM     28  C   UNL     1       7.265   4.832  17.072  0.00  0.00    +0.000 A 
ATOM     29  C   UNL     1       7.064   5.868  17.991  0.00  0.00    +0.000 A 
ATOM     30  C   UNL     1       5.940   6.699  17.866  0.00  0.00    +0.000 A 
BRANCH  29  31
ATOM     31  C   UNL     1       8.030   6.003  19.112  0.00  0.00    +0.000 C 
ATOM     32  O   UNL     1       8.259   5.099  19.900  0.00  0.00    +0.000 OA
BRANCH  31  33
ATOM     33  O   UNL     1       8.664   7.193  19.155  0.00  0.00    +0.000 OA
ATOM     34  H   UNL     1       9.555   7.201  18.761  0.00  0.00    +0.000 HD
ENDBRANCH  31  33
ENDBRANCH  29  31
ENDBRANCH  24  25
ENDBRANCH  23  24
ENDBRANCH   5  23
TORSDOF 8
ENDMDL
