MODEL 1
REMARK VINA RESULT:      -8.2      0.000      0.000
REMARK  Name = 
REMARK  7 active torsions:
REMARK  status: ('A' for Active; 'I' for Inactive)
REMARK    1  A    between atoms: C_1  and  C_2
REMARK    2  A    between atoms: C_5  and  S_6
REMARK    3  A    between atoms: S_6  and  C_7
REMARK    4  A    between atoms: N_12  and  C_13
REMARK    5  A    between atoms: C_13  and  C_14
REMARK    6  A    between atoms: N_16  and  C_17
REMARK    7  A    between atoms: C_22  and  C_23
REMARK                            x       y       z     vdW  Elec       q    Type
REMARK                         _______ _______ _______ _____ _____    ______ ____
ROOT
ATOM      1  C   UNL     1      -4.070  11.467  17.524  0.00  0.00    +0.000 A 
ATOM      2  C   UNL     1      -3.679  10.665  16.334  0.00  0.00    +0.000 A 
ATOM      3  C   UNL     1      -2.487  10.051  16.367  0.00  0.00    +0.000 A 
ATOM      4  C   UNL     1      -1.658  10.231  17.557  0.00  0.00    +0.000 A 
ATOM      5  N   UNL     1      -0.480   9.726  17.767  0.00  0.00    +0.000 NA
ATOM      6  N   UNL     1      -0.132  10.204  19.018  0.00  0.00    +0.000 N 
ATOM      7  C   UNL     1      -1.161  11.020  19.553  0.00  0.00    +0.000 A 
ATOM      8  O   UNL     1      -1.156  11.591  20.628  0.00  0.00    +0.000 OA
ATOM      9  N   UNL     1      -2.138  10.999  18.572  0.00  0.00    +0.000 N 
ATOM     10  N   UNL     1      -3.355  11.619  18.595  0.00  0.00    +0.000 NA
ENDROOT
BRANCH   1  11
ATOM     11  S   UNL     1      -5.659  12.187  17.420  0.00  0.00    +0.000 S 
BRANCH  11  16
ATOM     12  C   UNL     1      -7.749  11.995  23.170  0.00  0.00    +0.000 C 
ATOM     13  C   UNL     1      -7.238  12.056  21.759  0.00  0.00    +0.000 A 
ATOM     14  C   UNL     1      -7.521  11.045  20.840  0.00  0.00    +0.000 A 
ATOM     15  C   UNL     1      -7.031  11.122  19.530  0.00  0.00    +0.000 A 
ATOM     16  C   UNL     1      -6.263  12.217  19.103  0.00  0.00    +0.000 A 
ATOM     17  C   UNL     1      -5.982  13.227  20.026  0.00  0.00    +0.000 A 
ATOM     18  C   UNL     1      -6.460  13.143  21.343  0.00  0.00    +0.000 A 
ENDBRANCH  11  16
ENDBRANCH   1  11
BRANCH   6  19
ATOM     19  C   UNL     1       1.152   9.914  19.621  0.00  0.00    +0.000 C 
BRANCH  19  20
ATOM     20  C   UNL     1       1.561   8.435  19.586  0.00  0.00    +0.000 C 
ATOM     21  O   UNL     1       1.528   7.757  20.626  0.00  0.00    +0.000 OA
ATOM     22  N   UNL     1       2.029   7.943  18.379  0.00  0.00    +0.000 N 
ATOM     23  H   UNL     1       2.424   8.638  17.753  0.00  0.00    +0.000 HD
BRANCH  22  24
ATOM     24  C   UNL     1       2.465   6.606  18.245  0.00  0.00    +0.000 A 
ATOM     25  C   UNL     1       1.549   5.611  17.918  0.00  0.00    +0.000 A 
ATOM     26  C   UNL     1       1.957   4.275  17.869  0.00  0.00    +0.000 A 
ATOM     27  C   UNL     1       3.272   3.921  18.194  0.00  0.00    +0.000 A 
ATOM     28 BR   UNL     1       3.680   2.065  18.192  0.00  0.00    +0.000 Br
ATOM     29  C   UNL     1       4.210   4.911  18.527  0.00  0.00    +0.000 A 
ATOM     30  C   UNL     1       5.621   4.615  18.954  0.00  0.00    +0.000 C 
ATOM     31  C   UNL     1       3.794   6.261  18.518  0.00  0.00    +0.000 A 
ENDBRANCH  22  24
ENDBRANCH  19  20
ENDBRANCH   6  19
TORSDOF 5
ENDMDL
MODEL 2
REMARK VINA RESULT:      -7.8      3.969     10.270
REMARK  Name = 
REMARK  7 active torsions:
REMARK  status: ('A' for Active; 'I' for Inactive)
REMARK    1  A    between atoms: C_1  and  C_2
REMARK    2  A    between atoms: C_5  and  S_6
REMARK    3  A    between atoms: S_6  and  C_7
REMARK    4  A    between atoms: N_12  and  C_13
REMARK    5  A    between atoms: C_13  and  C_14
REMARK    6  A    between atoms: N_16  and  C_17
REMARK    7  A    between atoms: C_22  and  C_23
REMARK                            x       y       z     vdW  Elec       q    Type
REMARK                         _______ _______ _______ _____ _____    ______ ____
ROOT
ATOM      1  C   UNL     1       2.223   6.292  19.878  0.00  0.00    +0.000 A 
ATOM      2  C   UNL     1       1.545   6.594  21.166  0.00  0.00    +0.000 A 
ATOM      3  C   UNL     1       1.040   7.827  21.325  0.00  0.00    +0.000 A 
ATOM      4  C   UNL     1       1.211   8.781  20.232  0.00  0.00    +0.000 A 
ATOM      5  N   UNL     1       0.801  10.013  20.206  0.00  0.00    +0.000 NA
ATOM      6  N   UNL     1       1.219  10.475  18.970  0.00  0.00    +0.000 N 
ATOM      7  C   UNL     1       1.899   9.460  18.253  0.00  0.00    +0.000 A 
ATOM      8  O   UNL     1       2.391   9.553  17.143  0.00  0.00    +0.000 OA
ATOM      9  N   UNL     1       1.858   8.372  19.109  0.00  0.00    +0.000 N 
ATOM     10  N   UNL     1       2.363   7.121  18.891  0.00  0.00    +0.000 NA
ENDROOT
BRANCH   1  11
ATOM     11  S   UNL     1       2.802   4.649  19.733  0.00  0.00    +0.000 S 
BRANCH  11  16
ATOM     12  C   UNL     1       7.192   4.829  15.471  0.00  0.00    +0.000 C 
ATOM     13  C   UNL     1       6.106   4.787  16.507  0.00  0.00    +0.000 A 
ATOM     14  C   UNL     1       6.331   5.223  17.813  0.00  0.00    +0.000 A 
ATOM     15  C   UNL     1       5.303   5.172  18.763  0.00  0.00    +0.000 A 
ATOM     16  C   UNL     1       4.023   4.704  18.428  0.00  0.00    +0.000 A 
ATOM     17  C   UNL     1       3.801   4.269  17.118  0.00  0.00    +0.000 A 
ATOM     18  C   UNL     1       4.835   4.305  16.170  0.00  0.00    +0.000 A 
ENDBRANCH  11  16
ENDBRANCH   1  11
BRANCH   6  19
ATOM     19  C   UNL     1       1.005  11.844  18.550  0.00  0.00    +0.000 C 
BRANCH  19  20
ATOM     20  C   UNL     1      -0.468  12.266  18.454  0.00  0.00    +0.000 C 
ATOM     21  O   UNL     1      -0.773  13.469  18.487  0.00  0.00    +0.000 OA
ATOM     22  N   UNL     1      -1.409  11.250  18.410  0.00  0.00    +0.000 N 
ATOM     23  H   UNL     1      -1.114  10.370  18.823  0.00  0.00    +0.000 HD
BRANCH  22  24
ATOM     24  C   UNL     1      -2.793  11.527  18.357  0.00  0.00    +0.000 A 
ATOM     25  C   UNL     1      -3.486  11.351  17.163  0.00  0.00    +0.000 A 
ATOM     26  C   UNL     1      -4.836  11.706  17.081  0.00  0.00    +0.000 A 
ATOM     27  C   UNL     1      -5.487  12.282  18.178  0.00  0.00    +0.000 A 
ATOM     28 BR   UNL     1      -7.293  12.816  17.912  0.00  0.00    +0.000 Br
ATOM     29  C   UNL     1      -4.805  12.468  19.390  0.00  0.00    +0.000 A 
ATOM     30  C   UNL     1      -5.405  13.139  20.593  0.00  0.00    +0.000 C 
ATOM     31  C   UNL     1      -3.456  12.053  19.472  0.00  0.00    +0.000 A 
ENDBRANCH  22  24
ENDBRANCH  19  20
ENDBRANCH   6  19
TORSDOF 5
ENDMDL
MODEL 3
REMARK VINA RESULT:      -7.7      3.985     10.265
REMARK  Name = 
REMARK  7 active torsions:
REMARK  status: ('A' for Active; 'I' for Inactive)
REMARK    1  A    between atoms: C_1  and  C_2
REMARK    2  A    between atoms: C_5  and  S_6
REMARK    3  A    between atoms: S_6  and  C_7
REMARK    4  A    between atoms: N_12  and  C_13
REMARK    5  A    between atoms: C_13  and  C_14
REMARK    6  A    between atoms: N_16  and  C_17
REMARK    7  A    between atoms: C_22  and  C_23
REMARK                            x       y       z     vdW  Elec       q    Type
REMARK                         _______ _______ _______ _____ _____    ______ ____
ROOT
ATOM      1  C   UNL     1       2.210   7.106  19.451  0.00  0.00    +0.000 A 
ATOM      2  C   UNL     1       2.229   7.599  18.048  0.00  0.00    +0.000 A 
ATOM      3  C   UNL     1       1.860   8.871  17.834  0.00  0.00    +0.000 A 
ATOM      4  C   UNL     1       1.450   9.667  18.989  0.00  0.00    +0.000 A 
ATOM      5  N   UNL     1       1.055  10.904  18.978  0.00  0.00    +0.000 NA
ATOM      6  N   UNL     1       0.777  11.174  20.307  0.00  0.00    +0.000 N 
ATOM      7  C   UNL     1       1.027  10.039  21.118  0.00  0.00    +0.000 A 
ATOM      8  O   UNL     1       0.876   9.955  22.323  0.00  0.00    +0.000 OA
ATOM      9  N   UNL     1       1.475   9.087  20.218  0.00  0.00    +0.000 N 
ATOM     10  N   UNL     1       1.870   7.807  20.488  0.00  0.00    +0.000 NA
ENDROOT
BRANCH   1  11
ATOM     11  S   UNL     1       2.757   5.458  19.646  0.00  0.00    +0.000 S 
BRANCH  11  16
ATOM     12  C   UNL     1       6.803   4.570  15.139  0.00  0.00    +0.000 C 
ATOM     13  C   UNL     1       5.821   4.790  16.253  0.00  0.00    +0.000 A 
ATOM     14  C   UNL     1       4.649   4.039  16.348  0.00  0.00    +0.000 A 
ATOM     15  C   UNL     1       3.746   4.265  17.395  0.00  0.00    +0.000 A 
ATOM     16  C   UNL     1       4.000   5.232  18.381  0.00  0.00    +0.000 A 
ATOM     17  C   UNL     1       5.175   5.982  18.282  0.00  0.00    +0.000 A 
ATOM     18  C   UNL     1       6.072   5.767  17.225  0.00  0.00    +0.000 A 
ENDBRANCH  11  16
ENDBRANCH   1  11
BRANCH   6  19
ATOM     19  C   UNL     1       0.252  12.453  20.736  0.00  0.00    +0.000 C 
BRANCH  19  20
ATOM     20  C   UNL     1      -1.110  12.827  20.132  0.00  0.00    +0.000 C 
ATOM     21  O   UNL     1      -1.352  14.006  19.828  0.00  0.00    +0.000 OA
ATOM     22  N   UNL     1      -2.047  11.812  20.026  0.00  0.00    +0.000 N 
ATOM     23  H   UNL     1      -1.926  11.042  20.677  0.00  0.00    +0.000 HD
BRANCH  22  24
ATOM     24  C   UNL     1      -3.342  12.053  19.517  0.00  0.00    +0.000 A 
ATOM     25  C   UNL     1      -3.659  11.661  18.220  0.00  0.00    +0.000 A 
ATOM     26  C   UNL     1      -4.910  11.975  17.682  0.00  0.00    +0.000 A 
ATOM     27  C   UNL     1      -5.834  12.723  18.420  0.00  0.00    +0.000 A 
ATOM     28 BR   UNL     1      -7.460  13.174  17.543  0.00  0.00    +0.000 Br
ATOM     29  C   UNL     1      -5.533  13.128  19.729  0.00  0.00    +0.000 A 
ATOM     30  C   UNL     1      -6.437  13.990  20.567  0.00  0.00    +0.000 C 
ATOM     31  C   UNL     1      -4.285  12.756  20.278  0.00  0.00    +0.000 A 
ENDBRANCH  22  24
ENDBRANCH  19  20
ENDBRANCH   6  19
TORSDOF 5
ENDMDL
MODEL 4
REMARK VINA RESULT:      -7.7      4.626     10.650
REMARK  Name = 
REMARK  7 active torsions:
REMARK  status: ('A' for Active; 'I' for Inactive)
REMARK    1  A    between atoms: C_1  and  C_2
REMARK    2  A    between atoms: C_5  and  S_6
REMARK    3  A    between atoms: S_6  and  C_7
REMARK    4  A    between atoms: N_12  and  C_13
REMARK    5  A    between atoms: C_13  and  C_14
REMARK    6  A    between atoms: N_16  and  C_17
REMARK    7  A    between atoms: C_22  and  C_23
REMARK                            x       y       z     vdW  Elec       q    Type
REMARK                         _______ _______ _______ _____ _____    ______ ____
ROOT
ATOM      1  C   UNL     1       2.143   7.226  19.412  0.00  0.00    +0.000 A 
ATOM      2  C   UNL     1       2.147   7.723  18.010  0.00  0.00    +0.000 A 
ATOM      3  C   UNL     1       1.779   8.997  17.806  0.00  0.00    +0.000 A 
ATOM      4  C   UNL     1       1.385   9.790  18.968  0.00  0.00    +0.000 A 
ATOM      5  N   UNL     1       0.994  11.028  18.967  0.00  0.00    +0.000 NA
ATOM      6  N   UNL     1       0.732  11.294  20.300  0.00  0.00    +0.000 N 
ATOM      7  C   UNL     1       0.989  10.155  21.104  0.00  0.00    +0.000 A 
ATOM      8  O   UNL     1       0.851  10.067  22.310  0.00  0.00    +0.000 OA
ATOM      9  N   UNL     1       1.423   9.205  20.195  0.00  0.00    +0.000 N 
ATOM     10  N   UNL     1       1.818   7.923  20.455  0.00  0.00    +0.000 NA
ENDROOT
BRANCH   1  11
ATOM     11  S   UNL     1       2.689   5.575  19.594  0.00  0.00    +0.000 S 
BRANCH  11  16
ATOM     12  C   UNL     1       6.726   4.688  15.079  0.00  0.00    +0.000 C 
ATOM     13  C   UNL     1       5.746   4.910  16.195  0.00  0.00    +0.000 A 
ATOM     14  C   UNL     1       4.622   4.097  16.346  0.00  0.00    +0.000 A 
ATOM     15  C   UNL     1       3.720   4.325  17.394  0.00  0.00    +0.000 A 
ATOM     16  C   UNL     1       3.927   5.356  18.324  0.00  0.00    +0.000 A 
ATOM     17  C   UNL     1       5.054   6.167  18.169  0.00  0.00    +0.000 A 
ATOM     18  C   UNL     1       5.950   5.950  17.111  0.00  0.00    +0.000 A 
ENDBRANCH  11  16
ENDBRANCH   1  11
BRANCH   6  19
ATOM     19  C   UNL     1       0.215  12.573  20.740  0.00  0.00    +0.000 C 
BRANCH  19  20
ATOM     20  C   UNL     1      -1.257  12.557  21.178  0.00  0.00    +0.000 C 
ATOM     21  O   UNL     1      -2.094  11.920  20.519  0.00  0.00    +0.000 OA
ATOM     22  N   UNL     1      -1.593  13.336  22.273  0.00  0.00    +0.000 N 
ATOM     23  H   UNL     1      -0.974  14.122  22.450  0.00  0.00    +0.000 HD
BRANCH  22  24
ATOM     24  C   UNL     1      -2.923  13.422  22.738  0.00  0.00    +0.000 A 
ATOM     25  C   UNL     1      -3.353  12.580  23.760  0.00  0.00    +0.000 A 
ATOM     26  C   UNL     1      -4.691  12.600  24.164  0.00  0.00    +0.000 A 
ATOM     27  C   UNL     1      -5.617  13.427  23.518  0.00  0.00    +0.000 A 
ATOM     28 BR   UNL     1      -7.425  13.291  24.088  0.00  0.00    +0.000 Br
ATOM     29  C   UNL     1      -5.203  14.282  22.485  0.00  0.00    +0.000 A 
ATOM     30  C   UNL     1      -6.139  15.151  21.693  0.00  0.00    +0.000 C 
ATOM     31  C   UNL     1      -3.836  14.290  22.126  0.00  0.00    +0.000 A 
ENDBRANCH  22  24
ENDBRANCH  19  20
ENDBRANCH   6  19
TORSDOF 5
ENDMDL
MODEL 5
REMARK VINA RESULT:      -7.7      4.083     10.269
REMARK  Name = 
REMARK  7 active torsions:
REMARK  status: ('A' for Active; 'I' for Inactive)
REMARK    1  A    between atoms: C_1  and  C_2
REMARK    2  A    between atoms: C_5  and  S_6
REMARK    3  A    between atoms: S_6  and  C_7
REMARK    4  A    between atoms: N_12  and  C_13
REMARK    5  A    between atoms: C_13  and  C_14
REMARK    6  A    between atoms: N_16  and  C_17
REMARK    7  A    between atoms: C_22  and  C_23
REMARK                            x       y       z     vdW  Elec       q    Type
REMARK                         _______ _______ _______ _____ _____    ______ ____
ROOT
ATOM      1  C   UNL     1       2.119   6.335  19.909  0.00  0.00    +0.000 A 
ATOM      2  C   UNL     1       1.489   6.683  21.210  0.00  0.00    +0.000 A 
ATOM      3  C   UNL     1       1.047   7.941  21.366  0.00  0.00    +0.000 A 
ATOM      4  C   UNL     1       1.234   8.873  20.257  0.00  0.00    +0.000 A 
ATOM      5  N   UNL     1       0.882  10.122  20.224  0.00  0.00    +0.000 NA
ATOM      6  N   UNL     1       1.290  10.550  18.973  0.00  0.00    +0.000 N 
ATOM      7  C   UNL     1       1.903   9.495  18.252  0.00  0.00    +0.000 A 
ATOM      8  O   UNL     1       2.370   9.552  17.129  0.00  0.00    +0.000 OA
ATOM      9  N   UNL     1       1.833   8.420  19.123  0.00  0.00    +0.000 N 
ATOM     10  N   UNL     1       2.272   7.145  18.908  0.00  0.00    +0.000 NA
ENDROOT
BRANCH   1  11
ATOM     11  S   UNL     1       2.616   4.665  19.771  0.00  0.00    +0.000 S 
BRANCH  11  16
ATOM     12  C   UNL     1       7.112   4.740  15.617  0.00  0.00    +0.000 C 
ATOM     13  C   UNL     1       6.018   4.719  16.646  0.00  0.00    +0.000 A 
ATOM     14  C   UNL     1       4.741   4.247  16.339  0.00  0.00    +0.000 A 
ATOM     15  C   UNL     1       3.736   4.240  17.315  0.00  0.00    +0.000 A 
ATOM     16  C   UNL     1       3.986   4.685  18.623  0.00  0.00    +0.000 A 
ATOM     17  C   UNL     1       5.266   5.156  18.926  0.00  0.00    +0.000 A 
ATOM     18  C   UNL     1       6.270   5.179  17.945  0.00  0.00    +0.000 A 
ENDBRANCH  11  16
ENDBRANCH   1  11
BRANCH   6  19
ATOM     19  C   UNL     1       1.130  11.923  18.541  0.00  0.00    +0.000 C 
BRANCH  19  20
ATOM     20  C   UNL     1      -0.301  12.469  18.648  0.00  0.00    +0.000 C 
ATOM     21  O   UNL     1      -0.542  13.644  18.328  0.00  0.00    +0.000 OA
ATOM     22  N   UNL     1      -1.257  11.621  19.180  0.00  0.00    +0.000 N 
ATOM     23  H   UNL     1      -0.898  10.895  19.794  0.00  0.00    +0.000 HD
BRANCH  22  24
ATOM     24  C   UNL     1      -2.597  12.034  19.356  0.00  0.00    +0.000 A 
ATOM     25  C   UNL     1      -2.955  12.745  20.497  0.00  0.00    +0.000 A 
ATOM     26  C   UNL     1      -4.294  13.080  20.719  0.00  0.00    +0.000 A 
ATOM     27  C   UNL     1      -5.288  12.665  19.825  0.00  0.00    +0.000 A 
ATOM     28 BR   UNL     1      -7.082  13.093  20.287  0.00  0.00    +0.000 Br
ATOM     29  C   UNL     1      -4.946  11.947  18.669  0.00  0.00    +0.000 A 
ATOM     30  C   UNL     1      -5.953  11.405  17.693  0.00  0.00    +0.000 C 
ATOM     31  C   UNL     1      -3.582  11.664  18.432  0.00  0.00    +0.000 A 
ENDBRANCH  22  24
ENDBRANCH  19  20
ENDBRANCH   6  19
TORSDOF 5
ENDMDL
MODEL 6
REMARK VINA RESULT:      -7.7      4.722     10.695
REMARK  Name = 
REMARK  7 active torsions:
REMARK  status: ('A' for Active; 'I' for Inactive)
REMARK    1  A    between atoms: C_1  and  C_2
REMARK    2  A    between atoms: C_5  and  S_6
REMARK    3  A    between atoms: S_6  and  C_7
REMARK    4  A    between atoms: N_12  and  C_13
REMARK    5  A    between atoms: C_13  and  C_14
REMARK    6  A    between atoms: N_16  and  C_17
REMARK    7  A    between atoms: C_22  and  C_23
REMARK                            x       y       z     vdW  Elec       q    Type
REMARK                         _______ _______ _______ _____ _____    ______ ____
ROOT
ATOM      1  C   UNL     1       2.122   7.161  19.500  0.00  0.00    +0.000 A 
ATOM      2  C   UNL     1       2.219   7.543  18.066  0.00  0.00    +0.000 A 
ATOM      3  C   UNL     1       1.895   8.803  17.739  0.00  0.00    +0.000 A 
ATOM      4  C   UNL     1       1.455   9.695  18.809  0.00  0.00    +0.000 A 
ATOM      5  N   UNL     1       1.095  10.937  18.686  0.00  0.00    +0.000 NA
ATOM      6  N   UNL     1       0.764  11.315  19.975  0.00  0.00    +0.000 N 
ATOM      7  C   UNL     1       0.945  10.241  20.881  0.00  0.00    +0.000 A 
ATOM      8  O   UNL     1       0.736  10.253  22.081  0.00  0.00    +0.000 OA
ATOM      9  N   UNL     1       1.407   9.211  20.079  0.00  0.00    +0.000 N 
ATOM     10  N   UNL     1       1.754   7.947  20.464  0.00  0.00    +0.000 NA
ENDROOT
BRANCH   1  11
ATOM     11  S   UNL     1       2.614   5.520  19.846  0.00  0.00    +0.000 S 
BRANCH  11  16
ATOM     12  C   UNL     1       7.036   4.231  15.814  0.00  0.00    +0.000 C 
ATOM     13  C   UNL     1       5.942   4.548  16.792  0.00  0.00    +0.000 A 
ATOM     14  C   UNL     1       6.200   5.262  17.963  0.00  0.00    +0.000 A 
ATOM     15  C   UNL     1       5.164   5.543  18.863  0.00  0.00    +0.000 A 
ATOM     16  C   UNL     1       3.845   5.137  18.607  0.00  0.00    +0.000 A 
ATOM     17  C   UNL     1       3.591   4.423  17.433  0.00  0.00    +0.000 A 
ATOM     18  C   UNL     1       4.631   4.127  16.538  0.00  0.00    +0.000 A 
ENDBRANCH  11  16
ENDBRANCH   1  11
BRANCH   6  19
ATOM     19  C   UNL     1       0.254  12.636  20.280  0.00  0.00    +0.000 C 
BRANCH  19  20
ATOM     20  C   UNL     1      -1.223  12.677  20.696  0.00  0.00    +0.000 C 
ATOM     21  O   UNL     1      -2.055  11.973  20.101  0.00  0.00    +0.000 OA
ATOM     22  N   UNL     1      -1.570  13.577  21.690  0.00  0.00    +0.000 N 
ATOM     23  H   UNL     1      -0.949  14.375  21.786  0.00  0.00    +0.000 HD
BRANCH  22  24
ATOM     24  C   UNL     1      -2.906  13.721  22.123  0.00  0.00    +0.000 A 
ATOM     25  C   UNL     1      -3.692  14.748  21.608  0.00  0.00    +0.000 A 
ATOM     26  C   UNL     1      -4.985  14.950  22.097  0.00  0.00    +0.000 A 
ATOM     27  C   UNL     1      -5.485  14.156  23.136  0.00  0.00    +0.000 A 
ATOM     28 BR   UNL     1      -7.217  14.592  23.785  0.00  0.00    +0.000 Br
ATOM     29  C   UNL     1      -4.707  13.116  23.669  0.00  0.00    +0.000 A 
ATOM     30  C   UNL     1      -5.136  12.261  24.829  0.00  0.00    +0.000 C 
ATOM     31  C   UNL     1      -3.422  12.891  23.126  0.00  0.00    +0.000 A 
ENDBRANCH  22  24
ENDBRANCH  19  20
ENDBRANCH   6  19
TORSDOF 5
ENDMDL
MODEL 7
REMARK VINA RESULT:      -7.7      4.578     10.865
REMARK  Name = 
REMARK  7 active torsions:
REMARK  status: ('A' for Active; 'I' for Inactive)
REMARK    1  A    between atoms: C_1  and  C_2
REMARK    2  A    between atoms: C_5  and  S_6
REMARK    3  A    between atoms: S_6  and  C_7
REMARK    4  A    between atoms: N_12  and  C_13
REMARK    5  A    between atoms: C_13  and  C_14
REMARK    6  A    between atoms: N_16  and  C_17
REMARK    7  A    between atoms: C_22  and  C_23
REMARK                            x       y       z     vdW  Elec       q    Type
REMARK                         _______ _______ _______ _____ _____    ______ ____
ROOT
ATOM      1  C   UNL     1       3.544   5.303  19.280  0.00  0.00    +0.000 A 
ATOM      2  C   UNL     1       2.805   5.252  20.570  0.00  0.00    +0.000 A 
ATOM      3  C   UNL     1       2.000   6.285  20.862  0.00  0.00    +0.000 A 
ATOM      4  C   UNL     1       1.924   7.385  19.902  0.00  0.00    +0.000 A 
ATOM      5  N   UNL     1       1.211   8.464  20.014  0.00  0.00    +0.000 NA
ATOM      6  N   UNL     1       1.502   9.174  18.862  0.00  0.00    +0.000 N 
ATOM      7  C   UNL     1       2.423   8.466  18.049  0.00  0.00    +0.000 A 
ATOM      8  O   UNL     1       2.879   8.825  16.979  0.00  0.00    +0.000 OA
ATOM      9  N   UNL     1       2.660   7.303  18.762  0.00  0.00    +0.000 N 
ATOM     10  N   UNL     1       3.469   6.261  18.409  0.00  0.00    +0.000 NA
ENDROOT
BRANCH   1  11
ATOM     11  S   UNL     1       4.526   3.894  18.954  0.00  0.00    +0.000 S 
BRANCH  11  16
ATOM     12  C   UNL     1       7.449   4.979  13.686  0.00  0.00    +0.000 C 
ATOM     13  C   UNL     1       6.720   4.719  14.973  0.00  0.00    +0.000 A 
ATOM     14  C   UNL     1       7.362   4.832  16.207  0.00  0.00    +0.000 A 
ATOM     15  C   UNL     1       6.662   4.580  17.394  0.00  0.00    +0.000 A 
ATOM     16  C   UNL     1       5.304   4.229  17.379  0.00  0.00    +0.000 A 
ATOM     17  C   UNL     1       4.664   4.117  16.142  0.00  0.00    +0.000 A 
ATOM     18  C   UNL     1       5.368   4.353  14.951  0.00  0.00    +0.000 A 
ENDBRANCH  11  16
ENDBRANCH   1  11
BRANCH   6  19
ATOM     19  C   UNL     1       0.944  10.486  18.607  0.00  0.00    +0.000 C 
BRANCH  19  20
ATOM     20  C   UNL     1      -0.305  10.826  19.432  0.00  0.00    +0.000 C 
ATOM     21  O   UNL     1      -1.423  10.441  19.053  0.00  0.00    +0.000 OA
ATOM     22  N   UNL     1      -0.121  11.631  20.544  0.00  0.00    +0.000 N 
ATOM     23  H   UNL     1       0.697  12.231  20.513  0.00  0.00    +0.000 HD
BRANCH  22  24
ATOM     24  C   UNL     1      -1.207  12.034  21.352  0.00  0.00    +0.000 A 
ATOM     25  C   UNL     1      -1.364  11.485  22.621  0.00  0.00    +0.000 A 
ATOM     26  C   UNL     1      -2.484  11.814  23.390  0.00  0.00    +0.000 A 
ATOM     27  C   UNL     1      -3.477  12.656  22.877  0.00  0.00    +0.000 A 
ATOM     28 BR   UNL     1      -5.000  12.947  23.977  0.00  0.00    +0.000 Br
ATOM     29  C   UNL     1      -3.337  13.219  21.599  0.00  0.00    +0.000 A 
ATOM     30  C   UNL     1      -4.383  14.077  20.944  0.00  0.00    +0.000 C 
ATOM     31  C   UNL     1      -2.173  12.919  20.856  0.00  0.00    +0.000 A 
ENDBRANCH  22  24
ENDBRANCH  19  20
ENDBRANCH   6  19
TORSDOF 5
ENDMDL
MODEL 8
REMARK VINA RESULT:      -7.6      4.239     10.661
REMARK  Name = 
REMARK  7 active torsions:
REMARK  status: ('A' for Active; 'I' for Inactive)
REMARK    1  A    between atoms: C_1  and  C_2
REMARK    2  A    between atoms: C_5  and  S_6
REMARK    3  A    between atoms: S_6  and  C_7
REMARK    4  A    between atoms: N_12  and  C_13
REMARK    5  A    between atoms: C_13  and  C_14
REMARK    6  A    between atoms: N_16  and  C_17
REMARK    7  A    between atoms: C_22  and  C_23
REMARK                            x       y       z     vdW  Elec       q    Type
REMARK                         _______ _______ _______ _____ _____    ______ ____
ROOT
ATOM      1  C   UNL     1       3.112   4.725  18.682  0.00  0.00    +0.000 A 
ATOM      2  C   UNL     1       2.695   4.526  20.096  0.00  0.00    +0.000 A 
ATOM      3  C   UNL     1       2.158   5.575  20.736  0.00  0.00    +0.000 A 
ATOM      4  C   UNL     1       2.041   6.835  20.004  0.00  0.00    +0.000 A 
ATOM      5  N   UNL     1       1.558   7.953  20.455  0.00  0.00    +0.000 NA
ATOM      6  N   UNL     1       1.685   8.824  19.387  0.00  0.00    +0.000 N 
ATOM      7  C   UNL     1       2.265   8.174  18.269  0.00  0.00    +0.000 A 
ATOM      8  O   UNL     1       2.512   8.667  17.184  0.00  0.00    +0.000 OA
ATOM      9  N   UNL     1       2.469   6.878  18.714  0.00  0.00    +0.000 N 
ATOM     10  N   UNL     1       2.994   5.830  18.014  0.00  0.00    +0.000 NA
ENDROOT
BRANCH   1  11
ATOM     11  S   UNL     1       3.750   3.294  17.908  0.00  0.00    +0.000 S 
BRANCH  11  16
ATOM     12  C   UNL     1       7.748   5.398  13.778  0.00  0.00    +0.000 C 
ATOM     13  C   UNL     1       6.778   4.878  14.799  0.00  0.00    +0.000 A 
ATOM     14  C   UNL     1       5.581   4.269  14.420  0.00  0.00    +0.000 A 
ATOM     15  C   UNL     1       4.690   3.795  15.391  0.00  0.00    +0.000 A 
ATOM     16  C   UNL     1       4.980   3.900  16.761  0.00  0.00    +0.000 A 
ATOM     17  C   UNL     1       6.180   4.510  17.136  0.00  0.00    +0.000 A 
ATOM     18  C   UNL     1       7.066   5.000  16.165  0.00  0.00    +0.000 A 
ENDBRANCH  11  16
ENDBRANCH   1  11
BRANCH   6  19
ATOM     19  C   UNL     1       1.304  10.218  19.484  0.00  0.00    +0.000 C 
BRANCH  19  20
ATOM     20  C   UNL     1      -0.204  10.465  19.631  0.00  0.00    +0.000 C 
ATOM     21  O   UNL     1      -0.750  10.327  20.737  0.00  0.00    +0.000 OA
ATOM     22  N   UNL     1      -0.905  10.765  18.475  0.00  0.00    +0.000 N 
ATOM     23  H   UNL     1      -0.485  10.427  17.615  0.00  0.00    +0.000 HD
BRANCH  22  24
ATOM     24  C   UNL     1      -2.302  10.976  18.492  0.00  0.00    +0.000 A 
ATOM     25  C   UNL     1      -3.115  10.285  17.599  0.00  0.00    +0.000 A 
ATOM     26  C   UNL     1      -4.486  10.554  17.551  0.00  0.00    +0.000 A 
ATOM     27  C   UNL     1      -5.044  11.549  18.362  0.00  0.00    +0.000 A 
ATOM     28 BR   UNL     1      -6.899  11.893  18.134  0.00  0.00    +0.000 Br
ATOM     29  C   UNL     1      -4.240  12.257  19.269  0.00  0.00    +0.000 A 
ATOM     30  C   UNL     1      -4.741  13.385  20.126  0.00  0.00    +0.000 C 
ATOM     31  C   UNL     1      -2.866  11.934  19.343  0.00  0.00    +0.000 A 
ENDBRANCH  22  24
ENDBRANCH  19  20
ENDBRANCH   6  19
TORSDOF 5
ENDMDL
MODEL 9
REMARK VINA RESULT:      -7.6      2.955      3.672
REMARK  Name = 
REMARK  7 active torsions:
REMARK  status: ('A' for Active; 'I' for Inactive)
REMARK    1  A    between atoms: C_1  and  C_2
REMARK    2  A    between atoms: C_5  and  S_6
REMARK    3  A    between atoms: S_6  and  C_7
REMARK    4  A    between atoms: N_12  and  C_13
REMARK    5  A    between atoms: C_13  and  C_14
REMARK    6  A    between atoms: N_16  and  C_17
REMARK    7  A    between atoms: C_22  and  C_23
REMARK                            x       y       z     vdW  Elec       q    Type
REMARK                         _______ _______ _______ _____ _____    ______ ____
ROOT
ATOM      1  C   UNL     1      -0.666  12.079  22.281  0.00  0.00    +0.000 A 
ATOM      2  C   UNL     1      -0.791  10.713  22.854  0.00  0.00    +0.000 A 
ATOM      3  C   UNL     1      -0.272   9.696  22.149  0.00  0.00    +0.000 A 
ATOM      4  C   UNL     1       0.358  10.006  20.867  0.00  0.00    +0.000 A 
ATOM      5  N   UNL     1       0.905   9.161  20.046  0.00  0.00    +0.000 NA
ATOM      6  N   UNL     1       1.334   9.951  18.994  0.00  0.00    +0.000 N 
ATOM      7  C   UNL     1       1.022  11.314  19.224  0.00  0.00    +0.000 A 
ATOM      8  O   UNL     1       1.262  12.253  18.487  0.00  0.00    +0.000 OA
ATOM      9  N   UNL     1       0.399  11.303  20.460  0.00  0.00    +0.000 N 
ATOM     10  N   UNL     1      -0.090  12.372  21.156  0.00  0.00    +0.000 NA
ENDROOT
BRANCH   1  11
ATOM     11  S   UNL     1      -1.319  13.349  23.289  0.00  0.00    +0.000 S 
BRANCH  11  16
ATOM     12  C   UNL     1      -7.357  12.518  22.712  0.00  0.00    +0.000 C 
ATOM     13  C   UNL     1      -5.878  12.730  22.865  0.00  0.00    +0.000 A 
ATOM     14  C   UNL     1      -5.038  12.818  21.754  0.00  0.00    +0.000 A 
ATOM     15  C   UNL     1      -3.661  13.013  21.922  0.00  0.00    +0.000 A 
ATOM     16  C   UNL     1      -3.093  13.142  23.199  0.00  0.00    +0.000 A 
ATOM     17  C   UNL     1      -3.937  13.054  24.309  0.00  0.00    +0.000 A 
ATOM     18  C   UNL     1      -5.315  12.843  24.143  0.00  0.00    +0.000 A 
ENDBRANCH  11  16
ENDBRANCH   1  11
BRANCH   6  19
ATOM     19  C   UNL     1       1.966   9.387  17.819  0.00  0.00    +0.000 C 
BRANCH  19  20
ATOM     20  C   UNL     1       2.659   8.036  18.045  0.00  0.00    +0.000 C 
ATOM     21  O   UNL     1       3.877   7.920  17.833  0.00  0.00    +0.000 OA
ATOM     22  N   UNL     1       1.853   6.972  18.412  0.00  0.00    +0.000 N 
ATOM     23  H   UNL     1       0.879   7.051  18.133  0.00  0.00    +0.000 HD
BRANCH  22  24
ATOM     24  C   UNL     1       2.382   5.678  18.611  0.00  0.00    +0.000 A 
ATOM     25  C   UNL     1       3.034   5.031  17.566  0.00  0.00    +0.000 A 
ATOM     26  C   UNL     1       3.482   3.717  17.729  0.00  0.00    +0.000 A 
ATOM     27  C   UNL     1       3.239   3.026  18.922  0.00  0.00    +0.000 A 
ATOM     28 BR   UNL     1       3.806   1.213  18.987  0.00  0.00    +0.000 Br
ATOM     29  C   UNL     1       2.582   3.661  19.987  0.00  0.00    +0.000 A 
ATOM     30  C   UNL     1       2.220   2.975  21.275  0.00  0.00    +0.000 C 
ATOM     31  C   UNL     1       2.184   5.007  19.825  0.00  0.00    +0.000 A 
ENDBRANCH  22  24
ENDBRANCH  19  20
ENDBRANCH   6  19
TORSDOF 5
ENDMDL
