MODEL 1
REMARK VINA RESULT:      -8.8      0.000      0.000
REMARK  Name = 
REMARK  11 active torsions:
REMARK  status: ('A' for Active; 'I' for Inactive)
REMARK    1  A    between atoms: C_1  and  C_2
REMARK    2  A    between atoms: C_4  and  N_5
REMARK    3  A    between atoms: C_6  and  C_8
REMARK    4  A    between atoms: C_8  and  C_9
REMARK    5  A    between atoms: C_9  and  O_11
REMARK    6  A    between atoms: C_14  and  O_15
REMARK    7  A    between atoms: O_15  and  C_16
REMARK    8  A    between atoms: C_19  and  O_20
REMARK    9  A    between atoms: C_21  and  C_22
REMARK   10  A    between atoms: C_22  and  C_23
REMARK   11  A    between atoms: C_23  and  C_24
REMARK                            x       y       z     vdW  Elec       q    Type
REMARK                         _______ _______ _______ _____ _____    ______ ____
ROOT
ATOM      1  C   UNL     1       3.246   7.989  17.442  0.00  0.00    +0.000 C 
ATOM      2  C   UNL     1       2.269   8.518  18.462  0.00  0.00    +0.000 A 
ATOM      3  C   UNL     1       1.715   9.773  18.121  0.00  0.00    +0.000 A 
ATOM      4  C   UNL     1       0.900  10.521  18.970  0.00  0.00    +0.000 A 
ATOM      5  C   UNL     1       0.559   9.941  20.184  0.00  0.00    +0.000 A 
ATOM      6  C   UNL     1       1.067   8.678  20.539  0.00  0.00    +0.000 A 
ATOM      7  C   UNL     1       1.917   7.943  19.698  0.00  0.00    +0.000 A 
ATOM      8  C   UNL     1       0.609   8.263  21.906  0.00  0.00    +0.000 C 
ATOM      9  C   UNL     1      -0.254   9.438  22.380  0.00  0.00    +0.000 C 
ATOM     10  C   UNL     1      -0.295  10.505  21.277  0.00  0.00    +0.000 C 
ENDROOT
BRANCH   4  11
ATOM     11  N   UNL     1       0.450  11.812  18.599  0.00  0.00    +0.000 N 
ATOM     12  C   UNL     1       1.086  13.000  18.917  0.00  0.00    +0.000 C 
ATOM     13  O   UNL     1       2.078  13.113  19.646  0.00  0.00    +0.000 OA
ATOM     14  H   UNL     1      -0.466  11.867  18.152  0.00  0.00    +0.000 HD
BRANCH  12  15
ATOM     15  C   UNL     1       0.541  14.285  18.341  0.00  0.00    +0.000 C 
BRANCH  15  16
ATOM     16  C   UNL     1      -0.461  15.061  19.116  0.00  0.00    +0.000 C 
ATOM     17  O   UNL     1      -0.418  16.259  19.332  0.00  0.00    +0.000 OA
BRANCH  16  18
ATOM     18  O   UNL     1      -1.476  14.280  19.566  0.00  0.00    +0.000 OA
ATOM     19  H   UNL     1      -2.332  14.746  19.675  0.00  0.00    +0.000 HD
ENDBRANCH  16  18
ENDBRANCH  15  16
ENDBRANCH  12  15
ENDBRANCH   4  11
BRANCH   7  20
ATOM     20  O   UNL     1       2.368   6.754  20.246  0.00  0.00    +0.000 OA
BRANCH  20  21
ATOM     21  C   UNL     1       1.924   5.552  19.758  0.00  0.00    +0.000 A 
ATOM     22  C   UNL     1       1.183   4.751  20.628  0.00  0.00    +0.000 A 
ATOM     23  C   UNL     1       0.902   3.429  20.283  0.00  0.00    +0.000 A 
ATOM     24  C   UNL     1       1.403   2.915  19.089  0.00  0.00    +0.000 A 
ATOM     25  C   UNL     1       2.056   3.741  18.167  0.00  0.00    +0.000 A 
ATOM     26  C   UNL     1       2.220   5.098  18.477  0.00  0.00    +0.000 A 
BRANCH  24  27
ATOM     27  O   UNL     1       1.314   1.577  18.832  0.00  0.00    +0.000 OA
ATOM     28  H   UNL     1       1.491   1.426  17.889  0.00  0.00    +0.000 HD
ENDBRANCH  24  27
BRANCH  25  29
ATOM     29  C   UNL     1       2.767   3.184  16.957  0.00  0.00    +0.000 C 
BRANCH  29  30
ATOM     30  C   UNL     1       4.229   2.846  17.218  0.00  0.00    +0.000 C 
BRANCH  30  31
ATOM     31  C   UNL     1       5.081   4.091  17.197  0.00  0.00    +0.000 A 
ATOM     32  C   UNL     1       5.179   4.859  16.027  0.00  0.00    +0.000 A 
ATOM     33  C   UNL     1       5.975   6.004  16.004  0.00  0.00    +0.000 A 
ATOM     34  C   UNL     1       6.678   6.370  17.146  0.00  0.00    +0.000 A 
ATOM     35  F   UNL     1       7.441   7.472  17.125  0.00  0.00    +0.000 F 
ATOM     36  C   UNL     1       6.605   5.611  18.308  0.00  0.00    +0.000 A 
ATOM     37  C   UNL     1       5.808   4.467  18.333  0.00  0.00    +0.000 A 
ENDBRANCH  30  31
ENDBRANCH  29  30
ENDBRANCH  25  29
ENDBRANCH  20  21
ENDBRANCH   7  20
TORSDOF 10
ENDMDL
MODEL 2
REMARK VINA RESULT:      -8.7      0.853      1.097
REMARK  Name = 
REMARK  11 active torsions:
REMARK  status: ('A' for Active; 'I' for Inactive)
REMARK    1  A    between atoms: C_1  and  C_2
REMARK    2  A    between atoms: C_4  and  N_5
REMARK    3  A    between atoms: C_6  and  C_8
REMARK    4  A    between atoms: C_8  and  C_9
REMARK    5  A    between atoms: C_9  and  O_11
REMARK    6  A    between atoms: C_14  and  O_15
REMARK    7  A    between atoms: O_15  and  C_16
REMARK    8  A    between atoms: C_19  and  O_20
REMARK    9  A    between atoms: C_21  and  C_22
REMARK   10  A    between atoms: C_22  and  C_23
REMARK   11  A    between atoms: C_23  and  C_24
REMARK                            x       y       z     vdW  Elec       q    Type
REMARK                         _______ _______ _______ _____ _____    ______ ____
ROOT
ATOM      1  C   UNL     1       2.780   8.136  17.470  0.00  0.00    +0.000 C 
ATOM      2  C   UNL     1       1.887   8.634  18.579  0.00  0.00    +0.000 A 
ATOM      3  C   UNL     1       1.201   9.828  18.262  0.00  0.00    +0.000 A 
ATOM      4  C   UNL     1       0.432  10.549  19.175  0.00  0.00    +0.000 A 
ATOM      5  C   UNL     1       0.279   9.998  20.441  0.00  0.00    +0.000 A 
ATOM      6  C   UNL     1       0.922   8.792  20.776  0.00  0.00    +0.000 A 
ATOM      7  C   UNL     1       1.725   8.087  19.866  0.00  0.00    +0.000 A 
ATOM      8  C   UNL     1       0.657   8.404  22.201  0.00  0.00    +0.000 C 
ATOM      9  C   UNL     1      -0.235   9.530  22.732  0.00  0.00    +0.000 C 
ATOM     10  C   UNL     1      -0.487  10.543  21.606  0.00  0.00    +0.000 C 
ENDROOT
BRANCH   4  11
ATOM     11  N   UNL     1      -0.158  11.786  18.817  0.00  0.00    +0.000 N 
ATOM     12  C   UNL     1       0.364  13.034  19.111  0.00  0.00    +0.000 C 
ATOM     13  O   UNL     1       1.363  13.250  19.808  0.00  0.00    +0.000 OA
ATOM     14  H   UNL     1      -1.089  11.746  18.398  0.00  0.00    +0.000 HD
BRANCH  12  15
ATOM     15  C   UNL     1      -0.326  14.254  18.550  0.00  0.00    +0.000 C 
BRANCH  15  16
ATOM     16  C   UNL     1       0.177  15.604  18.913  0.00  0.00    +0.000 C 
ATOM     17  O   UNL     1      -0.460  16.466  19.493  0.00  0.00    +0.000 OA
BRANCH  16  18
ATOM     18  O   UNL     1       1.467  15.789  18.534  0.00  0.00    +0.000 OA
ATOM     19  H   UNL     1       1.599  16.495  17.867  0.00  0.00    +0.000 HD
ENDBRANCH  16  18
ENDBRANCH  15  16
ENDBRANCH  12  15
ENDBRANCH   4  11
BRANCH   7  20
ATOM     20  O   UNL     1       2.328   6.960  20.398  0.00  0.00    +0.000 OA
BRANCH  20  21
ATOM     21  C   UNL     1       2.131   5.731  19.824  0.00  0.00    +0.000 A 
ATOM     22  C   UNL     1       1.122   4.934  20.365  0.00  0.00    +0.000 A 
ATOM     23  C   UNL     1       1.020   3.594  19.991  0.00  0.00    +0.000 A 
ATOM     24  C   UNL     1       1.957   3.060  19.109  0.00  0.00    +0.000 A 
ATOM     25  C   UNL     1       2.905   3.877  18.483  0.00  0.00    +0.000 A 
ATOM     26  C   UNL     1       2.912   5.248  18.778  0.00  0.00    +0.000 A 
BRANCH  24  27
ATOM     27  O   UNL     1       1.998   1.713  18.891  0.00  0.00    +0.000 OA
ATOM     28  H   UNL     1       2.089   1.260  19.746  0.00  0.00    +0.000 HD
ENDBRANCH  24  27
BRANCH  25  29
ATOM     29  C   UNL     1       4.042   3.306  17.670  0.00  0.00    +0.000 C 
BRANCH  29  30
ATOM     30  C   UNL     1       4.574   4.270  16.618  0.00  0.00    +0.000 C 
BRANCH  30  31
ATOM     31  C   UNL     1       5.664   5.143  17.189  0.00  0.00    +0.000 A 
ATOM     32  C   UNL     1       5.837   6.454  16.720  0.00  0.00    +0.000 A 
ATOM     33  C   UNL     1       6.852   7.257  17.241  0.00  0.00    +0.000 A 
ATOM     34  C   UNL     1       7.695   6.744  18.220  0.00  0.00    +0.000 A 
ATOM     35  F   UNL     1       8.668   7.516  18.722  0.00  0.00    +0.000 F 
ATOM     36  C   UNL     1       7.547   5.441  18.684  0.00  0.00    +0.000 A 
ATOM     37  C   UNL     1       6.533   4.638  18.166  0.00  0.00    +0.000 A 
ENDBRANCH  30  31
ENDBRANCH  29  30
ENDBRANCH  25  29
ENDBRANCH  20  21
ENDBRANCH   7  20
TORSDOF 10
ENDMDL
MODEL 3
REMARK VINA RESULT:      -8.6      0.527      1.066
REMARK  Name = 
REMARK  11 active torsions:
REMARK  status: ('A' for Active; 'I' for Inactive)
REMARK    1  A    between atoms: C_1  and  C_2
REMARK    2  A    between atoms: C_4  and  N_5
REMARK    3  A    between atoms: C_6  and  C_8
REMARK    4  A    between atoms: C_8  and  C_9
REMARK    5  A    between atoms: C_9  and  O_11
REMARK    6  A    between atoms: C_14  and  O_15
REMARK    7  A    between atoms: O_15  and  C_16
REMARK    8  A    between atoms: C_19  and  O_20
REMARK    9  A    between atoms: C_21  and  C_22
REMARK   10  A    between atoms: C_22  and  C_23
REMARK   11  A    between atoms: C_23  and  C_24
REMARK                            x       y       z     vdW  Elec       q    Type
REMARK                         _______ _______ _______ _____ _____    ______ ____
ROOT
ATOM      1  C   UNL     1       2.815   8.318  17.428  0.00  0.00    +0.000 C 
ATOM      2  C   UNL     1       1.921   8.756  18.560  0.00  0.00    +0.000 A 
ATOM      3  C   UNL     1       1.244   9.972  18.311  0.00  0.00    +0.000 A 
ATOM      4  C   UNL     1       0.475  10.643  19.261  0.00  0.00    +0.000 A 
ATOM      5  C   UNL     1       0.313  10.020  20.492  0.00  0.00    +0.000 A 
ATOM      6  C   UNL     1       0.948   8.793  20.759  0.00  0.00    +0.000 A 
ATOM      7  C   UNL     1       1.750   8.137  19.813  0.00  0.00    +0.000 A 
ATOM      8  C   UNL     1       0.674   8.324  22.158  0.00  0.00    +0.000 C 
ATOM      9  C   UNL     1      -0.214   9.423  22.751  0.00  0.00    +0.000 C 
ATOM     10  C   UNL     1      -0.454  10.501  21.684  0.00  0.00    +0.000 C 
ENDROOT
BRANCH   4  11
ATOM     11  N   UNL     1      -0.106  11.903  18.973  0.00  0.00    +0.000 N 
ATOM     12  C   UNL     1       0.539  13.122  19.081  0.00  0.00    +0.000 C 
ATOM     13  O   UNL     1       1.677  13.297  19.534  0.00  0.00    +0.000 OA
ATOM     14  H   UNL     1      -1.106  11.910  18.768  0.00  0.00    +0.000 HD
BRANCH  12  15
ATOM     15  C   UNL     1      -0.184  14.364  18.619  0.00  0.00    +0.000 C 
BRANCH  15  16
ATOM     16  C   UNL     1      -0.408  15.475  19.579  0.00  0.00    +0.000 C 
ATOM     17  O   UNL     1      -1.488  15.816  20.029  0.00  0.00    +0.000 OA
BRANCH  16  18
ATOM     18  O   UNL     1       0.750  16.089  19.931  0.00  0.00    +0.000 OA
ATOM     19  H   UNL     1       0.634  16.956  20.374  0.00  0.00    +0.000 HD
ENDBRANCH  16  18
ENDBRANCH  15  16
ENDBRANCH  12  15
ENDBRANCH   4  11
BRANCH   7  20
ATOM     20  O   UNL     1       2.344   6.977  20.280  0.00  0.00    +0.000 OA
BRANCH  20  21
ATOM     21  C   UNL     1       1.925   5.752  19.829  0.00  0.00    +0.000 A 
ATOM     22  C   UNL     1       1.268   4.931  20.746  0.00  0.00    +0.000 A 
ATOM     23  C   UNL     1       1.024   3.594  20.430  0.00  0.00    +0.000 A 
ATOM     24  C   UNL     1       1.479   3.088  19.214  0.00  0.00    +0.000 A 
ATOM     25  C   UNL     1       2.044   3.930  18.249  0.00  0.00    +0.000 A 
ATOM     26  C   UNL     1       2.168   5.296  18.537  0.00  0.00    +0.000 A 
BRANCH  24  27
ATOM     27  O   UNL     1       1.433   1.745  18.974  0.00  0.00    +0.000 OA
ATOM     28  H   UNL     1       1.265   1.600  18.028  0.00  0.00    +0.000 HD
ENDBRANCH  24  27
BRANCH  25  29
ATOM     29  C   UNL     1       2.709   3.389  17.006  0.00  0.00    +0.000 C 
BRANCH  29  30
ATOM     30  C   UNL     1       4.180   3.048  17.208  0.00  0.00    +0.000 C 
BRANCH  30  31
ATOM     31  C   UNL     1       5.020   4.300  17.263  0.00  0.00    +0.000 A 
ATOM     32  C   UNL     1       5.763   4.601  18.415  0.00  0.00    +0.000 A 
ATOM     33  C   UNL     1       6.531   5.764  18.470  0.00  0.00    +0.000 A 
ATOM     34  C   UNL     1       6.546   6.625  17.379  0.00  0.00    +0.000 A 
ATOM     35  F   UNL     1       7.286   7.741  17.430  0.00  0.00    +0.000 F 
ATOM     36  C   UNL     1       5.803   6.350  16.236  0.00  0.00    +0.000 A 
ATOM     37  C   UNL     1       5.036   5.187  16.179  0.00  0.00    +0.000 A 
ENDBRANCH  30  31
ENDBRANCH  29  30
ENDBRANCH  25  29
ENDBRANCH  20  21
ENDBRANCH   7  20
TORSDOF 10
ENDMDL
MODEL 4
REMARK VINA RESULT:      -8.2      1.151      1.333
REMARK  Name = 
REMARK  11 active torsions:
REMARK  status: ('A' for Active; 'I' for Inactive)
REMARK    1  A    between atoms: C_1  and  C_2
REMARK    2  A    between atoms: C_4  and  N_5
REMARK    3  A    between atoms: C_6  and  C_8
REMARK    4  A    between atoms: C_8  and  C_9
REMARK    5  A    between atoms: C_9  and  O_11
REMARK    6  A    between atoms: C_14  and  O_15
REMARK    7  A    between atoms: O_15  and  C_16
REMARK    8  A    between atoms: C_19  and  O_20
REMARK    9  A    between atoms: C_21  and  C_22
REMARK   10  A    between atoms: C_22  and  C_23
REMARK   11  A    between atoms: C_23  and  C_24
REMARK                            x       y       z     vdW  Elec       q    Type
REMARK                         _______ _______ _______ _____ _____    ______ ____
ROOT
ATOM      1  C   UNL     1       3.208   7.983  17.495  0.00  0.00    +0.000 C 
ATOM      2  C   UNL     1       2.224   8.526  18.501  0.00  0.00    +0.000 A 
ATOM      3  C   UNL     1       1.676   9.778  18.141  0.00  0.00    +0.000 A 
ATOM      4  C   UNL     1       0.856  10.537  18.974  0.00  0.00    +0.000 A 
ATOM      5  C   UNL     1       0.504   9.972  20.193  0.00  0.00    +0.000 A 
ATOM      6  C   UNL     1       1.007   8.712  20.567  0.00  0.00    +0.000 A 
ATOM      7  C   UNL     1       1.862   7.966  19.741  0.00  0.00    +0.000 A 
ATOM      8  C   UNL     1       0.537   8.315  21.935  0.00  0.00    +0.000 C 
ATOM      9  C   UNL     1      -0.327   9.496  22.388  0.00  0.00    +0.000 C 
ATOM     10  C   UNL     1      -0.358  10.551  21.272  0.00  0.00    +0.000 C 
ENDROOT
BRANCH   4  11
ATOM     11  N   UNL     1       0.411  11.825  18.585  0.00  0.00    +0.000 N 
ATOM     12  C   UNL     1       1.034  13.016  18.912  0.00  0.00    +0.000 C 
ATOM     13  O   UNL     1       2.007  13.137  19.666  0.00  0.00    +0.000 OA
ATOM     14  H   UNL     1      -0.493  11.874  18.113  0.00  0.00    +0.000 HD
BRANCH  12  15
ATOM     15  C   UNL     1       0.500  14.296  18.315  0.00  0.00    +0.000 C 
BRANCH  15  16
ATOM     16  C   UNL     1      -0.380  15.168  19.135  0.00  0.00    +0.000 C 
ATOM     17  O   UNL     1      -0.705  16.309  18.857  0.00  0.00    +0.000 OA
BRANCH  16  18
ATOM     18  O   UNL     1      -0.814  14.546  20.260  0.00  0.00    +0.000 OA
ATOM     19  H   UNL     1      -0.174  13.913  20.649  0.00  0.00    +0.000 HD
ENDBRANCH  16  18
ENDBRANCH  15  16
ENDBRANCH  12  15
ENDBRANCH   4  11
BRANCH   7  20
ATOM     20  O   UNL     1       2.306   6.783  20.307  0.00  0.00    +0.000 OA
BRANCH  20  21
ATOM     21  C   UNL     1       1.967   5.577  19.751  0.00  0.00    +0.000 A 
ATOM     22  C   UNL     1       1.058   4.787  20.457  0.00  0.00    +0.000 A 
ATOM     23  C   UNL     1       0.848   3.462  20.075  0.00  0.00    +0.000 A 
ATOM     24  C   UNL     1       1.582   2.934  19.015  0.00  0.00    +0.000 A 
ATOM     25  C   UNL     1       2.415   3.747  18.239  0.00  0.00    +0.000 A 
ATOM     26  C   UNL     1       2.518   5.108  18.562  0.00  0.00    +0.000 A 
BRANCH  24  27
ATOM     27  O   UNL     1       1.542   1.593  18.760  0.00  0.00    +0.000 OA
ATOM     28  H   UNL     1       1.894   1.116  19.529  0.00  0.00    +0.000 HD
ENDBRANCH  24  27
BRANCH  25  29
ATOM     29  C   UNL     1       3.357   3.176  17.207  0.00  0.00    +0.000 C 
BRANCH  29  30
ATOM     30  C   UNL     1       4.826   3.399  17.541  0.00  0.00    +0.000 C 
BRANCH  30  31
ATOM     31  C   UNL     1       5.578   3.921  16.342  0.00  0.00    +0.000 A 
ATOM     32  C   UNL     1       5.037   3.781  15.054  0.00  0.00    +0.000 A 
ATOM     33  C   UNL     1       5.737   4.254  13.945  0.00  0.00    +0.000 A 
ATOM     34  C   UNL     1       6.977   4.856  14.125  0.00  0.00    +0.000 A 
ATOM     35  F   UNL     1       7.649   5.313  13.059  0.00  0.00    +0.000 F 
ATOM     36  C   UNL     1       7.534   4.988  15.392  0.00  0.00    +0.000 A 
ATOM     37  C   UNL     1       6.835   4.517  16.503  0.00  0.00    +0.000 A 
ENDBRANCH  30  31
ENDBRANCH  29  30
ENDBRANCH  25  29
ENDBRANCH  20  21
ENDBRANCH   7  20
TORSDOF 10
ENDMDL
MODEL 5
REMARK VINA RESULT:      -8.0      0.984      1.430
REMARK  Name = 
REMARK  11 active torsions:
REMARK  status: ('A' for Active; 'I' for Inactive)
REMARK    1  A    between atoms: C_1  and  C_2
REMARK    2  A    between atoms: C_4  and  N_5
REMARK    3  A    between atoms: C_6  and  C_8
REMARK    4  A    between atoms: C_8  and  C_9
REMARK    5  A    between atoms: C_9  and  O_11
REMARK    6  A    between atoms: C_14  and  O_15
REMARK    7  A    between atoms: O_15  and  C_16
REMARK    8  A    between atoms: C_19  and  O_20
REMARK    9  A    between atoms: C_21  and  C_22
REMARK   10  A    between atoms: C_22  and  C_23
REMARK   11  A    between atoms: C_23  and  C_24
REMARK                            x       y       z     vdW  Elec       q    Type
REMARK                         _______ _______ _______ _____ _____    ______ ____
ROOT
ATOM      1  C   UNL     1       3.001   7.600  17.710  0.00  0.00    +0.000 C 
ATOM      2  C   UNL     1       2.154   8.272  18.761  0.00  0.00    +0.000 A 
ATOM      3  C   UNL     1       1.716   9.566  18.395  0.00  0.00    +0.000 A 
ATOM      4  C   UNL     1       1.042  10.431  19.255  0.00  0.00    +0.000 A 
ATOM      5  C   UNL     1       0.721   9.941  20.514  0.00  0.00    +0.000 A 
ATOM      6  C   UNL     1       1.115   8.646  20.897  0.00  0.00    +0.000 A 
ATOM      7  C   UNL     1       1.825   7.789  20.041  0.00  0.00    +0.000 A 
ATOM      8  C   UNL     1       0.706   8.339  22.307  0.00  0.00    +0.000 C 
ATOM      9  C   UNL     1       0.005   9.618  22.777  0.00  0.00    +0.000 C 
ATOM     10  C   UNL     1       0.005  10.639  21.629  0.00  0.00    +0.000 C 
ENDROOT
BRANCH   4  11
ATOM     11  N   UNL     1       0.707  11.748  18.852  0.00  0.00    +0.000 N 
ATOM     12  C   UNL     1      -0.573  12.197  18.579  0.00  0.00    +0.000 C 
ATOM     13  O   UNL     1      -1.592  11.496  18.553  0.00  0.00    +0.000 OA
ATOM     14  H   UNL     1       1.485  12.378  18.654  0.00  0.00    +0.000 HD
BRANCH  12  15
ATOM     15  C   UNL     1      -0.774  13.663  18.280  0.00  0.00    +0.000 C 
BRANCH  15  16
ATOM     16  C   UNL     1       0.019  14.673  19.027  0.00  0.00    +0.000 C 
ATOM     17  O   UNL     1       0.547  15.659  18.544  0.00  0.00    +0.000 OA
BRANCH  16  18
ATOM     18  O   UNL     1       0.093  14.388  20.352  0.00  0.00    +0.000 OA
ATOM     19  H   UNL     1      -0.701  14.640  20.869  0.00  0.00    +0.000 HD
ENDBRANCH  16  18
ENDBRANCH  15  16
ENDBRANCH  12  15
ENDBRANCH   4  11
BRANCH   7  20
ATOM     20  O   UNL     1       2.182   6.582  20.617  0.00  0.00    +0.000 OA
BRANCH  20  21
ATOM     21  C   UNL     1       1.974   5.404  19.946  0.00  0.00    +0.000 A 
ATOM     22  C   UNL     1       0.918   4.605  20.384  0.00  0.00    +0.000 A 
ATOM     23  C   UNL     1       0.793   3.299  19.909  0.00  0.00    +0.000 A 
ATOM     24  C   UNL     1       1.752   2.799  19.031  0.00  0.00    +0.000 A 
ATOM     25  C   UNL     1       2.752   3.627  18.508  0.00  0.00    +0.000 A 
ATOM     26  C   UNL     1       2.787   4.972  18.903  0.00  0.00    +0.000 A 
BRANCH  24  27
ATOM     27  O   UNL     1       1.762   1.470  18.717  0.00  0.00    +0.000 OA
ATOM     28  H   UNL     1       0.928   1.071  19.015  0.00  0.00    +0.000 HD
ENDBRANCH  24  27
BRANCH  25  29
ATOM     29  C   UNL     1       3.907   3.079  17.705  0.00  0.00    +0.000 C 
BRANCH  29  30
ATOM     30  C   UNL     1       4.430   4.052  16.658  0.00  0.00    +0.000 C 
BRANCH  30  31
ATOM     31  C   UNL     1       5.545   4.900  17.219  0.00  0.00    +0.000 A 
ATOM     32  C   UNL     1       6.046   4.644  18.504  0.00  0.00    +0.000 A 
ATOM     33  C   UNL     1       7.070   5.435  19.028  0.00  0.00    +0.000 A 
ATOM     34  C   UNL     1       7.580   6.481  18.269  0.00  0.00    +0.000 A 
ATOM     35  F   UNL     1       8.565   7.239  18.770  0.00  0.00    +0.000 F 
ATOM     36  C   UNL     1       7.084   6.758  17.000  0.00  0.00    +0.000 A 
ATOM     37  C   UNL     1       6.062   5.968  16.475  0.00  0.00    +0.000 A 
ENDBRANCH  30  31
ENDBRANCH  29  30
ENDBRANCH  25  29
ENDBRANCH  20  21
ENDBRANCH   7  20
TORSDOF 10
ENDMDL
MODEL 6
REMARK VINA RESULT:      -8.0      1.055      1.246
REMARK  Name = 
REMARK  11 active torsions:
REMARK  status: ('A' for Active; 'I' for Inactive)
REMARK    1  A    between atoms: C_1  and  C_2
REMARK    2  A    between atoms: C_4  and  N_5
REMARK    3  A    between atoms: C_6  and  C_8
REMARK    4  A    between atoms: C_8  and  C_9
REMARK    5  A    between atoms: C_9  and  O_11
REMARK    6  A    between atoms: C_14  and  O_15
REMARK    7  A    between atoms: O_15  and  C_16
REMARK    8  A    between atoms: C_19  and  O_20
REMARK    9  A    between atoms: C_21  and  C_22
REMARK   10  A    between atoms: C_22  and  C_23
REMARK   11  A    between atoms: C_23  and  C_24
REMARK                            x       y       z     vdW  Elec       q    Type
REMARK                         _______ _______ _______ _____ _____    ______ ____
ROOT
ATOM      1  C   UNL     1       2.200   8.963  17.463  0.00  0.00    +0.000 C 
ATOM      2  C   UNL     1       1.492   9.261  18.761  0.00  0.00    +0.000 A 
ATOM      3  C   UNL     1       0.699  10.430  18.721  0.00  0.00    +0.000 A 
ATOM      4  C   UNL     1       0.066  10.980  19.835  0.00  0.00    +0.000 A 
ATOM      5  C   UNL     1       0.169  10.275  21.027  0.00  0.00    +0.000 A 
ATOM      6  C   UNL     1       0.924   9.090  21.092  0.00  0.00    +0.000 A 
ATOM      7  C   UNL     1       1.590   8.557  19.976  0.00  0.00    +0.000 A 
ATOM      8  C   UNL     1       0.937   8.519  22.479  0.00  0.00    +0.000 C 
ATOM      9  C   UNL     1       0.094   9.506  23.294  0.00  0.00    +0.000 C 
ATOM     10  C   UNL     1      -0.406  10.622  22.365  0.00  0.00    +0.000 C 
ENDROOT
BRANCH   4  11
ATOM     11  N   UNL     1      -0.643  12.203  19.743  0.00  0.00    +0.000 N 
ATOM     12  C   UNL     1      -0.105  13.457  19.978  0.00  0.00    +0.000 C 
ATOM     13  O   UNL     1       1.038  13.683  20.394  0.00  0.00    +0.000 OA
ATOM     14  H   UNL     1      -1.650  12.139  19.589  0.00  0.00    +0.000 HD
BRANCH  12  15
ATOM     15  C   UNL     1      -0.964  14.670  19.718  0.00  0.00    +0.000 C 
BRANCH  15  16
ATOM     16  C   UNL     1      -2.157  14.912  20.568  0.00  0.00    +0.000 C 
ATOM     17  O   UNL     1      -2.477  14.257  21.544  0.00  0.00    +0.000 OA
BRANCH  16  18
ATOM     18  O   UNL     1      -2.880  15.981  20.145  0.00  0.00    +0.000 OA
ATOM     19  H   UNL     1      -3.798  15.771  19.874  0.00  0.00    +0.000 HD
ENDBRANCH  16  18
ENDBRANCH  15  16
ENDBRANCH  12  15
ENDBRANCH   4  11
BRANCH   7  20
ATOM     20  O   UNL     1       2.336   7.424  20.250  0.00  0.00    +0.000 OA
BRANCH  20  21
ATOM     21  C   UNL     1       1.931   6.198  19.789  0.00  0.00    +0.000 A 
ATOM     22  C   UNL     1       1.223   5.389  20.678  0.00  0.00    +0.000 A 
ATOM     23  C   UNL     1       0.985   4.051  20.361  0.00  0.00    +0.000 A 
ATOM     24  C   UNL     1       1.497   3.532  19.174  0.00  0.00    +0.000 A 
ATOM     25  C   UNL     1       2.116   4.361  18.232  0.00  0.00    +0.000 A 
ATOM     26  C   UNL     1       2.235   5.729  18.514  0.00  0.00    +0.000 A 
BRANCH  24  27
ATOM     27  O   UNL     1       1.453   2.187  18.943  0.00  0.00    +0.000 OA
ATOM     28  H   UNL     1       1.252   2.035  18.005  0.00  0.00    +0.000 HD
ENDBRANCH  24  27
BRANCH  25  29
ATOM     29  C   UNL     1       2.839   3.805  17.028  0.00  0.00    +0.000 C 
BRANCH  29  30
ATOM     30  C   UNL     1       4.262   3.358  17.332  0.00  0.00    +0.000 C 
BRANCH  30  31
ATOM     31  C   UNL     1       5.211   4.531  17.313  0.00  0.00    +0.000 A 
ATOM     32  C   UNL     1       5.044   5.558  16.372  0.00  0.00    +0.000 A 
ATOM     33  C   UNL     1       5.928   6.637  16.347  0.00  0.00    +0.000 A 
ATOM     34  C   UNL     1       6.978   6.680  17.256  0.00  0.00    +0.000 A 
ATOM     35  F   UNL     1       7.826   7.718  17.235  0.00  0.00    +0.000 F 
ATOM     36  C   UNL     1       7.167   5.663  18.185  0.00  0.00    +0.000 A 
ATOM     37  C   UNL     1       6.284   4.584  18.212  0.00  0.00    +0.000 A 
ENDBRANCH  30  31
ENDBRANCH  29  30
ENDBRANCH  25  29
ENDBRANCH  20  21
ENDBRANCH   7  20
TORSDOF 10
ENDMDL
MODEL 7
REMARK VINA RESULT:      -7.7      3.158      6.130
REMARK  Name = 
REMARK  11 active torsions:
REMARK  status: ('A' for Active; 'I' for Inactive)
REMARK    1  A    between atoms: C_1  and  C_2
REMARK    2  A    between atoms: C_4  and  N_5
REMARK    3  A    between atoms: C_6  and  C_8
REMARK    4  A    between atoms: C_8  and  C_9
REMARK    5  A    between atoms: C_9  and  O_11
REMARK    6  A    between atoms: C_14  and  O_15
REMARK    7  A    between atoms: O_15  and  C_16
REMARK    8  A    between atoms: C_19  and  O_20
REMARK    9  A    between atoms: C_21  and  C_22
REMARK   10  A    between atoms: C_22  and  C_23
REMARK   11  A    between atoms: C_23  and  C_24
REMARK                            x       y       z     vdW  Elec       q    Type
REMARK                         _______ _______ _______ _____ _____    ______ ____
ROOT
ATOM      1  C   UNL     1       1.915  10.446  18.203  0.00  0.00    +0.000 C 
ATOM      2  C   UNL     1       1.705  11.935  18.318  0.00  0.00    +0.000 A 
ATOM      3  C   UNL     1       2.853  12.697  18.000  0.00  0.00    +0.000 A 
ATOM      4  C   UNL     1       2.941  14.078  18.167  0.00  0.00    +0.000 A 
ATOM      5  C   UNL     1       1.794  14.733  18.596  0.00  0.00    +0.000 A 
ATOM      6  C   UNL     1       0.626  14.007  18.890  0.00  0.00    +0.000 A 
ATOM      7  C   UNL     1       0.551  12.611  18.754  0.00  0.00    +0.000 A 
ATOM      8  C   UNL     1      -0.474  14.904  19.376  0.00  0.00    +0.000 C 
ATOM      9  C   UNL     1       0.155  16.301  19.363  0.00  0.00    +0.000 C 
ATOM     10  C   UNL     1       1.600  16.195  18.854  0.00  0.00    +0.000 C 
ENDROOT
BRANCH   4  11
ATOM     11  N   UNL     1       4.151  14.769  17.911  0.00  0.00    +0.000 N 
ATOM     12  C   UNL     1       5.112  15.074  18.860  0.00  0.00    +0.000 C 
ATOM     13  O   UNL     1       5.010  14.876  20.076  0.00  0.00    +0.000 OA
ATOM     14  H   UNL     1       4.269  15.155  16.973  0.00  0.00    +0.000 HD
BRANCH  12  15
ATOM     15  C   UNL     1       6.403  15.708  18.401  0.00  0.00    +0.000 C 
BRANCH  15  16
ATOM     16  C   UNL     1       6.655  17.141  18.699  0.00  0.00    +0.000 C 
ATOM     17  O   UNL     1       7.681  17.748  18.445  0.00  0.00    +0.000 OA
BRANCH  16  18
ATOM     18  O   UNL     1       5.589  17.736  19.293  0.00  0.00    +0.000 OA
ATOM     19  H   UNL     1       5.451  18.672  19.039  0.00  0.00    +0.000 HD
ENDBRANCH  16  18
ENDBRANCH  15  16
ENDBRANCH  12  15
ENDBRANCH   4  11
BRANCH   7  20
ATOM     20  O   UNL     1      -0.658  12.068  19.154  0.00  0.00    +0.000 OA
BRANCH  20  21
ATOM     21  C   UNL     1      -0.740  11.328  20.305  0.00  0.00    +0.000 A 
ATOM     22  C   UNL     1      -1.008  12.021  21.486  0.00  0.00    +0.000 A 
ATOM     23  C   UNL     1      -0.875  11.375  22.715  0.00  0.00    +0.000 A 
ATOM     24  C   UNL     1      -0.436  10.053  22.746  0.00  0.00    +0.000 A 
ATOM     25  C   UNL     1      -0.267   9.322  21.564  0.00  0.00    +0.000 A 
ATOM     26  C   UNL     1      -0.526   9.953  20.340  0.00  0.00    +0.000 A 
BRANCH  24  27
ATOM     27  O   UNL     1      -0.105   9.472  23.936  0.00  0.00    +0.000 OA
ATOM     28  H   UNL     1       0.741   9.841  24.240  0.00  0.00    +0.000 HD
ENDBRANCH  24  27
BRANCH  25  29
ATOM     29  C   UNL     1       0.379   7.957  21.553  0.00  0.00    +0.000 C 
BRANCH  29  30
ATOM     30  C   UNL     1       1.777   7.956  20.949  0.00  0.00    +0.000 C 
BRANCH  30  31
ATOM     31  C   UNL     1       1.985   6.742  20.078  0.00  0.00    +0.000 A 
ATOM     32  C   UNL     1       2.518   6.883  18.787  0.00  0.00    +0.000 A 
ATOM     33  C   UNL     1       2.701   5.762  17.978  0.00  0.00    +0.000 A 
ATOM     34  C   UNL     1       2.342   4.507  18.457  0.00  0.00    +0.000 A 
ATOM     35  F   UNL     1       2.520   3.429  17.681  0.00  0.00    +0.000 F 
ATOM     36  C   UNL     1       1.798   4.352  19.727  0.00  0.00    +0.000 A 
ATOM     37  C   UNL     1       1.616   5.472  20.538  0.00  0.00    +0.000 A 
ENDBRANCH  30  31
ENDBRANCH  29  30
ENDBRANCH  25  29
ENDBRANCH  20  21
ENDBRANCH   7  20
TORSDOF 10
ENDMDL
MODEL 8
REMARK VINA RESULT:      -7.7      2.091      2.418
REMARK  Name = 
REMARK  11 active torsions:
REMARK  status: ('A' for Active; 'I' for Inactive)
REMARK    1  A    between atoms: C_1  and  C_2
REMARK    2  A    between atoms: C_4  and  N_5
REMARK    3  A    between atoms: C_6  and  C_8
REMARK    4  A    between atoms: C_8  and  C_9
REMARK    5  A    between atoms: C_9  and  O_11
REMARK    6  A    between atoms: C_14  and  O_15
REMARK    7  A    between atoms: O_15  and  C_16
REMARK    8  A    between atoms: C_19  and  O_20
REMARK    9  A    between atoms: C_21  and  C_22
REMARK   10  A    between atoms: C_22  and  C_23
REMARK   11  A    between atoms: C_23  and  C_24
REMARK                            x       y       z     vdW  Elec       q    Type
REMARK                         _______ _______ _______ _____ _____    ______ ____
ROOT
ATOM      1  C   UNL     1       1.694   9.249  17.453  0.00  0.00    +0.000 C 
ATOM      2  C   UNL     1       1.055   9.426  18.807  0.00  0.00    +0.000 A 
ATOM      3  C   UNL     1       0.063  10.433  18.840  0.00  0.00    +0.000 A 
ATOM      4  C   UNL     1      -0.564  10.870  20.006  0.00  0.00    +0.000 A 
ATOM      5  C   UNL     1      -0.237  10.206  21.181  0.00  0.00    +0.000 A 
ATOM      6  C   UNL     1       0.722   9.177  21.176  0.00  0.00    +0.000 A 
ATOM      7  C   UNL     1       1.378   8.762  20.006  0.00  0.00    +0.000 A 
ATOM      8  C   UNL     1       0.952   8.630  22.554  0.00  0.00    +0.000 C 
ATOM      9  C   UNL     1       0.016   9.456  23.442  0.00  0.00    +0.000 C 
ATOM     10  C   UNL     1      -0.752  10.456  22.564  0.00  0.00    +0.000 C 
ENDROOT
BRANCH   4  11
ATOM     11  N   UNL     1      -1.487  11.945  19.980  0.00  0.00    +0.000 N 
ATOM     12  C   UNL     1      -2.705  11.933  19.325  0.00  0.00    +0.000 C 
ATOM     13  O   UNL     1      -3.120  11.028  18.591  0.00  0.00    +0.000 OA
ATOM     14  H   UNL     1      -1.177  12.824  20.395  0.00  0.00    +0.000 HD
BRANCH  12  15
ATOM     15  C   UNL     1      -3.628  13.116  19.497  0.00  0.00    +0.000 C 
BRANCH  15  16
ATOM     16  C   UNL     1      -4.999  12.898  20.024  0.00  0.00    +0.000 C 
ATOM     17  O   UNL     1      -5.552  13.583  20.867  0.00  0.00    +0.000 OA
BRANCH  16  18
ATOM     18  O   UNL     1      -5.605  11.829  19.448  0.00  0.00    +0.000 OA
ATOM     19  H   UNL     1      -6.257  11.372  20.019  0.00  0.00    +0.000 HD
ENDBRANCH  16  18
ENDBRANCH  15  16
ENDBRANCH  12  15
ENDBRANCH   4  11
BRANCH   7  20
ATOM     20  O   UNL     1       2.336   7.784  20.210  0.00  0.00    +0.000 OA
BRANCH  20  21
ATOM     21  C   UNL     1       2.098   6.489  19.829  0.00  0.00    +0.000 A 
ATOM     22  C   UNL     1       1.554   5.637  20.791  0.00  0.00    +0.000 A 
ATOM     23  C   UNL     1       1.503   4.263  20.552  0.00  0.00    +0.000 A 
ATOM     24  C   UNL     1       2.037   3.758  19.368  0.00  0.00    +0.000 A 
ATOM     25  C   UNL     1       2.488   4.615  18.357  0.00  0.00    +0.000 A 
ATOM     26  C   UNL     1       2.415   5.999  18.566  0.00  0.00    +0.000 A 
BRANCH  24  27
ATOM     27  O   UNL     1       2.182   2.410  19.206  0.00  0.00    +0.000 OA
ATOM     28  H   UNL     1       1.749   1.957  19.949  0.00  0.00    +0.000 HD
ENDBRANCH  24  27
BRANCH  25  29
ATOM     29  C   UNL     1       3.235   4.103  17.149  0.00  0.00    +0.000 C 
BRANCH  29  30
ATOM     30  C   UNL     1       4.646   3.628  17.468  0.00  0.00    +0.000 C 
BRANCH  30  31
ATOM     31  C   UNL     1       5.593   4.797  17.590  0.00  0.00    +0.000 A 
ATOM     32  C   UNL     1       5.524   5.859  16.676  0.00  0.00    +0.000 A 
ATOM     33  C   UNL     1       6.406   6.934  16.783  0.00  0.00    +0.000 A 
ATOM     34  C   UNL     1       7.358   6.938  17.796  0.00  0.00    +0.000 A 
ATOM     35  F   UNL     1       8.205   7.972  17.901  0.00  0.00    +0.000 F 
ATOM     36  C   UNL     1       7.450   5.886  18.700  0.00  0.00    +0.000 A 
ATOM     37  C   UNL     1       6.568   4.811  18.596  0.00  0.00    +0.000 A 
ENDBRANCH  30  31
ENDBRANCH  29  30
ENDBRANCH  25  29
ENDBRANCH  20  21
ENDBRANCH   7  20
TORSDOF 10
ENDMDL
MODEL 9
REMARK VINA RESULT:      -7.7      4.160     10.151
REMARK  Name = 
REMARK  11 active torsions:
REMARK  status: ('A' for Active; 'I' for Inactive)
REMARK    1  A    between atoms: C_1  and  C_2
REMARK    2  A    between atoms: C_4  and  N_5
REMARK    3  A    between atoms: C_6  and  C_8
REMARK    4  A    between atoms: C_8  and  C_9
REMARK    5  A    between atoms: C_9  and  O_11
REMARK    6  A    between atoms: C_14  and  O_15
REMARK    7  A    between atoms: O_15  and  C_16
REMARK    8  A    between atoms: C_19  and  O_20
REMARK    9  A    between atoms: C_21  and  C_22
REMARK   10  A    between atoms: C_22  and  C_23
REMARK   11  A    between atoms: C_23  and  C_24
REMARK                            x       y       z     vdW  Elec       q    Type
REMARK                         _______ _______ _______ _____ _____    ______ ____
ROOT
ATOM      1  C   UNL     1      -0.129   9.096  22.373  0.00  0.00    +0.000 C 
ATOM      2  C   UNL     1       0.638   8.565  21.188  0.00  0.00    +0.000 A 
ATOM      3  C   UNL     1       1.169   7.271  21.388  0.00  0.00    +0.000 A 
ATOM      4  C   UNL     1       2.027   6.634  20.493  0.00  0.00    +0.000 A 
ATOM      5  C   UNL     1       2.297   7.298  19.303  0.00  0.00    +0.000 A 
ATOM      6  C   UNL     1       1.756   8.574  19.059  0.00  0.00    +0.000 A 
ATOM      7  C   UNL     1       0.921   9.227  19.978  0.00  0.00    +0.000 A 
ATOM      8  C   UNL     1       2.210   9.122  17.738  0.00  0.00    +0.000 C 
ATOM      9  C   UNL     1       3.121   8.026  17.175  0.00  0.00    +0.000 C 
ATOM     10  C   UNL     1       3.169   6.856  18.169  0.00  0.00    +0.000 C 
ENDROOT
BRANCH   4  11
ATOM     11  N   UNL     1       2.594   5.372  20.795  0.00  0.00    +0.000 N 
ATOM     12  C   UNL     1       2.035   4.148  20.470  0.00  0.00    +0.000 C 
ATOM     13  O   UNL     1       0.922   3.979  19.958  0.00  0.00    +0.000 OA
ATOM     14  H   UNL     1       3.427   5.373  21.386  0.00  0.00    +0.000 HD
BRANCH  12  15
ATOM     15  C   UNL     1       2.826   2.895  20.756  0.00  0.00    +0.000 C 
BRANCH  15  16
ATOM     16  C   UNL     1       3.673   2.309  19.686  0.00  0.00    +0.000 C 
ATOM     17  O   UNL     1       3.281   1.582  18.790  0.00  0.00    +0.000 OA
BRANCH  16  18
ATOM     18  O   UNL     1       4.972   2.686  19.796  0.00  0.00    +0.000 OA
ATOM     19  H   UNL     1       5.547   2.392  19.059  0.00  0.00    +0.000 HD
ENDBRANCH  16  18
ENDBRANCH  15  16
ENDBRANCH  12  15
ENDBRANCH   4  11
BRANCH   7  20
ATOM     20  O   UNL     1       0.542  10.502  19.593  0.00  0.00    +0.000 OA
BRANCH  20  21
ATOM     21  C   UNL     1      -0.772  10.785  19.325  0.00  0.00    +0.000 A 
ATOM     22  C   UNL     1      -1.304  10.265  18.144  0.00  0.00    +0.000 A 
ATOM     23  C   UNL     1      -2.550  10.701  17.693  0.00  0.00    +0.000 A 
ATOM     24  C   UNL     1      -3.229  11.682  18.413  0.00  0.00    +0.000 A 
ATOM     25  C   UNL     1      -2.751  12.130  19.649  0.00  0.00    +0.000 A 
ATOM     26  C   UNL     1      -1.558  11.588  20.146  0.00  0.00    +0.000 A 
BRANCH  24  27
ATOM     27  O   UNL     1      -4.345  12.265  17.884  0.00  0.00    +0.000 OA
ATOM     28  H   UNL     1      -4.179  12.470  16.949  0.00  0.00    +0.000 HD
ENDBRANCH  24  27
BRANCH  25  29
ATOM     29  C   UNL     1      -3.360  13.314  20.362  0.00  0.00    +0.000 C 
BRANCH  29  30
ATOM     30  C   UNL     1      -2.337  14.368  20.763  0.00  0.00    +0.000 C 
BRANCH  30  31
ATOM     31  C   UNL     1      -2.322  14.562  22.259  0.00  0.00    +0.000 A 
ATOM     32  C   UNL     1      -1.123  14.869  22.919  0.00  0.00    +0.000 A 
ATOM     33  C   UNL     1      -1.107  15.038  24.304  0.00  0.00    +0.000 A 
ATOM     34  C   UNL     1      -2.288  14.890  25.023  0.00  0.00    +0.000 A 
ATOM     35  F   UNL     1      -2.274  15.055  26.353  0.00  0.00    +0.000 F 
ATOM     36  C   UNL     1      -3.481  14.570  24.386  0.00  0.00    +0.000 A 
ATOM     37  C   UNL     1      -3.499  14.403  23.002  0.00  0.00    +0.000 A 
ENDBRANCH  30  31
ENDBRANCH  29  30
ENDBRANCH  25  29
ENDBRANCH  20  21
ENDBRANCH   7  20
TORSDOF 10
ENDMDL
