MODEL 1
REMARK VINA RESULT:      -5.7      0.000      0.000
REMARK  Name = 
REMARK  2 active torsions:
REMARK  status: ('A' for Active; 'I' for Inactive)
REMARK    1  A    between atoms: C_1  and  O_2
REMARK    2  A    between atoms: O_2  and  C_3
REMARK                            x       y       z     vdW  Elec       q    Type
REMARK                         _______ _______ _______ _____ _____    ______ ____
ROOT
ATOM      1  C   UNL     1       4.323   4.565  19.025  0.00  0.00    +0.000 A 
ATOM      2  C   UNL     1       4.709   4.378  17.686  0.00  0.00    +0.000 A 
ATOM      3  C   UNL     1       3.909   3.667  16.777  0.00  0.00    +0.000 A 
ATOM      4  C   UNL     1       2.691   3.141  17.188  0.00  0.00    +0.000 A 
ATOM      5  C   UNL     1       2.325   3.345  18.509  0.00  0.00    +0.000 A 
ATOM      6  C   UNL     1       3.107   4.038  19.438  0.00  0.00    +0.000 A 
ATOM      7  C   UNL     1       2.409   4.124  20.761  0.00  0.00    +0.000 C 
ATOM      8  C   UNL     1       1.069   3.397  20.572  0.00  0.00    +0.000 C 
ATOM      9  C   UNL     1       1.082   2.932  19.144  0.00  0.00    +0.000 C 
ATOM     10  O   UNL     1       0.199   2.307  18.583  0.00  0.00    +0.000 OA
ENDROOT
BRANCH   1  12
ATOM     11  C   UNL     1       6.516   5.456  19.266  0.00  0.00    +0.000 C 
ATOM     12  O   UNL     1       5.186   5.335  19.748  0.00  0.00    +0.000 OA
ENDBRANCH   1  12
TORSDOF 1
ENDMDL
MODEL 2
REMARK VINA RESULT:      -5.7      2.472      5.287
REMARK  Name = 
REMARK  2 active torsions:
REMARK  status: ('A' for Active; 'I' for Inactive)
REMARK    1  A    between atoms: C_1  and  O_2
REMARK    2  A    between atoms: O_2  and  C_3
REMARK                            x       y       z     vdW  Elec       q    Type
REMARK                         _______ _______ _______ _____ _____    ______ ____
ROOT
ATOM      1  C   UNL     1       5.285   4.534  18.489  0.00  0.00    +0.000 A 
ATOM      2  C   UNL     1       6.131   5.248  19.357  0.00  0.00    +0.000 A 
ATOM      3  C   UNL     1       7.293   5.889  18.897  0.00  0.00    +0.000 A 
ATOM      4  C   UNL     1       7.624   5.842  17.548  0.00  0.00    +0.000 A 
ATOM      5  C   UNL     1       6.772   5.142  16.710  0.00  0.00    +0.000 A 
ATOM      6  C   UNL     1       5.616   4.485  17.142  0.00  0.00    +0.000 A 
ATOM      7  C   UNL     1       4.894   3.864  15.986  0.00  0.00    +0.000 C 
ATOM      8  C   UNL     1       5.729   4.205  14.743  0.00  0.00    +0.000 C 
ATOM      9  C   UNL     1       6.890   5.001  15.266  0.00  0.00    +0.000 C 
ATOM     10  O   UNL     1       7.799   5.468  14.602  0.00  0.00    +0.000 OA
ENDROOT
BRANCH   1  12
ATOM     11  C   UNL     1       4.245   2.717  19.620  0.00  0.00    +0.000 C 
ATOM     12  O   UNL     1       4.169   4.033  19.092  0.00  0.00    +0.000 OA
ENDBRANCH   1  12
TORSDOF 1
ENDMDL
MODEL 3
REMARK VINA RESULT:      -5.6      1.473      1.713
REMARK  Name = 
REMARK  2 active torsions:
REMARK  status: ('A' for Active; 'I' for Inactive)
REMARK    1  A    between atoms: C_1  and  O_2
REMARK    2  A    between atoms: O_2  and  C_3
REMARK                            x       y       z     vdW  Elec       q    Type
REMARK                         _______ _______ _______ _____ _____    ______ ____
ROOT
ATOM      1  C   UNL     1       5.648   4.853  18.797  0.00  0.00    +0.000 A 
ATOM      2  C   UNL     1       6.257   4.545  17.567  0.00  0.00    +0.000 A 
ATOM      3  C   UNL     1       5.508   4.125  16.455  0.00  0.00    +0.000 A 
ATOM      4  C   UNL     1       4.126   4.021  16.549  0.00  0.00    +0.000 A 
ATOM      5  C   UNL     1       3.546   4.338  17.766  0.00  0.00    +0.000 A 
ATOM      6  C   UNL     1       4.268   4.747  18.892  0.00  0.00    +0.000 A 
ATOM      7  C   UNL     1       3.345   5.058  20.030  0.00  0.00    +0.000 C 
ATOM      8  C   UNL     1       1.928   4.800  19.499  0.00  0.00    +0.000 C 
ATOM      9  C   UNL     1       2.126   4.349  18.080  0.00  0.00    +0.000 C 
ATOM     10  O   UNL     1       1.246   4.039  17.295  0.00  0.00    +0.000 OA
ENDROOT
BRANCH   1  12
ATOM     11  C   UNL     1       7.784   5.772  19.304  0.00  0.00    +0.000 C 
ATOM     12  O   UNL     1       6.517   5.308  19.745  0.00  0.00    +0.000 OA
ENDBRANCH   1  12
TORSDOF 1
ENDMDL
MODEL 4
REMARK VINA RESULT:      -5.6      2.208      4.998
REMARK  Name = 
REMARK  2 active torsions:
REMARK  status: ('A' for Active; 'I' for Inactive)
REMARK    1  A    between atoms: C_1  and  O_2
REMARK    2  A    between atoms: O_2  and  C_3
REMARK                            x       y       z     vdW  Elec       q    Type
REMARK                         _______ _______ _______ _____ _____    ______ ____
ROOT
ATOM      1  C   UNL     1       2.924   4.148  17.421  0.00  0.00    +0.000 A 
ATOM      2  C   UNL     1       2.101   5.103  18.044  0.00  0.00    +0.000 A 
ATOM      3  C   UNL     1       2.519   6.431  18.231  0.00  0.00    +0.000 A 
ATOM      4  C   UNL     1       3.769   6.835  17.780  0.00  0.00    +0.000 A 
ATOM      5  C   UNL     1       4.559   5.881  17.161  0.00  0.00    +0.000 A 
ATOM      6  C   UNL     1       4.174   4.550  16.972  0.00  0.00    +0.000 A 
ATOM      7  C   UNL     1       5.232   3.790  16.232  0.00  0.00    +0.000 C 
ATOM      8  C   UNL     1       6.356   4.801  15.961  0.00  0.00    +0.000 C 
ATOM      9  C   UNL     1       5.874   6.086  16.571  0.00  0.00    +0.000 C 
ATOM     10  O   UNL     1       6.472   7.148  16.579  0.00  0.00    +0.000 OA
ENDROOT
BRANCH   1  12
ATOM     11  C   UNL     1       1.656   2.379  18.382  0.00  0.00    +0.000 C 
ATOM     12  O   UNL     1       2.334   2.928  17.263  0.00  0.00    +0.000 OA
ENDBRANCH   1  12
TORSDOF 1
ENDMDL
MODEL 5
REMARK VINA RESULT:      -5.6      1.917      2.563
REMARK  Name = 
REMARK  2 active torsions:
REMARK  status: ('A' for Active; 'I' for Inactive)
REMARK    1  A    between atoms: C_1  and  O_2
REMARK    2  A    between atoms: O_2  and  C_3
REMARK                            x       y       z     vdW  Elec       q    Type
REMARK                         _______ _______ _______ _____ _____    ______ ____
ROOT
ATOM      1  C   UNL     1       4.349   4.249  16.971  0.00  0.00    +0.000 A 
ATOM      2  C   UNL     1       4.464   5.649  17.044  0.00  0.00    +0.000 A 
ATOM      3  C   UNL     1       3.586   6.424  17.820  0.00  0.00    +0.000 A 
ATOM      4  C   UNL     1       2.581   5.808  18.555  0.00  0.00    +0.000 A 
ATOM      5  C   UNL     1       2.492   4.428  18.475  0.00  0.00    +0.000 A 
ATOM      6  C   UNL     1       3.344   3.633  17.702  0.00  0.00    +0.000 A 
ATOM      7  C   UNL     1       3.014   2.182  17.870  0.00  0.00    +0.000 C 
ATOM      8  C   UNL     1       1.836   2.134  18.855  0.00  0.00    +0.000 C 
ATOM      9  C   UNL     1       1.558   3.571  19.190  0.00  0.00    +0.000 C 
ATOM     10  O   UNL     1       0.691   3.979  19.945  0.00  0.00    +0.000 OA
ENDROOT
BRANCH   1  12
ATOM     11  C   UNL     1       6.520   4.386  16.005  0.00  0.00    +0.000 C 
ATOM     12  O   UNL     1       5.324   3.653  16.226  0.00  0.00    +0.000 OA
ENDBRANCH   1  12
TORSDOF 1
ENDMDL
MODEL 6
REMARK VINA RESULT:      -5.6      2.365      5.042
REMARK  Name = 
REMARK  2 active torsions:
REMARK  status: ('A' for Active; 'I' for Inactive)
REMARK    1  A    between atoms: C_1  and  O_2
REMARK    2  A    between atoms: O_2  and  C_3
REMARK                            x       y       z     vdW  Elec       q    Type
REMARK                         _______ _______ _______ _____ _____    ______ ____
ROOT
ATOM      1  C   UNL     1       5.267   4.056  18.686  0.00  0.00    +0.000 A 
ATOM      2  C   UNL     1       4.380   3.897  17.607  0.00  0.00    +0.000 A 
ATOM      3  C   UNL     1       4.417   4.743  16.486  0.00  0.00    +0.000 A 
ATOM      4  C   UNL     1       5.361   5.759  16.415  0.00  0.00    +0.000 A 
ATOM      5  C   UNL     1       6.232   5.893  17.485  0.00  0.00    +0.000 A 
ATOM      6  C   UNL     1       6.209   5.073  18.618  0.00  0.00    +0.000 A 
ATOM      7  C   UNL     1       7.307   5.447  19.566  0.00  0.00    +0.000 C 
ATOM      8  C   UNL     1       8.049   6.616  18.902  0.00  0.00    +0.000 C 
ATOM      9  C   UNL     1       7.324   6.846  17.607  0.00  0.00    +0.000 C 
ATOM     10  O   UNL     1       7.594   7.693  16.772  0.00  0.00    +0.000 OA
ENDROOT
BRANCH   1  12
ATOM     11  C   UNL     1       3.823   2.638  19.939  0.00  0.00    +0.000 C 
ATOM     12  O   UNL     1       5.134   3.107  19.657  0.00  0.00    +0.000 OA
ENDBRANCH   1  12
TORSDOF 1
ENDMDL
MODEL 7
REMARK VINA RESULT:      -5.5      1.829      4.470
REMARK  Name = 
REMARK  2 active torsions:
REMARK  status: ('A' for Active; 'I' for Inactive)
REMARK    1  A    between atoms: C_1  and  O_2
REMARK    2  A    between atoms: O_2  and  C_3
REMARK                            x       y       z     vdW  Elec       q    Type
REMARK                         _______ _______ _______ _____ _____    ______ ____
ROOT
ATOM      1  C   UNL     1       4.015   4.766  19.019  0.00  0.00    +0.000 A 
ATOM      2  C   UNL     1       3.148   4.143  18.104  0.00  0.00    +0.000 A 
ATOM      3  C   UNL     1       3.588   3.717  16.840  0.00  0.00    +0.000 A 
ATOM      4  C   UNL     1       4.916   3.892  16.472  0.00  0.00    +0.000 A 
ATOM      5  C   UNL     1       5.755   4.500  17.392  0.00  0.00    +0.000 A 
ATOM      6  C   UNL     1       5.342   4.944  18.652  0.00  0.00    +0.000 A 
ATOM      7  C   UNL     1       6.495   5.511  19.420  0.00  0.00    +0.000 C 
ATOM      8  C   UNL     1       7.715   5.376  18.497  0.00  0.00    +0.000 C 
ATOM      9  C   UNL     1       7.182   4.740  17.245  0.00  0.00    +0.000 C 
ATOM     10  O   UNL     1       7.828   4.458  16.251  0.00  0.00    +0.000 OA
ENDROOT
BRANCH   1  12
ATOM     11  C   UNL     1       2.029   4.901  20.324  0.00  0.00    +0.000 C 
ATOM     12  O   UNL     1       3.437   5.053  20.221  0.00  0.00    +0.000 OA
ENDBRANCH   1  12
TORSDOF 1
ENDMDL
MODEL 8
REMARK VINA RESULT:      -5.5      2.040      4.090
REMARK  Name = 
REMARK  2 active torsions:
REMARK  status: ('A' for Active; 'I' for Inactive)
REMARK    1  A    between atoms: C_1  and  O_2
REMARK    2  A    between atoms: O_2  and  C_3
REMARK                            x       y       z     vdW  Elec       q    Type
REMARK                         _______ _______ _______ _____ _____    ______ ____
ROOT
ATOM      1  C   UNL     1       2.420   3.076  18.737  0.00  0.00    +0.000 A 
ATOM      2  C   UNL     1       1.612   2.629  19.798  0.00  0.00    +0.000 A 
ATOM      3  C   UNL     1       1.091   3.515  20.755  0.00  0.00    +0.000 A 
ATOM      4  C   UNL     1       1.356   4.875  20.660  0.00  0.00    +0.000 A 
ATOM      5  C   UNL     1       2.147   5.295  19.603  0.00  0.00    +0.000 A 
ATOM      6  C   UNL     1       2.688   4.435  18.642  0.00  0.00    +0.000 A 
ATOM      7  C   UNL     1       3.453   5.205  17.610  0.00  0.00    +0.000 C 
ATOM      8  C   UNL     1       3.338   6.679  18.022  0.00  0.00    +0.000 C 
ATOM      9  C   UNL     1       2.513   6.665  19.277  0.00  0.00    +0.000 C 
ATOM     10  O   UNL     1       2.186   7.638  19.934  0.00  0.00    +0.000 OA
ENDROOT
BRANCH   1  12
ATOM     11  C   UNL     1       3.808   1.199  18.274  0.00  0.00    +0.000 C 
ATOM     12  O   UNL     1       2.782   2.092  17.865  0.00  0.00    +0.000 OA
ENDBRANCH   1  12
TORSDOF 1
ENDMDL
MODEL 9
REMARK VINA RESULT:      -5.5      1.945      2.780
REMARK  Name = 
REMARK  2 active torsions:
REMARK  status: ('A' for Active; 'I' for Inactive)
REMARK    1  A    between atoms: C_1  and  O_2
REMARK    2  A    between atoms: O_2  and  C_3
REMARK                            x       y       z     vdW  Elec       q    Type
REMARK                         _______ _______ _______ _____ _____    ______ ____
ROOT
ATOM      1  C   UNL     1       6.799   4.505  17.650  0.00  0.00    +0.000 A 
ATOM      2  C   UNL     1       7.134   4.708  16.299  0.00  0.00    +0.000 A 
ATOM      3  C   UNL     1       6.199   4.520  15.268  0.00  0.00    +0.000 A 
ATOM      4  C   UNL     1       4.898   4.140  15.572  0.00  0.00    +0.000 A 
ATOM      5  C   UNL     1       4.587   3.955  16.909  0.00  0.00    +0.000 A 
ATOM      6  C   UNL     1       5.500   4.123  17.955  0.00  0.00    +0.000 A 
ATOM      7  C   UNL     1       4.840   3.894  19.279  0.00  0.00    +0.000 C 
ATOM      8  C   UNL     1       3.376   3.556  18.961  0.00  0.00    +0.000 C 
ATOM      9  C   UNL     1       3.287   3.607  17.462  0.00  0.00    +0.000 C 
ATOM     10  O   UNL     1       2.289   3.398  16.794  0.00  0.00    +0.000 OA
ENDROOT
BRANCH   1  12
ATOM     11  C   UNL     1       7.890   6.130  19.004  0.00  0.00    +0.000 C 
ATOM     12  O   UNL     1       7.808   4.798  18.520  0.00  0.00    +0.000 OA
ENDBRANCH   1  12
TORSDOF 1
ENDMDL
