MODEL 1
REMARK VINA RESULT:      -8.3      0.000      0.000
REMARK  Name = 
REMARK  6 active torsions:
REMARK  status: ('A' for Active; 'I' for Inactive)
REMARK    1  A    between atoms: C_1  and  C_2
REMARK    2  A    between atoms: C_5  and  C_6
REMARK    3  A    between atoms: C_6  and  N_7
REMARK    4  A    between atoms: N_13  and  C_14
REMARK    5  A    between atoms: C_14  and  C_15
REMARK    6  A    between atoms: C_20  and  C_21
REMARK                            x       y       z     vdW  Elec       q    Type
REMARK                         _______ _______ _______ _____ _____    ______ ____
ROOT
ATOM      1  N   UNL     1       1.434   9.089  19.590  0.00  0.00    +0.000 N 
ATOM      2  N   UNL     1       0.889   8.934  20.821  0.00  0.00    +0.000 NA
ATOM      3  N   UNL     1       1.173   7.698  21.238  0.00  0.00    +0.000 NA
ATOM      4  C   UNL     1       1.873   7.083  20.242  0.00  0.00    +0.000 A 
ATOM      5  C   UNL     1       2.447   5.760  20.171  0.00  0.00    +0.000 A 
ATOM      6  O   UNL     1       2.317   4.916  21.053  0.00  0.00    +0.000 OA
ATOM      7  N   UNL     1       3.140   5.548  18.964  0.00  0.00    +0.000 N 
ATOM      8  C   UNL     1       3.115   6.482  17.928  0.00  0.00    +0.000 A 
ATOM      9  N   UNL     1       2.583   7.668  17.971  0.00  0.00    +0.000 NA
ATOM     10  C   UNL     1       2.010   7.926  19.166  0.00  0.00    +0.000 A 
ENDROOT
BRANCH   1  11
ATOM     11  C   UNL     1       1.260  10.316  18.839  0.00  0.00    +0.000 C 
BRANCH  11  16
ATOM     12  C   UNL     1      -4.414  11.270  17.904  0.00  0.00    +0.000 C 
ATOM     13  C   UNL     1      -2.938  11.065  18.079  0.00  0.00    +0.000 A 
ATOM     14  C   UNL     1      -2.264  10.050  17.392  0.00  0.00    +0.000 A 
ATOM     15  C   UNL     1      -0.900   9.829  17.611  0.00  0.00    +0.000 A 
ATOM     16  C   UNL     1      -0.187  10.614  18.529  0.00  0.00    +0.000 A 
ATOM     17  C   UNL     1      -0.855  11.656  19.184  0.00  0.00    +0.000 A 
ATOM     18  C   UNL     1      -2.220  11.874  18.967  0.00  0.00    +0.000 A 
ENDBRANCH  11  16
ENDBRANCH   1  11
BRANCH   7  19
ATOM     19  C   UNL     1       3.896   4.314  18.790  0.00  0.00    +0.000 C 
BRANCH  19  20
ATOM     20  C   UNL     1       4.994   4.436  17.744  0.00  0.00    +0.000 A 
ATOM     21  C   UNL     1       4.695   4.020  16.430  0.00  0.00    +0.000 A 
ATOM     22  C   UNL     1       5.628   4.126  15.400  0.00  0.00    +0.000 A 
ATOM     23  C   UNL     1       6.885   4.655  15.660  0.00  0.00    +0.000 A 
ATOM     24  C   UNL     1       7.210   5.059  16.952  0.00  0.00    +0.000 A 
ATOM     25  C   UNL     1       6.286   4.946  18.009  0.00  0.00    +0.000 A 
ATOM     26  C   UNL     1       6.729   5.435  19.360  0.00  0.00    +0.000 C 
ENDBRANCH  19  20
ENDBRANCH   7  19
TORSDOF 4
ENDMDL
MODEL 2
REMARK VINA RESULT:      -8.2      0.543      1.522
REMARK  Name = 
REMARK  6 active torsions:
REMARK  status: ('A' for Active; 'I' for Inactive)
REMARK    1  A    between atoms: C_1  and  C_2
REMARK    2  A    between atoms: C_5  and  C_6
REMARK    3  A    between atoms: C_6  and  N_7
REMARK    4  A    between atoms: N_13  and  C_14
REMARK    5  A    between atoms: C_14  and  C_15
REMARK    6  A    between atoms: C_20  and  C_21
REMARK                            x       y       z     vdW  Elec       q    Type
REMARK                         _______ _______ _______ _____ _____    ______ ____
ROOT
ATOM      1  N   UNL     1       1.228   9.374  19.720  0.00  0.00    +0.000 N 
ATOM      2  N   UNL     1       0.806   9.187  20.995  0.00  0.00    +0.000 NA
ATOM      3  N   UNL     1       1.120   7.938  21.347  0.00  0.00    +0.000 NA
ATOM      4  C   UNL     1       1.714   7.348  20.271  0.00  0.00    +0.000 A 
ATOM      5  C   UNL     1       2.269   6.026  20.107  0.00  0.00    +0.000 A 
ATOM      6  O   UNL     1       2.220   5.157  20.974  0.00  0.00    +0.000 OA
ATOM      7  N   UNL     1       2.838   5.844  18.833  0.00  0.00    +0.000 N 
ATOM      8  C   UNL     1       2.718   6.806  17.830  0.00  0.00    +0.000 A 
ATOM      9  N   UNL     1       2.201   7.994  17.957  0.00  0.00    +0.000 NA
ATOM     10  C   UNL     1       1.751   8.220  19.210  0.00  0.00    +0.000 A 
ENDROOT
BRANCH   1  11
ATOM     11  C   UNL     1       0.990  10.622  19.024  0.00  0.00    +0.000 C 
BRANCH  11  16
ATOM     12  C   UNL     1      -4.662  11.090  17.675  0.00  0.00    +0.000 C 
ATOM     13  C   UNL     1      -3.191  11.011  17.958  0.00  0.00    +0.000 A 
ATOM     14  C   UNL     1      -2.382  10.066  17.320  0.00  0.00    +0.000 A 
ATOM     15  C   UNL     1      -1.024   9.961  17.638  0.00  0.00    +0.000 A 
ATOM     16  C   UNL     1      -0.451  10.796  18.609  0.00  0.00    +0.000 A 
ATOM     17  C   UNL     1      -1.254  11.771  19.215  0.00  0.00    +0.000 A 
ATOM     18  C   UNL     1      -2.613  11.872  18.898  0.00  0.00    +0.000 A 
ENDBRANCH  11  16
ENDBRANCH   1  11
BRANCH   7  19
ATOM     19  C   UNL     1       3.563   4.612  18.551  0.00  0.00    +0.000 C 
BRANCH  19  20
ATOM     20  C   UNL     1       5.051   4.840  18.326  0.00  0.00    +0.000 A 
ATOM     21  C   UNL     1       5.809   5.321  19.414  0.00  0.00    +0.000 A 
ATOM     22  C   UNL     1       7.184   5.527  19.311  0.00  0.00    +0.000 A 
ATOM     23  C   UNL     1       7.834   5.254  18.115  0.00  0.00    +0.000 A 
ATOM     24  C   UNL     1       7.106   4.793  17.022  0.00  0.00    +0.000 A 
ATOM     25  C   UNL     1       5.714   4.592  17.103  0.00  0.00    +0.000 A 
ATOM     26  C   UNL     1       5.026   4.067  15.873  0.00  0.00    +0.000 C 
ENDBRANCH  19  20
ENDBRANCH   7  19
TORSDOF 4
ENDMDL
MODEL 3
REMARK VINA RESULT:      -8.2      4.266      8.210
REMARK  Name = 
REMARK  6 active torsions:
REMARK  status: ('A' for Active; 'I' for Inactive)
REMARK    1  A    between atoms: C_1  and  C_2
REMARK    2  A    between atoms: C_5  and  C_6
REMARK    3  A    between atoms: C_6  and  N_7
REMARK    4  A    between atoms: N_13  and  C_14
REMARK    5  A    between atoms: C_14  and  C_15
REMARK    6  A    between atoms: C_20  and  C_21
REMARK                            x       y       z     vdW  Elec       q    Type
REMARK                         _______ _______ _______ _____ _____    ______ ____
ROOT
ATOM      1  N   UNL     1       7.008   5.343  16.032  0.00  0.00    +0.000 N 
ATOM      2  N   UNL     1       7.864   4.592  16.768  0.00  0.00    +0.000 NA
ATOM      3  N   UNL     1       7.336   4.453  17.987  0.00  0.00    +0.000 NA
ATOM      4  C   UNL     1       6.163   5.148  18.004  0.00  0.00    +0.000 A 
ATOM      5  C   UNL     1       5.180   5.313  19.049  0.00  0.00    +0.000 A 
ATOM      6  O   UNL     1       5.313   4.860  20.183  0.00  0.00    +0.000 OA
ATOM      7  N   UNL     1       4.078   6.078  18.623  0.00  0.00    +0.000 N 
ATOM      8  C   UNL     1       4.056   6.707  17.379  0.00  0.00    +0.000 A 
ATOM      9  N   UNL     1       4.945   6.584  16.436  0.00  0.00    +0.000 NA
ATOM     10  C   UNL     1       5.955   5.762  16.793  0.00  0.00    +0.000 A 
ENDROOT
BRANCH   1  11
ATOM     11  C   UNL     1       7.318   5.718  14.668  0.00  0.00    +0.000 C 
BRANCH  11  16
ATOM     12  C   UNL     1       5.513   1.613  10.942  0.00  0.00    +0.000 C 
ATOM     13  C   UNL     1       5.949   2.724  11.853  0.00  0.00    +0.000 A 
ATOM     14  C   UNL     1       7.137   3.423  11.620  0.00  0.00    +0.000 A 
ATOM     15  C   UNL     1       7.564   4.415  12.511  0.00  0.00    +0.000 A 
ATOM     16  C   UNL     1       6.813   4.718  13.656  0.00  0.00    +0.000 A 
ATOM     17  C   UNL     1       5.602   4.045  13.863  0.00  0.00    +0.000 A 
ATOM     18  C   UNL     1       5.178   3.052  12.973  0.00  0.00    +0.000 A 
ENDBRANCH  11  16
ENDBRANCH   1  11
BRANCH   7  19
ATOM     19  C   UNL     1       2.933   6.224  19.512  0.00  0.00    +0.000 C 
BRANCH  19  20
ATOM     20  C   UNL     1       2.300   4.891  19.885  0.00  0.00    +0.000 A 
ATOM     21  C   UNL     1       2.382   4.483  21.233  0.00  0.00    +0.000 A 
ATOM     22  C   UNL     1       1.802   3.294  21.673  0.00  0.00    +0.000 A 
ATOM     23  C   UNL     1       1.123   2.484  20.773  0.00  0.00    +0.000 A 
ATOM     24  C   UNL     1       1.041   2.857  19.434  0.00  0.00    +0.000 A 
ATOM     25  C   UNL     1       1.633   4.047  18.968  0.00  0.00    +0.000 A 
ATOM     26  C   UNL     1       1.464   4.370  17.509  0.00  0.00    +0.000 C 
ENDBRANCH  19  20
ENDBRANCH   7  19
TORSDOF 4
ENDMDL
MODEL 4
REMARK VINA RESULT:      -8.1      1.292      1.866
REMARK  Name = 
REMARK  6 active torsions:
REMARK  status: ('A' for Active; 'I' for Inactive)
REMARK    1  A    between atoms: C_1  and  C_2
REMARK    2  A    between atoms: C_5  and  C_6
REMARK    3  A    between atoms: C_6  and  N_7
REMARK    4  A    between atoms: N_13  and  C_14
REMARK    5  A    between atoms: C_14  and  C_15
REMARK    6  A    between atoms: C_20  and  C_21
REMARK                            x       y       z     vdW  Elec       q    Type
REMARK                         _______ _______ _______ _____ _____    ______ ____
ROOT
ATOM      1  N   UNL     1       1.065  10.042  20.028  0.00  0.00    +0.000 N 
ATOM      2  N   UNL     1       0.754   9.644  21.286  0.00  0.00    +0.000 NA
ATOM      3  N   UNL     1       1.124   8.367  21.411  0.00  0.00    +0.000 NA
ATOM      4  C   UNL     1       1.638   7.973  20.212  0.00  0.00    +0.000 A 
ATOM      5  C   UNL     1       2.206   6.712  19.798  0.00  0.00    +0.000 A 
ATOM      6  O   UNL     1       2.248   5.718  20.518  0.00  0.00    +0.000 OA
ATOM      7  N   UNL     1       2.671   6.751  18.470  0.00  0.00    +0.000 N 
ATOM      8  C   UNL     1       2.448   7.852  17.645  0.00  0.00    +0.000 A 
ATOM      9  N   UNL     1       1.918   8.987  17.998  0.00  0.00    +0.000 NA
ATOM     10  C   UNL     1       1.568   9.000  19.303  0.00  0.00    +0.000 A 
ENDROOT
BRANCH   1  11
ATOM     11  C   UNL     1       0.743  11.374  19.559  0.00  0.00    +0.000 C 
BRANCH  11  16
ATOM     12  C   UNL     1      -4.942  11.707  18.316  0.00  0.00    +0.000 C 
ATOM     13  C   UNL     1      -3.466  11.679  18.585  0.00  0.00    +0.000 A 
ATOM     14  C   UNL     1      -2.592  10.986  17.741  0.00  0.00    +0.000 A 
ATOM     15  C   UNL     1      -1.226  10.916  18.036  0.00  0.00    +0.000 A 
ATOM     16  C   UNL     1      -0.711  11.529  19.187  0.00  0.00    +0.000 A 
ATOM     17  C   UNL     1      -1.582  12.258  20.007  0.00  0.00    +0.000 A 
ATOM     18  C   UNL     1      -2.948  12.325  19.713  0.00  0.00    +0.000 A 
ENDBRANCH  11  16
ENDBRANCH   1  11
BRANCH   7  19
ATOM     19  C   UNL     1       3.397   5.603  17.941  0.00  0.00    +0.000 C 
BRANCH  19  20
ATOM     20  C   UNL     1       4.907   5.762  18.039  0.00  0.00    +0.000 A 
ATOM     21  C   UNL     1       5.520   5.436  19.267  0.00  0.00    +0.000 A 
ATOM     22  C   UNL     1       6.901   5.517  19.438  0.00  0.00    +0.000 A 
ATOM     23  C   UNL     1       7.703   5.927  18.383  0.00  0.00    +0.000 A 
ATOM     24  C   UNL     1       7.121   6.271  17.165  0.00  0.00    +0.000 A 
ATOM     25  C   UNL     1       5.727   6.207  16.977  0.00  0.00    +0.000 A 
ATOM     26  C   UNL     1       5.203   6.575  15.617  0.00  0.00    +0.000 C 
ENDBRANCH  19  20
ENDBRANCH   7  19
TORSDOF 4
ENDMDL
MODEL 5
REMARK VINA RESULT:      -8.1      1.418      1.998
REMARK  Name = 
REMARK  6 active torsions:
REMARK  status: ('A' for Active; 'I' for Inactive)
REMARK    1  A    between atoms: C_1  and  C_2
REMARK    2  A    between atoms: C_5  and  C_6
REMARK    3  A    between atoms: C_6  and  N_7
REMARK    4  A    between atoms: N_13  and  C_14
REMARK    5  A    between atoms: C_14  and  C_15
REMARK    6  A    between atoms: C_20  and  C_21
REMARK                            x       y       z     vdW  Elec       q    Type
REMARK                         _______ _______ _______ _____ _____    ______ ____
ROOT
ATOM      1  N   UNL     1       0.968   9.844  19.964  0.00  0.00    +0.000 N 
ATOM      2  N   UNL     1       0.696   9.297  21.175  0.00  0.00    +0.000 NA
ATOM      3  N   UNL     1       1.211   8.065  21.188  0.00  0.00    +0.000 NA
ATOM      4  C   UNL     1       1.775   7.847  19.967  0.00  0.00    +0.000 A 
ATOM      5  C   UNL     1       2.488   6.703  19.448  0.00  0.00    +0.000 A 
ATOM      6  O   UNL     1       2.640   5.658  20.074  0.00  0.00    +0.000 OA
ATOM      7  N   UNL     1       2.954   6.919  18.138  0.00  0.00    +0.000 N 
ATOM      8  C   UNL     1       2.610   8.060  17.413  0.00  0.00    +0.000 A 
ATOM      9  N   UNL     1       1.951   9.089  17.861  0.00  0.00    +0.000 NA
ATOM     10  C   UNL     1       1.593   8.940  19.155  0.00  0.00    +0.000 A 
ENDROOT
BRANCH   1  11
ATOM     11  C   UNL     1       0.497  11.169  19.614  0.00  0.00    +0.000 C 
BRANCH  11  16
ATOM     12  C   UNL     1      -4.921  11.422  17.479  0.00  0.00    +0.000 C 
ATOM     13  C   UNL     1      -3.553  11.307  18.083  0.00  0.00    +0.000 A 
ATOM     14  C   UNL     1      -3.194  12.061  19.205  0.00  0.00    +0.000 A 
ATOM     15  C   UNL     1      -1.895  11.991  19.722  0.00  0.00    +0.000 A 
ATOM     16  C   UNL     1      -0.929  11.172  19.119  0.00  0.00    +0.000 A 
ATOM     17  C   UNL     1      -1.304  10.387  18.022  0.00  0.00    +0.000 A 
ATOM     18  C   UNL     1      -2.601  10.460  17.504  0.00  0.00    +0.000 A 
ENDBRANCH  11  16
ENDBRANCH   1  11
BRANCH   7  19
ATOM     19  C   UNL     1       3.811   5.917  17.518  0.00  0.00    +0.000 C 
BRANCH  19  20
ATOM     20  C   UNL     1       5.282   6.102  17.862  0.00  0.00    +0.000 A 
ATOM     21  C   UNL     1       5.961   7.187  17.267  0.00  0.00    +0.000 A 
ATOM     22  C   UNL     1       7.299   7.454  17.551  0.00  0.00    +0.000 A 
ATOM     23  C   UNL     1       7.992   6.642  18.437  0.00  0.00    +0.000 A 
ATOM     24  C   UNL     1       7.349   5.556  19.025  0.00  0.00    +0.000 A 
ATOM     25  C   UNL     1       6.001   5.261  18.741  0.00  0.00    +0.000 A 
ATOM     26  C   UNL     1       5.395   4.081  19.449  0.00  0.00    +0.000 C 
ENDBRANCH  19  20
ENDBRANCH   7  19
TORSDOF 4
ENDMDL
MODEL 6
REMARK VINA RESULT:      -7.8      4.947      7.636
REMARK  Name = 
REMARK  6 active torsions:
REMARK  status: ('A' for Active; 'I' for Inactive)
REMARK    1  A    between atoms: C_1  and  C_2
REMARK    2  A    between atoms: C_5  and  C_6
REMARK    3  A    between atoms: C_6  and  N_7
REMARK    4  A    between atoms: N_13  and  C_14
REMARK    5  A    between atoms: C_14  and  C_15
REMARK    6  A    between atoms: C_20  and  C_21
REMARK                            x       y       z     vdW  Elec       q    Type
REMARK                         _______ _______ _______ _____ _____    ______ ____
ROOT
ATOM      1  N   UNL     1       7.784   6.926  18.062  0.00  0.00    +0.000 N 
ATOM      2  N   UNL     1       7.982   7.165  16.743  0.00  0.00    +0.000 NA
ATOM      3  N   UNL     1       7.217   6.313  16.057  0.00  0.00    +0.000 NA
ATOM      4  C   UNL     1       6.568   5.528  16.963  0.00  0.00    +0.000 A 
ATOM      5  C   UNL     1       5.605   4.468  16.775  0.00  0.00    +0.000 A 
ATOM      6  O   UNL     1       5.259   4.054  15.673  0.00  0.00    +0.000 OA
ATOM      7  N   UNL     1       5.142   3.951  17.999  0.00  0.00    +0.000 N 
ATOM      8  C   UNL     1       5.692   4.343  19.219  0.00  0.00    +0.000 A 
ATOM      9  N   UNL     1       6.575   5.282  19.402  0.00  0.00    +0.000 NA
ATOM     10  C   UNL     1       6.946   5.863  18.241  0.00  0.00    +0.000 A 
ENDROOT
BRANCH   1  11
ATOM     11  C   UNL     1       8.512   7.659  19.077  0.00  0.00    +0.000 C 
BRANCH  11  16
ATOM     12  C   UNL     1       9.201  13.267  17.640  0.00  0.00    +0.000 C 
ATOM     13  C   UNL     1       8.977  11.846  18.068  0.00  0.00    +0.000 A 
ATOM     14  C   UNL     1       9.699  11.289  19.127  0.00  0.00    +0.000 A 
ATOM     15  C   UNL     1       9.525   9.945  19.477  0.00  0.00    +0.000 A 
ATOM     16  C   UNL     1       8.631   9.132  18.766  0.00  0.00    +0.000 A 
ATOM     17  C   UNL     1       7.878   9.704  17.733  0.00  0.00    +0.000 A 
ATOM     18  C   UNL     1       8.055  11.047  17.383  0.00  0.00    +0.000 A 
ENDBRANCH  11  16
ENDBRANCH   1  11
BRANCH   7  19
ATOM     19  C   UNL     1       4.065   2.969  17.990  0.00  0.00    +0.000 C 
BRANCH  19  20
ATOM     20  C   UNL     1       3.068   3.174  19.121  0.00  0.00    +0.000 A 
ATOM     21  C   UNL     1       3.301   2.486  20.330  0.00  0.00    +0.000 A 
ATOM     22  C   UNL     1       2.461   2.640  21.432  0.00  0.00    +0.000 A 
ATOM     23  C   UNL     1       1.365   3.487  21.350  0.00  0.00    +0.000 A 
ATOM     24  C   UNL     1       1.104   4.166  20.162  0.00  0.00    +0.000 A 
ATOM     25  C   UNL     1       1.934   4.013  19.035  0.00  0.00    +0.000 A 
ATOM     26  C   UNL     1       1.578   4.811  17.811  0.00  0.00    +0.000 C 
ENDBRANCH  19  20
ENDBRANCH   7  19
TORSDOF 4
ENDMDL
MODEL 7
REMARK VINA RESULT:      -7.8      0.554      1.691
REMARK  Name = 
REMARK  6 active torsions:
REMARK  status: ('A' for Active; 'I' for Inactive)
REMARK    1  A    between atoms: C_1  and  C_2
REMARK    2  A    between atoms: C_5  and  C_6
REMARK    3  A    between atoms: C_6  and  N_7
REMARK    4  A    between atoms: N_13  and  C_14
REMARK    5  A    between atoms: C_14  and  C_15
REMARK    6  A    between atoms: C_20  and  C_21
REMARK                            x       y       z     vdW  Elec       q    Type
REMARK                         _______ _______ _______ _____ _____    ______ ____
ROOT
ATOM      1  N   UNL     1       1.120   9.206  19.620  0.00  0.00    +0.000 N 
ATOM      2  N   UNL     1       0.424   8.984  20.762  0.00  0.00    +0.000 NA
ATOM      3  N   UNL     1       0.805   7.800  21.245  0.00  0.00    +0.000 NA
ATOM      4  C   UNL     1       1.720   7.280  20.377  0.00  0.00    +0.000 A 
ATOM      5  C   UNL     1       2.469   6.047  20.423  0.00  0.00    +0.000 A 
ATOM      6  O   UNL     1       2.324   5.197  21.296  0.00  0.00    +0.000 OA
ATOM      7  N   UNL     1       3.355   5.925  19.335  0.00  0.00    +0.000 N 
ATOM      8  C   UNL     1       3.360   6.842  18.284  0.00  0.00    +0.000 A 
ATOM      9  N   UNL     1       2.674   7.946  18.220  0.00  0.00    +0.000 NA
ATOM     10  C   UNL     1       1.902   8.129  19.313  0.00  0.00    +0.000 A 
ENDROOT
BRANCH   1  11
ATOM     11  C   UNL     1       0.898  10.395  18.822  0.00  0.00    +0.000 C 
BRANCH  11  16
ATOM     12  C   UNL     1      -4.607  11.367  17.168  0.00  0.00    +0.000 C 
ATOM     13  C   UNL     1      -3.217  11.077  17.655  0.00  0.00    +0.000 A 
ATOM     14  C   UNL     1      -2.630  11.847  18.663  0.00  0.00    +0.000 A 
ATOM     15  C   UNL     1      -1.312  11.606  19.066  0.00  0.00    +0.000 A 
ATOM     16  C   UNL     1      -0.553  10.594  18.459  0.00  0.00    +0.000 A 
ATOM     17  C   UNL     1      -1.159   9.797  17.480  0.00  0.00    +0.000 A 
ATOM     18  C   UNL     1      -2.476  10.041  17.076  0.00  0.00    +0.000 A 
ENDBRANCH  11  16
ENDBRANCH   1  11
BRANCH   7  19
ATOM     19  C   UNL     1       4.285   4.804  19.303  0.00  0.00    +0.000 C 
BRANCH  19  20
ATOM     20  C   UNL     1       5.023   4.686  17.978  0.00  0.00    +0.000 A 
ATOM     21  C   UNL     1       6.309   5.258  17.893  0.00  0.00    +0.000 A 
ATOM     22  C   UNL     1       7.073   5.169  16.731  0.00  0.00    +0.000 A 
ATOM     23  C   UNL     1       6.568   4.503  15.623  0.00  0.00    +0.000 A 
ATOM     24  C   UNL     1       5.294   3.943  15.675  0.00  0.00    +0.000 A 
ATOM     25  C   UNL     1       4.502   4.035  16.836  0.00  0.00    +0.000 A 
ATOM     26  C   UNL     1       3.152   3.374  16.797  0.00  0.00    +0.000 C 
ENDBRANCH  19  20
ENDBRANCH   7  19
TORSDOF 4
ENDMDL
MODEL 8
REMARK VINA RESULT:      -7.8      1.895      3.478
REMARK  Name = 
REMARK  6 active torsions:
REMARK  status: ('A' for Active; 'I' for Inactive)
REMARK    1  A    between atoms: C_1  and  C_2
REMARK    2  A    between atoms: C_5  and  C_6
REMARK    3  A    between atoms: C_6  and  N_7
REMARK    4  A    between atoms: N_13  and  C_14
REMARK    5  A    between atoms: C_14  and  C_15
REMARK    6  A    between atoms: C_20  and  C_21
REMARK                            x       y       z     vdW  Elec       q    Type
REMARK                         _______ _______ _______ _____ _____    ______ ____
ROOT
ATOM      1  N   UNL     1       0.729   9.930  19.093  0.00  0.00    +0.000 N 
ATOM      2  N   UNL     1       1.115  10.358  17.866  0.00  0.00    +0.000 NA
ATOM      3  N   UNL     1       2.021   9.495  17.402  0.00  0.00    +0.000 NA
ATOM      4  C   UNL     1       2.212   8.547  18.364  0.00  0.00    +0.000 A 
ATOM      5  C   UNL     1       3.055   7.375  18.379  0.00  0.00    +0.000 A 
ATOM      6  O   UNL     1       3.827   7.083  17.470  0.00  0.00    +0.000 OA
ATOM      7  N   UNL     1       2.907   6.633  19.566  0.00  0.00    +0.000 N 
ATOM      8  C   UNL     1       2.141   7.098  20.634  0.00  0.00    +0.000 A 
ATOM      9  N   UNL     1       1.394   8.164  20.642  0.00  0.00    +0.000 NA
ATOM     10  C   UNL     1       1.441   8.826  19.466  0.00  0.00    +0.000 A 
ENDROOT
BRANCH   1  11
ATOM     11  C   UNL     1      -0.218  10.682  19.889  0.00  0.00    +0.000 C 
BRANCH  11  16
ATOM     12  C   UNL     1      -5.197  11.572  16.990  0.00  0.00    +0.000 C 
ATOM     13  C   UNL     1      -3.957  11.308  17.792  0.00  0.00    +0.000 A 
ATOM     14  C   UNL     1      -3.587  12.148  18.847  0.00  0.00    +0.000 A 
ATOM     15  C   UNL     1      -2.397  11.927  19.549  0.00  0.00    +0.000 A 
ATOM     16  C   UNL     1      -1.549  10.866  19.200  0.00  0.00    +0.000 A 
ATOM     17  C   UNL     1      -1.943  10.001  18.170  0.00  0.00    +0.000 A 
ATOM     18  C   UNL     1      -3.132  10.225  17.468  0.00  0.00    +0.000 A 
ENDBRANCH  11  16
ENDBRANCH   1  11
BRANCH   7  19
ATOM     19  C   UNL     1       3.583   5.347  19.684  0.00  0.00    +0.000 C 
BRANCH  19  20
ATOM     20  C   UNL     1       2.699   4.175  19.284  0.00  0.00    +0.000 A 
ATOM     21  C   UNL     1       1.580   3.894  20.095  0.00  0.00    +0.000 A 
ATOM     22  C   UNL     1       0.695   2.862  19.787  0.00  0.00    +0.000 A 
ATOM     23  C   UNL     1       0.909   2.085  18.657  0.00  0.00    +0.000 A 
ATOM     24  C   UNL     1       2.015   2.332  17.848  0.00  0.00    +0.000 A 
ATOM     25  C   UNL     1       2.928   3.361  18.151  0.00  0.00    +0.000 A 
ATOM     26  C   UNL     1       4.074   3.561  17.199  0.00  0.00    +0.000 C 
ENDBRANCH  19  20
ENDBRANCH   7  19
TORSDOF 4
ENDMDL
MODEL 9
REMARK VINA RESULT:      -7.6      2.186      3.596
REMARK  Name = 
REMARK  6 active torsions:
REMARK  status: ('A' for Active; 'I' for Inactive)
REMARK    1  A    between atoms: C_1  and  C_2
REMARK    2  A    between atoms: C_5  and  C_6
REMARK    3  A    between atoms: C_6  and  N_7
REMARK    4  A    between atoms: N_13  and  C_14
REMARK    5  A    between atoms: C_14  and  C_15
REMARK    6  A    between atoms: C_20  and  C_21
REMARK                            x       y       z     vdW  Elec       q    Type
REMARK                         _______ _______ _______ _____ _____    ______ ____
ROOT
ATOM      1  N   UNL     1       0.762  10.003  19.085  0.00  0.00    +0.000 N 
ATOM      2  N   UNL     1       1.170  10.482  17.884  0.00  0.00    +0.000 NA
ATOM      3  N   UNL     1       2.085   9.639  17.401  0.00  0.00    +0.000 NA
ATOM      4  C   UNL     1       2.258   8.652  18.325  0.00  0.00    +0.000 A 
ATOM      5  C   UNL     1       3.100   7.480  18.307  0.00  0.00    +0.000 A 
ATOM      6  O   UNL     1       3.889   7.225  17.401  0.00  0.00    +0.000 OA
ATOM      7  N   UNL     1       2.932   6.688  19.459  0.00  0.00    +0.000 N 
ATOM      8  C   UNL     1       2.146   7.109  20.531  0.00  0.00    +0.000 A 
ATOM      9  N   UNL     1       1.399   8.174  20.570  0.00  0.00    +0.000 NA
ATOM     10  C   UNL     1       1.467   8.885  19.424  0.00  0.00    +0.000 A 
ENDROOT
BRANCH   1  11
ATOM     11  C   UNL     1      -0.201  10.722  19.894  0.00  0.00    +0.000 C 
BRANCH  11  16
ATOM     12  C   UNL     1      -5.450  11.333  17.433  0.00  0.00    +0.000 C 
ATOM     13  C   UNL     1      -4.067  11.210  18.004  0.00  0.00    +0.000 A 
ATOM     14  C   UNL     1      -3.220  10.166  17.623  0.00  0.00    +0.000 A 
ATOM     15  C   UNL     1      -1.956  10.027  18.208  0.00  0.00    +0.000 A 
ATOM     16  C   UNL     1      -1.522  10.926  19.193  0.00  0.00    +0.000 A 
ATOM     17  C   UNL     1      -2.356  11.995  19.541  0.00  0.00    +0.000 A 
ATOM     18  C   UNL     1      -3.620  12.132  18.957  0.00  0.00    +0.000 A 
ENDBRANCH  11  16
ENDBRANCH   1  11
BRANCH   7  19
ATOM     19  C   UNL     1       3.606   5.398  19.535  0.00  0.00    +0.000 C 
BRANCH  19  20
ATOM     20  C   UNL     1       2.637   4.225  19.549  0.00  0.00    +0.000 A 
ATOM     21  C   UNL     1       2.077   3.855  20.790  0.00  0.00    +0.000 A 
ATOM     22  C   UNL     1       1.155   2.815  20.894  0.00  0.00    +0.000 A 
ATOM     23  C   UNL     1       0.769   2.120  19.756  0.00  0.00    +0.000 A 
ATOM     24  C   UNL     1       1.319   2.455  18.522  0.00  0.00    +0.000 A 
ATOM     25  C   UNL     1       2.262   3.494  18.399  0.00  0.00    +0.000 A 
ATOM     26  C   UNL     1       2.775   3.793  17.018  0.00  0.00    +0.000 C 
ENDBRANCH  19  20
ENDBRANCH   7  19
TORSDOF 4
ENDMDL
