MODEL 1
REMARK VINA RESULT:      -7.5      0.000      0.000
REMARK  Name = 
REMARK  9 active torsions:
REMARK  status: ('A' for Active; 'I' for Inactive)
REMARK    1  A    between atoms: C_1  and  C_2
REMARK    2  A    between atoms: C_2  and  N_3
REMARK    3  A    between atoms: C_2  and  C_21
REMARK    4  A    between atoms: C_4  and  C_6
REMARK    5  A    between atoms: C_10  and  C_11
REMARK    6  A    between atoms: C_14  and  C_15
REMARK    7  A    between atoms: C_24  and  N_25
REMARK    8  A    between atoms: N_25  and  C_26
REMARK    9  A    between atoms: N_25  and  C_27
REMARK                            x       y       z     vdW  Elec       q    Type
REMARK                         _______ _______ _______ _____ _____    ______ ____
ROOT
ATOM      1  C   UNL     1      -0.129   9.206  21.189  0.00  0.00    +0.000 C 
ATOM      2  C   UNL     1      -0.827   9.708  19.933  0.00  0.00    +0.000 C 
ATOM      3  N   UNL     1       0.103  10.642  19.277  0.00  0.00    +0.000 NA
ATOM      4  C   UNL     1       1.462  10.327  19.777  0.00  0.00    +0.000 C 
ATOM      5  C   UNL     1       1.341   9.135  20.750  0.00  0.00    +0.000 C 
ATOM      6  H   UNL     1      -0.117  11.592  19.589  0.00  0.00    +0.000 HD
ENDROOT
BRANCH   5   7
ATOM      7  C   UNL     1       1.713   7.788  20.135  0.00  0.00    +0.000 A 
ATOM      8  C   UNL     1       2.279   7.746  18.850  0.00  0.00    +0.000 A 
ATOM      9  C   UNL     1       2.618   6.526  18.251  0.00  0.00    +0.000 A 
ATOM     10  C   UNL     1       2.408   5.315  18.923  0.00  0.00    +0.000 A 
ATOM     11  C   UNL     1       1.842   5.349  20.202  0.00  0.00    +0.000 A 
ATOM     12  C   UNL     1       1.508   6.571  20.801  0.00  0.00    +0.000 A 
BRANCH  10  13
ATOM     13  C   UNL     1       2.784   3.989  18.311  0.00  0.00    +0.000 C 
ATOM     14  F   UNL     1       4.103   3.892  17.983  0.00  0.00    +0.000 F 
ATOM     15  F   UNL     1       2.532   2.943  19.146  0.00  0.00    +0.000 F 
ATOM     16  F   UNL     1       2.095   3.724  17.165  0.00  0.00    +0.000 F 
ENDBRANCH  10  13
ENDBRANCH   5   7
BRANCH   1  18
ATOM     17  N   UNL     1      -1.019  11.353  21.976  0.00  0.00    +0.000 N 
ATOM     18  C   UNL     1      -0.349  10.200  22.329  0.00  0.00    +0.000 C 
ATOM     19  O   UNL     1       0.077  10.009  23.466  0.00  0.00    +0.000 OA
ATOM     20  H   UNL     1      -1.470  11.402  21.070  0.00  0.00    +0.000 HD
BRANCH  17  22
ATOM     21  C   UNL     1      -0.622  13.664  22.719  0.00  0.00    +0.000 C 
ATOM     22  C   UNL     1      -1.392  12.362  22.962  0.00  0.00    +0.000 C 
BRANCH  22  23
ATOM     23  C   UNL     1      -2.900  12.538  22.971  0.00  0.00    +0.000 A 
ATOM     24  C   UNL     1      -3.589  12.651  21.761  0.00  0.00    +0.000 A 
ATOM     25  C   UNL     1      -4.979  12.864  21.734  0.00  0.00    +0.000 A 
ATOM     26  C   UNL     1      -5.746  12.978  22.903  0.00  0.00    +0.000 A 
ATOM     27  C   UNL     1      -5.034  12.848  24.107  0.00  0.00    +0.000 A 
ATOM     28  C   UNL     1      -3.645  12.645  24.148  0.00  0.00    +0.000 A 
BRANCH  26  29
ATOM     29  N   UNL     1      -7.103  13.257  22.866  0.00  0.00    +0.000 N 
ATOM     30  C   UNL     1      -7.915  12.965  21.687  0.00  0.00    +0.000 C 
ATOM     31  C   UNL     1      -7.864  13.589  24.066  0.00  0.00    +0.000 C 
ENDBRANCH  26  29
ENDBRANCH  22  23
ENDBRANCH  17  22
ENDBRANCH   1  18
TORSDOF 6
ENDMDL
MODEL 2
REMARK VINA RESULT:      -7.5      0.441      1.661
REMARK  Name = 
REMARK  9 active torsions:
REMARK  status: ('A' for Active; 'I' for Inactive)
REMARK    1  A    between atoms: C_1  and  C_2
REMARK    2  A    between atoms: C_2  and  N_3
REMARK    3  A    between atoms: C_2  and  C_21
REMARK    4  A    between atoms: C_4  and  C_6
REMARK    5  A    between atoms: C_10  and  C_11
REMARK    6  A    between atoms: C_14  and  C_15
REMARK    7  A    between atoms: C_24  and  N_25
REMARK    8  A    between atoms: N_25  and  C_26
REMARK    9  A    between atoms: N_25  and  C_27
REMARK                            x       y       z     vdW  Elec       q    Type
REMARK                         _______ _______ _______ _____ _____    ______ ____
ROOT
ATOM      1  C   UNL     1      -0.125   9.388  21.068  0.00  0.00    +0.000 C 
ATOM      2  C   UNL     1      -0.962   9.847  19.883  0.00  0.00    +0.000 C 
ATOM      3  N   UNL     1      -0.172  10.871  19.179  0.00  0.00    +0.000 NA
ATOM      4  C   UNL     1       1.244  10.670  19.564  0.00  0.00    +0.000 C 
ATOM      5  C   UNL     1       1.306   9.456  20.515  0.00  0.00    +0.000 C 
ATOM      6  H   UNL     1      -0.449  11.792  19.528  0.00  0.00    +0.000 HD
ENDROOT
BRANCH   5   7
ATOM      7  C   UNL     1       1.745   8.158  19.842  0.00  0.00    +0.000 A 
ATOM      8  C   UNL     1       1.619   6.943  20.534  0.00  0.00    +0.000 A 
ATOM      9  C   UNL     1       2.027   5.736  19.951  0.00  0.00    +0.000 A 
ATOM     10  C   UNL     1       2.564   5.711  18.657  0.00  0.00    +0.000 A 
ATOM     11  C   UNL     1       2.695   6.919  17.963  0.00  0.00    +0.000 A 
ATOM     12  C   UNL     1       2.282   8.123  18.546  0.00  0.00    +0.000 A 
BRANCH  10  13
ATOM     13  C   UNL     1       2.990   4.423  17.997  0.00  0.00    +0.000 C 
ATOM     14  F   UNL     1       1.954   3.706  17.476  0.00  0.00    +0.000 F 
ATOM     15  F   UNL     1       3.853   4.632  16.964  0.00  0.00    +0.000 F 
ATOM     16  F   UNL     1       3.633   3.580  18.854  0.00  0.00    +0.000 F 
ENDBRANCH  10  13
ENDBRANCH   5   7
BRANCH   1  18
ATOM     17  N   UNL     1      -0.983  11.520  21.930  0.00  0.00    +0.000 N 
ATOM     18  C   UNL     1      -0.340  10.340  22.245  0.00  0.00    +0.000 C 
ATOM     19  O   UNL     1       0.066  10.095  23.379  0.00  0.00    +0.000 OA
ATOM     20  H   UNL     1      -1.420  11.615  21.022  0.00  0.00    +0.000 HD
BRANCH  17  22
ATOM     21  C   UNL     1      -0.543  13.788  22.778  0.00  0.00    +0.000 C 
ATOM     22  C   UNL     1      -1.349  12.496  22.952  0.00  0.00    +0.000 C 
BRANCH  22  23
ATOM     23  C   UNL     1      -2.851  12.709  22.944  0.00  0.00    +0.000 A 
ATOM     24  C   UNL     1      -3.560  12.675  24.149  0.00  0.00    +0.000 A 
ATOM     25  C   UNL     1      -4.958  12.820  24.173  0.00  0.00    +0.000 A 
ATOM     26  C   UNL     1      -5.717  13.000  23.006  0.00  0.00    +0.000 A 
ATOM     27  C   UNL     1      -4.983  13.045  21.810  0.00  0.00    +0.000 A 
ATOM     28  C   UNL     1      -3.587  12.891  21.771  0.00  0.00    +0.000 A 
BRANCH  26  29
ATOM     29  N   UNL     1      -7.101  13.072  23.035  0.00  0.00    +0.000 N 
ATOM     30  C   UNL     1      -7.818  13.620  24.184  0.00  0.00    +0.000 C 
ATOM     31  C   UNL     1      -7.917  12.879  21.841  0.00  0.00    +0.000 C 
ENDBRANCH  26  29
ENDBRANCH  22  23
ENDBRANCH  17  22
ENDBRANCH   1  18
TORSDOF 6
ENDMDL
MODEL 3
REMARK VINA RESULT:      -7.5      4.085      5.505
REMARK  Name = 
REMARK  9 active torsions:
REMARK  status: ('A' for Active; 'I' for Inactive)
REMARK    1  A    between atoms: C_1  and  C_2
REMARK    2  A    between atoms: C_2  and  N_3
REMARK    3  A    between atoms: C_2  and  C_21
REMARK    4  A    between atoms: C_4  and  C_6
REMARK    5  A    between atoms: C_10  and  C_11
REMARK    6  A    between atoms: C_14  and  C_15
REMARK    7  A    between atoms: C_24  and  N_25
REMARK    8  A    between atoms: N_25  and  C_26
REMARK    9  A    between atoms: N_25  and  C_27
REMARK                            x       y       z     vdW  Elec       q    Type
REMARK                         _______ _______ _______ _____ _____    ______ ____
ROOT
ATOM      1  C   UNL     1       2.580   6.700  19.903  0.00  0.00    +0.000 C 
ATOM      2  C   UNL     1       2.631   5.418  20.723  0.00  0.00    +0.000 C 
ATOM      3  N   UNL     1       1.526   4.569  20.249  0.00  0.00    +0.000 NA
ATOM      4  C   UNL     1       1.166   5.039  18.891  0.00  0.00    +0.000 C 
ATOM      5  C   UNL     1       2.116   6.199  18.527  0.00  0.00    +0.000 C 
ATOM      6  H   UNL     1       0.712   4.732  20.847  0.00  0.00    +0.000 HD
ENDROOT
BRANCH   5   7
ATOM      7  C   UNL     1       3.276   5.794  17.620  0.00  0.00    +0.000 A 
ATOM      8  C   UNL     1       3.490   4.436  17.334  0.00  0.00    +0.000 A 
ATOM      9  C   UNL     1       4.554   4.030  16.519  0.00  0.00    +0.000 A 
ATOM     10  C   UNL     1       5.429   4.971  15.961  0.00  0.00    +0.000 A 
ATOM     11  C   UNL     1       5.224   6.326  16.245  0.00  0.00    +0.000 A 
ATOM     12  C   UNL     1       4.156   6.730  17.056  0.00  0.00    +0.000 A 
BRANCH  10  13
ATOM     13  C   UNL     1       6.569   4.563  15.062  0.00  0.00    +0.000 C 
ATOM     14  F   UNL     1       6.863   5.482  14.099  0.00  0.00    +0.000 F 
ATOM     15  F   UNL     1       7.727   4.366  15.751  0.00  0.00    +0.000 F 
ATOM     16  F   UNL     1       6.327   3.396  14.401  0.00  0.00    +0.000 F 
ENDBRANCH  10  13
ENDBRANCH   5   7
BRANCH   1  18
ATOM     17  N   UNL     1       1.474   8.891  19.900  0.00  0.00    +0.000 N 
ATOM     18  C   UNL     1       1.583   7.671  20.535  0.00  0.00    +0.000 C 
ATOM     19  O   UNL     1       0.956   7.405  21.558  0.00  0.00    +0.000 OA
ATOM     20  H   UNL     1       1.901   9.011  18.989  0.00  0.00    +0.000 HD
BRANCH  17  22
ATOM     21  C   UNL     1       1.213  11.140  20.863  0.00  0.00    +0.000 C 
ATOM     22  C   UNL     1       0.502   9.896  20.319  0.00  0.00    +0.000 C 
BRANCH  22  23
ATOM     23  C   UNL     1      -0.455  10.191  19.179  0.00  0.00    +0.000 A 
ATOM     24  C   UNL     1      -1.435  11.176  19.337  0.00  0.00    +0.000 A 
ATOM     25  C   UNL     1      -2.369  11.441  18.321  0.00  0.00    +0.000 A 
ATOM     26  C   UNL     1      -2.377  10.741  17.104  0.00  0.00    +0.000 A 
ATOM     27  C   UNL     1      -1.376   9.766  16.962  0.00  0.00    +0.000 A 
ATOM     28  C   UNL     1      -0.443   9.485  17.974  0.00  0.00    +0.000 A 
BRANCH  26  29
ATOM     29  N   UNL     1      -3.345  10.962  16.137  0.00  0.00    +0.000 N 
ATOM     30  C   UNL     1      -3.208  10.437  14.780  0.00  0.00    +0.000 C 
ATOM     31  C   UNL     1      -4.671  11.476  16.463  0.00  0.00    +0.000 C 
ENDBRANCH  26  29
ENDBRANCH  22  23
ENDBRANCH  17  22
ENDBRANCH   1  18
TORSDOF 6
ENDMDL
MODEL 4
REMARK VINA RESULT:      -7.4      0.321      1.295
REMARK  Name = 
REMARK  9 active torsions:
REMARK  status: ('A' for Active; 'I' for Inactive)
REMARK    1  A    between atoms: C_1  and  C_2
REMARK    2  A    between atoms: C_2  and  N_3
REMARK    3  A    between atoms: C_2  and  C_21
REMARK    4  A    between atoms: C_4  and  C_6
REMARK    5  A    between atoms: C_10  and  C_11
REMARK    6  A    between atoms: C_14  and  C_15
REMARK    7  A    between atoms: C_24  and  N_25
REMARK    8  A    between atoms: N_25  and  C_26
REMARK    9  A    between atoms: N_25  and  C_27
REMARK                            x       y       z     vdW  Elec       q    Type
REMARK                         _______ _______ _______ _____ _____    ______ ____
ROOT
ATOM      1  C   UNL     1      -0.026   9.285  20.971  0.00  0.00    +0.000 C 
ATOM      2  C   UNL     1      -0.826   9.731  19.755  0.00  0.00    +0.000 C 
ATOM      3  N   UNL     1       0.032  10.662  19.003  0.00  0.00    +0.000 NA
ATOM      4  C   UNL     1       1.430  10.391  19.411  0.00  0.00    +0.000 C 
ATOM      5  C   UNL     1       1.408   9.230  20.427  0.00  0.00    +0.000 C 
ATOM      6  H   UNL     1      -0.187  11.617  19.300  0.00  0.00    +0.000 HD
ENDROOT
BRANCH   5   7
ATOM      7  C   UNL     1       1.766   7.871  19.829  0.00  0.00    +0.000 A 
ATOM      8  C   UNL     1       1.603   6.711  20.603  0.00  0.00    +0.000 A 
ATOM      9  C   UNL     1       1.937   5.450  20.090  0.00  0.00    +0.000 A 
ATOM     10  C   UNL     1       2.433   5.315  18.787  0.00  0.00    +0.000 A 
ATOM     11  C   UNL     1       2.600   6.468  18.012  0.00  0.00    +0.000 A 
ATOM     12  C   UNL     1       2.262   7.726  18.525  0.00  0.00    +0.000 A 
BRANCH  10  13
ATOM     13  C   UNL     1       2.778   3.968  18.202  0.00  0.00    +0.000 C 
ATOM     14  F   UNL     1       4.118   3.759  18.064  0.00  0.00    +0.000 F 
ATOM     15  F   UNL     1       2.319   2.939  18.967  0.00  0.00    +0.000 F 
ATOM     16  F   UNL     1       2.242   3.779  16.964  0.00  0.00    +0.000 F 
ENDBRANCH  10  13
ENDBRANCH   5   7
BRANCH   1  18
ATOM     17  N   UNL     1      -0.974  11.400  21.779  0.00  0.00    +0.000 N 
ATOM     18  C   UNL     1      -0.185  10.312  22.092  0.00  0.00    +0.000 C 
ATOM     19  O   UNL     1       0.382  10.202  23.178  0.00  0.00    +0.000 OA
ATOM     20  H   UNL     1      -1.528  11.378  20.931  0.00  0.00    +0.000 HD
BRANCH  17  22
ATOM     21  C   UNL     1      -0.533  13.718  22.478  0.00  0.00    +0.000 C 
ATOM     22  C   UNL     1      -1.303  12.424  22.765  0.00  0.00    +0.000 C 
BRANCH  22  23
ATOM     23  C   UNL     1      -2.808  12.612  22.828  0.00  0.00    +0.000 A 
ATOM     24  C   UNL     1      -3.447  12.659  24.070  0.00  0.00    +0.000 A 
ATOM     25  C   UNL     1      -4.844  12.782  24.164  0.00  0.00    +0.000 A 
ATOM     26  C   UNL     1      -5.671  12.862  23.032  0.00  0.00    +0.000 A 
ATOM     27  C   UNL     1      -5.006  12.828  21.795  0.00  0.00    +0.000 A 
ATOM     28  C   UNL     1      -3.611  12.695  21.688  0.00  0.00    +0.000 A 
BRANCH  26  29
ATOM     29  N   UNL     1      -7.051  12.914  23.135  0.00  0.00    +0.000 N 
ATOM     30  C   UNL     1      -7.916  12.103  22.280  0.00  0.00    +0.000 C 
ATOM     31  C   UNL     1      -7.727  13.548  24.262  0.00  0.00    +0.000 C 
ENDBRANCH  26  29
ENDBRANCH  22  23
ENDBRANCH  17  22
ENDBRANCH   1  18
TORSDOF 6
ENDMDL
MODEL 5
REMARK VINA RESULT:      -7.4      4.137      5.512
REMARK  Name = 
REMARK  9 active torsions:
REMARK  status: ('A' for Active; 'I' for Inactive)
REMARK    1  A    between atoms: C_1  and  C_2
REMARK    2  A    between atoms: C_2  and  N_3
REMARK    3  A    between atoms: C_2  and  C_21
REMARK    4  A    between atoms: C_4  and  C_6
REMARK    5  A    between atoms: C_10  and  C_11
REMARK    6  A    between atoms: C_14  and  C_15
REMARK    7  A    between atoms: C_24  and  N_25
REMARK    8  A    between atoms: N_25  and  C_26
REMARK    9  A    between atoms: N_25  and  C_27
REMARK                            x       y       z     vdW  Elec       q    Type
REMARK                         _______ _______ _______ _____ _____    ______ ____
ROOT
ATOM      1  C   UNL     1       2.593   6.750  19.907  0.00  0.00    +0.000 C 
ATOM      2  C   UNL     1       2.686   5.517  20.796  0.00  0.00    +0.000 C 
ATOM      3  N   UNL     1       1.588   4.622  20.392  0.00  0.00    +0.000 NA
ATOM      4  C   UNL     1       1.194   5.009  19.017  0.00  0.00    +0.000 C 
ATOM      5  C   UNL     1       2.114   6.164  18.571  0.00  0.00    +0.000 C 
ATOM      6  H   UNL     1       0.783   4.803  20.997  0.00  0.00    +0.000 HD
ENDROOT
BRANCH   5   7
ATOM      7  C   UNL     1       3.264   5.731  17.665  0.00  0.00    +0.000 A 
ATOM      8  C   UNL     1       4.139   6.700  17.147  0.00  0.00    +0.000 A 
ATOM      9  C   UNL     1       5.195   6.337  16.300  0.00  0.00    +0.000 A 
ATOM     10  C   UNL     1       5.410   4.997  15.956  0.00  0.00    +0.000 A 
ATOM     11  C   UNL     1       4.539   4.027  16.466  0.00  0.00    +0.000 A 
ATOM     12  C   UNL     1       3.487   4.391  17.316  0.00  0.00    +0.000 A 
BRANCH  10  13
ATOM     13  C   UNL     1       6.552   4.577  15.064  0.00  0.00    +0.000 C 
ATOM     14  F   UNL     1       6.324   3.411  14.395  0.00  0.00    +0.000 F 
ATOM     15  F   UNL     1       6.830   5.505  14.107  0.00  0.00    +0.000 F 
ATOM     16  F   UNL     1       7.714   4.391  15.751  0.00  0.00    +0.000 F 
ENDBRANCH  10  13
ENDBRANCH   5   7
BRANCH   1  18
ATOM     17  N   UNL     1       1.548   8.970  19.889  0.00  0.00    +0.000 N 
ATOM     18  C   UNL     1       1.590   7.736  20.504  0.00  0.00    +0.000 C 
ATOM     19  O   UNL     1       0.901   7.468  21.487  0.00  0.00    +0.000 OA
ATOM     20  H   UNL     1       2.027   9.096  19.005  0.00  0.00    +0.000 HD
BRANCH  17  22
ATOM     21  C   UNL     1       1.300  11.258  20.761  0.00  0.00    +0.000 C 
ATOM     22  C   UNL     1       0.582   9.994  20.276  0.00  0.00    +0.000 C 
BRANCH  22  23
ATOM     23  C   UNL     1      -0.387  10.243  19.134  0.00  0.00    +0.000 A 
ATOM     24  C   UNL     1      -1.318  11.281  19.233  0.00  0.00    +0.000 A 
ATOM     25  C   UNL     1      -2.262  11.509  18.216  0.00  0.00    +0.000 A 
ATOM     26  C   UNL     1      -2.328  10.718  17.059  0.00  0.00    +0.000 A 
ATOM     27  C   UNL     1      -1.374   9.689  16.975  0.00  0.00    +0.000 A 
ATOM     28  C   UNL     1      -0.432   9.445  17.989  0.00  0.00    +0.000 A 
BRANCH  26  29
ATOM     29  N   UNL     1      -3.306  10.907  16.096  0.00  0.00    +0.000 N 
ATOM     30  C   UNL     1      -3.173  10.358  14.748  0.00  0.00    +0.000 C 
ATOM     31  C   UNL     1      -4.636  11.409  16.422  0.00  0.00    +0.000 C 
ENDBRANCH  26  29
ENDBRANCH  22  23
ENDBRANCH  17  22
ENDBRANCH   1  18
TORSDOF 6
ENDMDL
MODEL 6
REMARK VINA RESULT:      -7.2      0.464      1.229
REMARK  Name = 
REMARK  9 active torsions:
REMARK  status: ('A' for Active; 'I' for Inactive)
REMARK    1  A    between atoms: C_1  and  C_2
REMARK    2  A    between atoms: C_2  and  N_3
REMARK    3  A    between atoms: C_2  and  C_21
REMARK    4  A    between atoms: C_4  and  C_6
REMARK    5  A    between atoms: C_10  and  C_11
REMARK    6  A    between atoms: C_14  and  C_15
REMARK    7  A    between atoms: C_24  and  N_25
REMARK    8  A    between atoms: N_25  and  C_26
REMARK    9  A    between atoms: N_25  and  C_27
REMARK                            x       y       z     vdW  Elec       q    Type
REMARK                         _______ _______ _______ _____ _____    ______ ____
ROOT
ATOM      1  C   UNL     1      -0.186   9.458  21.153  0.00  0.00    +0.000 C 
ATOM      2  C   UNL     1      -0.899   9.956  19.903  0.00  0.00    +0.000 C 
ATOM      3  N   UNL     1       0.014  10.907  19.247  0.00  0.00    +0.000 NA
ATOM      4  C   UNL     1       1.379  10.610  19.738  0.00  0.00    +0.000 C 
ATOM      5  C   UNL     1       1.282   9.412  20.705  0.00  0.00    +0.000 C 
ATOM      6  H   UNL     1      -0.220  11.852  19.564  0.00  0.00    +0.000 HD
ENDROOT
BRANCH   5   7
ATOM      7  C   UNL     1       1.672   8.074  20.082  0.00  0.00    +0.000 A 
ATOM      8  C   UNL     1       2.151   8.038  18.762  0.00  0.00    +0.000 A 
ATOM      9  C   UNL     1       2.502   6.825  18.156  0.00  0.00    +0.000 A 
ATOM     10  C   UNL     1       2.392   5.616  18.855  0.00  0.00    +0.000 A 
ATOM     11  C   UNL     1       1.913   5.644  20.170  0.00  0.00    +0.000 A 
ATOM     12  C   UNL     1       1.567   6.859  20.775  0.00  0.00    +0.000 A 
BRANCH  10  13
ATOM     13  C   UNL     1       2.785   4.299  18.234  0.00  0.00    +0.000 C 
ATOM     14  F   UNL     1       1.724   3.494  17.941  0.00  0.00    +0.000 F 
ATOM     15  F   UNL     1       3.462   4.460  17.063  0.00  0.00    +0.000 F 
ATOM     16  F   UNL     1       3.602   3.561  19.037  0.00  0.00    +0.000 F 
ENDBRANCH  10  13
ENDBRANCH   5   7
BRANCH   1  18
ATOM     17  N   UNL     1      -0.975  11.649  21.928  0.00  0.00    +0.000 N 
ATOM     18  C   UNL     1      -0.415  10.444  22.298  0.00  0.00    +0.000 C 
ATOM     19  O   UNL     1      -0.085  10.201  23.458  0.00  0.00    +0.000 OA
ATOM     20  H   UNL     1      -1.355  11.749  20.994  0.00  0.00    +0.000 HD
BRANCH  17  22
ATOM     21  C   UNL     1      -0.515  13.936  22.709  0.00  0.00    +0.000 C 
ATOM     22  C   UNL     1      -1.344  12.663  22.910  0.00  0.00    +0.000 C 
BRANCH  22  23
ATOM     23  C   UNL     1      -2.843  12.899  22.866  0.00  0.00    +0.000 A 
ATOM     24  C   UNL     1      -3.597  12.765  24.035  0.00  0.00    +0.000 A 
ATOM     25  C   UNL     1      -4.994  12.928  24.021  0.00  0.00    +0.000 A 
ATOM     26  C   UNL     1      -5.705  13.227  22.849  0.00  0.00    +0.000 A 
ATOM     27  C   UNL     1      -4.925  13.371  21.689  0.00  0.00    +0.000 A 
ATOM     28  C   UNL     1      -3.530  13.201  21.689  0.00  0.00    +0.000 A 
BRANCH  26  29
ATOM     29  N   UNL     1      -7.088  13.317  22.832  0.00  0.00    +0.000 N 
ATOM     30  C   UNL     1      -7.856  13.114  21.606  0.00  0.00    +0.000 C 
ATOM     31  C   UNL     1      -7.883  13.338  24.056  0.00  0.00    +0.000 C 
ENDBRANCH  26  29
ENDBRANCH  22  23
ENDBRANCH  17  22
ENDBRANCH   1  18
TORSDOF 6
ENDMDL
MODEL 7
REMARK VINA RESULT:      -7.2      4.053      5.400
REMARK  Name = 
REMARK  9 active torsions:
REMARK  status: ('A' for Active; 'I' for Inactive)
REMARK    1  A    between atoms: C_1  and  C_2
REMARK    2  A    between atoms: C_2  and  N_3
REMARK    3  A    between atoms: C_2  and  C_21
REMARK    4  A    between atoms: C_4  and  C_6
REMARK    5  A    between atoms: C_10  and  C_11
REMARK    6  A    between atoms: C_14  and  C_15
REMARK    7  A    between atoms: C_24  and  N_25
REMARK    8  A    between atoms: N_25  and  C_26
REMARK    9  A    between atoms: N_25  and  C_27
REMARK                            x       y       z     vdW  Elec       q    Type
REMARK                         _______ _______ _______ _____ _____    ______ ____
ROOT
ATOM      1  C   UNL     1       2.591   6.817  19.948  0.00  0.00    +0.000 C 
ATOM      2  C   UNL     1       2.611   5.565  20.814  0.00  0.00    +0.000 C 
ATOM      3  N   UNL     1       1.478   4.732  20.377  0.00  0.00    +0.000 NA
ATOM      4  C   UNL     1       1.124   5.163  19.005  0.00  0.00    +0.000 C 
ATOM      5  C   UNL     1       2.105   6.280  18.594  0.00  0.00    +0.000 C 
ATOM      6  H   UNL     1       0.673   4.941  20.974  0.00  0.00    +0.000 HD
ENDROOT
BRANCH   5   7
ATOM      7  C   UNL     1       3.247   5.809  17.696  0.00  0.00    +0.000 A 
ATOM      8  C   UNL     1       4.098   6.756  17.104  0.00  0.00    +0.000 A 
ATOM      9  C   UNL     1       5.145   6.358  16.263  0.00  0.00    +0.000 A 
ATOM     10  C   UNL     1       5.375   5.001  15.998  0.00  0.00    +0.000 A 
ATOM     11  C   UNL     1       4.529   4.053  16.583  0.00  0.00    +0.000 A 
ATOM     12  C   UNL     1       3.486   4.453  17.427  0.00  0.00    +0.000 A 
BRANCH  10  13
ATOM     13  C   UNL     1       6.509   4.544  15.115  0.00  0.00    +0.000 C 
ATOM     14  F   UNL     1       7.663   4.288  15.794  0.00  0.00    +0.000 F 
ATOM     15  F   UNL     1       6.211   3.396  14.444  0.00  0.00    +0.000 F 
ATOM     16  F   UNL     1       6.834   5.459  14.160  0.00  0.00    +0.000 F 
ENDBRANCH  10  13
ENDBRANCH   5   7
BRANCH   1  18
ATOM     17  N   UNL     1       1.594   9.059  19.905  0.00  0.00    +0.000 N 
ATOM     18  C   UNL     1       1.628   7.840  20.549  0.00  0.00    +0.000 C 
ATOM     19  O   UNL     1       0.963   7.611  21.558  0.00  0.00    +0.000 OA
ATOM     20  H   UNL     1       2.049   9.153  19.005  0.00  0.00    +0.000 HD
BRANCH  17  22
ATOM     21  C   UNL     1       1.409  11.426  20.551  0.00  0.00    +0.000 C 
ATOM     22  C   UNL     1       0.662  10.113  20.294  0.00  0.00    +0.000 C 
BRANCH  22  23
ATOM     23  C   UNL     1      -0.440  10.232  19.258  0.00  0.00    +0.000 A 
ATOM     24  C   UNL     1      -0.309   9.573  18.032  0.00  0.00    +0.000 A 
ATOM     25  C   UNL     1      -1.288   9.701  17.031  0.00  0.00    +0.000 A 
ATOM     26  C   UNL     1      -2.438  10.489  17.198  0.00  0.00    +0.000 A 
ATOM     27  C   UNL     1      -2.555  11.129  18.442  0.00  0.00    +0.000 A 
ATOM     28  C   UNL     1      -1.579  11.018  19.447  0.00  0.00    +0.000 A 
BRANCH  26  29
ATOM     29  N   UNL     1      -3.361  10.663  16.180  0.00  0.00    +0.000 N 
ATOM     30  C   UNL     1      -4.601  11.409  16.387  0.00  0.00    +0.000 C 
ATOM     31  C   UNL     1      -3.050  10.372  14.784  0.00  0.00    +0.000 C 
ENDBRANCH  26  29
ENDBRANCH  22  23
ENDBRANCH  17  22
ENDBRANCH   1  18
TORSDOF 6
ENDMDL
MODEL 8
REMARK VINA RESULT:      -7.1      1.118      1.445
REMARK  Name = 
REMARK  9 active torsions:
REMARK  status: ('A' for Active; 'I' for Inactive)
REMARK    1  A    between atoms: C_1  and  C_2
REMARK    2  A    between atoms: C_2  and  N_3
REMARK    3  A    between atoms: C_2  and  C_21
REMARK    4  A    between atoms: C_4  and  C_6
REMARK    5  A    between atoms: C_10  and  C_11
REMARK    6  A    between atoms: C_14  and  C_15
REMARK    7  A    between atoms: C_24  and  N_25
REMARK    8  A    between atoms: N_25  and  C_26
REMARK    9  A    between atoms: N_25  and  C_27
REMARK                            x       y       z     vdW  Elec       q    Type
REMARK                         _______ _______ _______ _____ _____    ______ ____
ROOT
ATOM      1  C   UNL     1      -0.003   9.935  20.287  0.00  0.00    +0.000 C 
ATOM      2  C   UNL     1      -0.836   9.990  19.014  0.00  0.00    +0.000 C 
ATOM      3  N   UNL     1       0.002  10.637  17.989  0.00  0.00    +0.000 NA
ATOM      4  C   UNL     1       1.411  10.495  18.425  0.00  0.00    +0.000 C 
ATOM      5  C   UNL     1       1.417   9.705  19.750  0.00  0.00    +0.000 C 
ATOM      6  H   UNL     1      -0.210  11.638  17.982  0.00  0.00    +0.000 HD
ENDROOT
BRANCH   5   7
ATOM      7  C   UNL     1       1.760   8.225  19.592  0.00  0.00    +0.000 A 
ATOM      8  C   UNL     1       2.250   7.756  18.363  0.00  0.00    +0.000 A 
ATOM      9  C   UNL     1       2.559   6.401  18.180  0.00  0.00    +0.000 A 
ATOM     10  C   UNL     1       2.395   5.482  19.224  0.00  0.00    +0.000 A 
ATOM     11  C   UNL     1       1.904   5.943  20.451  0.00  0.00    +0.000 A 
ATOM     12  C   UNL     1       1.600   7.298  20.632  0.00  0.00    +0.000 A 
BRANCH  10  13
ATOM     13  C   UNL     1       2.741   4.023  19.061  0.00  0.00    +0.000 C 
ATOM     14  F   UNL     1       4.081   3.774  19.070  0.00  0.00    +0.000 F 
ATOM     15  F   UNL     1       2.215   3.252  20.053  0.00  0.00    +0.000 F 
ATOM     16  F   UNL     1       2.272   3.498  17.894  0.00  0.00    +0.000 F 
ENDBRANCH  10  13
ENDBRANCH   5   7
BRANCH   1  18
ATOM     17  N   UNL     1      -1.272  11.983  20.754  0.00  0.00    +0.000 N 
ATOM     18  C   UNL     1      -0.133  11.260  21.040  0.00  0.00    +0.000 C 
ATOM     19  O   UNL     1       0.732  11.672  21.810  0.00  0.00    +0.000 OA
ATOM     20  H   UNL     1      -2.016  11.543  20.225  0.00  0.00    +0.000 HD
BRANCH  17  22
ATOM     21  C   UNL     1      -1.239  14.438  20.590  0.00  0.00    +0.000 C 
ATOM     22  C   UNL     1      -1.595  13.223  21.453  0.00  0.00    +0.000 C 
BRANCH  22  23
ATOM     23  C   UNL     1      -3.045  13.197  21.901  0.00  0.00    +0.000 A 
ATOM     24  C   UNL     1      -3.349  12.948  23.243  0.00  0.00    +0.000 A 
ATOM     25  C   UNL     1      -4.682  12.869  23.683  0.00  0.00    +0.000 A 
ATOM     26  C   UNL     1      -5.772  13.028  22.814  0.00  0.00    +0.000 A 
ATOM     27  C   UNL     1      -5.443  13.290  21.473  0.00  0.00    +0.000 A 
ATOM     28  C   UNL     1      -4.116  13.363  21.020  0.00  0.00    +0.000 A 
BRANCH  26  29
ATOM     29  N   UNL     1      -7.081  12.879  23.244  0.00  0.00    +0.000 N 
ATOM     30  C   UNL     1      -7.906  11.750  22.818  0.00  0.00    +0.000 C 
ATOM     31  C   UNL     1      -7.632  13.656  24.349  0.00  0.00    +0.000 C 
ENDBRANCH  26  29
ENDBRANCH  22  23
ENDBRANCH  17  22
ENDBRANCH   1  18
TORSDOF 6
ENDMDL
MODEL 9
REMARK VINA RESULT:      -7.1      1.792      2.478
REMARK  Name = 
REMARK  9 active torsions:
REMARK  status: ('A' for Active; 'I' for Inactive)
REMARK    1  A    between atoms: C_1  and  C_2
REMARK    2  A    between atoms: C_2  and  N_3
REMARK    3  A    between atoms: C_2  and  C_21
REMARK    4  A    between atoms: C_4  and  C_6
REMARK    5  A    between atoms: C_10  and  C_11
REMARK    6  A    between atoms: C_14  and  C_15
REMARK    7  A    between atoms: C_24  and  N_25
REMARK    8  A    between atoms: N_25  and  C_26
REMARK    9  A    between atoms: N_25  and  C_27
REMARK                            x       y       z     vdW  Elec       q    Type
REMARK                         _______ _______ _______ _____ _____    ______ ____
ROOT
ATOM      1  C   UNL     1       0.722   9.098  19.646  0.00  0.00    +0.000 C 
ATOM      2  C   UNL     1       0.283   9.370  18.213  0.00  0.00    +0.000 C 
ATOM      3  N   UNL     1       1.505   9.671  17.448  0.00  0.00    +0.000 NA
ATOM      4  C   UNL     1       2.644   9.097  18.202  0.00  0.00    +0.000 C 
ATOM      5  C   UNL     1       2.075   8.399  19.455  0.00  0.00    +0.000 C 
ATOM      6  H   UNL     1       1.637  10.686  17.433  0.00  0.00    +0.000 HD
ENDROOT
BRANCH   5   7
ATOM      7  C   UNL     1       1.948   6.884  19.321  0.00  0.00    +0.000 A 
ATOM      8  C   UNL     1       2.237   6.271  18.091  0.00  0.00    +0.000 A 
ATOM      9  C   UNL     1       2.115   4.885  17.931  0.00  0.00    +0.000 A 
ATOM     10  C   UNL     1       1.710   4.072  18.998  0.00  0.00    +0.000 A 
ATOM     11  C   UNL     1       1.418   4.677  20.226  0.00  0.00    +0.000 A 
ATOM     12  C   UNL     1       1.545   6.063  20.385  0.00  0.00    +0.000 A 
BRANCH  10  13
ATOM     13  C   UNL     1       1.592   2.575  18.859  0.00  0.00    +0.000 C 
ATOM     14  F   UNL     1       2.336   2.060  17.839  0.00  0.00    +0.000 F 
ATOM     15  F   UNL     1       1.996   1.918  19.981  0.00  0.00    +0.000 F 
ATOM     16  F   UNL     1       0.312   2.167  18.629  0.00  0.00    +0.000 F 
ENDBRANCH  10  13
ENDBRANCH   5   7
BRANCH   1  18
ATOM     17  N   UNL     1       0.420  11.533  19.706  0.00  0.00    +0.000 N 
ATOM     18  C   UNL     1       0.850  10.421  20.401  0.00  0.00    +0.000 C 
ATOM     19  O   UNL     1       1.340  10.497  21.526  0.00  0.00    +0.000 OA
ATOM     20  H   UNL     1      -0.101  11.406  18.847  0.00  0.00    +0.000 HD
BRANCH  17  22
ATOM     21  C   UNL     1       0.407  13.949  19.238  0.00  0.00    +0.000 C 
ATOM     22  C   UNL     1       0.387  12.859  20.316  0.00  0.00    +0.000 C 
BRANCH  22  23
ATOM     23  C   UNL     1      -0.794  12.960  21.263  0.00  0.00    +0.000 A 
ATOM     24  C   UNL     1      -2.081  12.681  20.794  0.00  0.00    +0.000 A 
ATOM     25  C   UNL     1      -3.203  12.812  21.631  0.00  0.00    +0.000 A 
ATOM     26  C   UNL     1      -3.101  13.227  22.968  0.00  0.00    +0.000 A 
ATOM     27  C   UNL     1      -1.797  13.488  23.421  0.00  0.00    +0.000 A 
ATOM     28  C   UNL     1      -0.669  13.371  22.592  0.00  0.00    +0.000 A 
BRANCH  26  29
ATOM     29  N   UNL     1      -4.219  13.420  23.764  0.00  0.00    +0.000 N 
ATOM     30  C   UNL     1      -4.608  12.453  24.788  0.00  0.00    +0.000 C 
ATOM     31  C   UNL     1      -4.913  14.701  23.838  0.00  0.00    +0.000 C 
ENDBRANCH  26  29
ENDBRANCH  22  23
ENDBRANCH  17  22
ENDBRANCH   1  18
TORSDOF 6
ENDMDL
