MODEL 1
REMARK VINA RESULT:      -8.2      0.000      0.000
REMARK  Name = 
REMARK  7 active torsions:
REMARK  status: ('A' for Active; 'I' for Inactive)
REMARK    1  A    between atoms: C_1  and  C_2
REMARK    2  A    between atoms: C_5  and  N_6
REMARK    3  A    between atoms: C_7  and  C_9
REMARK    4  A    between atoms: C_14  and  O_15
REMARK    5  A    between atoms: O_15  and  C_16
REMARK    6  A    between atoms: C_16  and  C_17
REMARK    7  A    between atoms: N_19  and  O_20
REMARK                            x       y       z     vdW  Elec       q    Type
REMARK                         _______ _______ _______ _____ _____    ______ ____
ROOT
ATOM      1  C   UNL     1       8.006   6.906  17.856  0.00  0.00    +0.000 C 
ATOM      2  C   UNL     1       7.437   5.918  18.962  0.00  0.00    +0.000 C 
ATOM      3  C   UNL     1       5.949   5.605  18.859  0.00  0.00    +0.000 A 
ATOM      4  C   UNL     1       5.221   4.735  19.734  0.00  0.00    +0.000 A 
ATOM      5  C   UNL     1       3.814   4.570  19.598  0.00  0.00    +0.000 A 
ATOM      6  C   UNL     1       3.125   5.312  18.646  0.00  0.00    +0.000 A 
ATOM      7  C   UNL     1       3.858   6.081  17.748  0.00  0.00    +0.000 A 
ATOM      8  C   UNL     1       5.253   6.131  17.786  0.00  0.00    +0.000 A 
ATOM      9  C   UNL     1       5.963   6.584  16.546  0.00  0.00    +0.000 C 
ATOM     10  N   UNL     1       7.425   6.560  16.542  0.00  0.00    +0.000 NA
ATOM     11  H   UNL     1       7.692   7.280  15.871  0.00  0.00    +0.000 HD
ENDROOT
BRANCH   1  13
ATOM     12  N   UNL     1       8.825   8.995  18.984  0.00  0.00    +0.000 N 
ATOM     13  C   UNL     1       7.978   8.509  17.940  0.00  0.00    +0.000 C 
ATOM     14  O   UNL     1       7.329   9.209  17.172  0.00  0.00    +0.000 OA
ATOM     15  H   UNL     1       9.075   8.323  19.701  0.00  0.00    +0.000 HD
BRANCH  12  20
ATOM     16  C   UNL     1      11.469  14.109  19.907  0.00  0.00    +0.000 C 
ATOM     17  C   UNL     1      10.734  12.814  19.666  0.00  0.00    +0.000 A 
ATOM     18  C   UNL     1      10.510  12.340  18.369  0.00  0.00    +0.000 A 
ATOM     19  C   UNL     1       9.852  11.108  18.126  0.00  0.00    +0.000 A 
ATOM     20  C   UNL     1       9.398  10.304  19.167  0.00  0.00    +0.000 A 
ATOM     21  C   UNL     1       9.595  10.802  20.474  0.00  0.00    +0.000 A 
ATOM     22  C   UNL     1      10.248  12.037  20.721  0.00  0.00    +0.000 A 
ENDBRANCH  12  20
ENDBRANCH   1  13
BRANCH   6  23
ATOM     23  O   UNL     1       1.799   5.223  18.333  0.00  0.00    +0.000 OA
BRANCH  23  24
ATOM     24  C   UNL     1       1.351   4.115  17.562  0.00  0.00    +0.000 C 
BRANCH  24  25
ATOM     25  C   UNL     1       1.602   2.808  18.305  0.00  0.00    +0.000 C 
ATOM     26  O   UNL     1       0.950   2.453  19.287  0.00  0.00    +0.000 OA
ATOM     27  N   UNL     1       2.602   2.029  17.775  0.00  0.00    +0.000 N 
ATOM     28  H   UNL     1       3.278   2.407  17.115  0.00  0.00    +0.000 HD
BRANCH  27  29
ATOM     29  O   UNL     1       2.962   0.875  18.504  0.00  0.00    +0.000 OA
ATOM     30  H   UNL     1       2.471   0.996  19.345  0.00  0.00    +0.000 HD
ENDBRANCH  27  29
ENDBRANCH  24  25
ENDBRANCH  23  24
ENDBRANCH   6  23
TORSDOF 6
ENDMDL
MODEL 2
REMARK VINA RESULT:      -7.9      3.124      7.703
REMARK  Name = 
REMARK  7 active torsions:
REMARK  status: ('A' for Active; 'I' for Inactive)
REMARK    1  A    between atoms: C_1  and  C_2
REMARK    2  A    between atoms: C_5  and  N_6
REMARK    3  A    between atoms: C_7  and  C_9
REMARK    4  A    between atoms: C_14  and  O_15
REMARK    5  A    between atoms: O_15  and  C_16
REMARK    6  A    between atoms: C_16  and  C_17
REMARK    7  A    between atoms: N_19  and  O_20
REMARK                            x       y       z     vdW  Elec       q    Type
REMARK                         _______ _______ _______ _____ _____    ______ ____
ROOT
ATOM      1  C   UNL     1       2.206   3.193  19.072  0.00  0.00    +0.000 C 
ATOM      2  C   UNL     1       2.729   3.270  17.574  0.00  0.00    +0.000 C 
ATOM      3  C   UNL     1       4.132   3.835  17.396  0.00  0.00    +0.000 A 
ATOM      4  C   UNL     1       4.815   3.986  16.145  0.00  0.00    +0.000 A 
ATOM      5  C   UNL     1       6.098   4.598  16.081  0.00  0.00    +0.000 A 
ATOM      6  C   UNL     1       6.671   5.114  17.238  0.00  0.00    +0.000 A 
ATOM      7  C   UNL     1       6.037   4.877  18.453  0.00  0.00    +0.000 A 
ATOM      8  C   UNL     1       4.849   4.149  18.537  0.00  0.00    +0.000 A 
ATOM      9  C   UNL     1       4.493   3.556  19.866  0.00  0.00    +0.000 C 
ATOM     10  N   UNL     1       3.297   2.719  19.949  0.00  0.00    +0.000 NA
ATOM     11  H   UNL     1       2.992   2.803  20.919  0.00  0.00    +0.000 HD
ENDROOT
BRANCH   1  13
ATOM     12  N   UNL     1       2.260   5.595  19.807  0.00  0.00    +0.000 N 
ATOM     13  C   UNL     1       1.491   4.390  19.868  0.00  0.00    +0.000 C 
ATOM     14  O   UNL     1       0.405   4.272  20.422  0.00  0.00    +0.000 OA
ATOM     15  H   UNL     1       3.238   5.484  19.567  0.00  0.00    +0.000 HD
BRANCH  12  20
ATOM     16  C   UNL     1       0.302  11.056  20.388  0.00  0.00    +0.000 C 
ATOM     17  C   UNL     1       0.860   9.660  20.259  0.00  0.00    +0.000 A 
ATOM     18  C   UNL     1       0.758   8.740  21.308  0.00  0.00    +0.000 A 
ATOM     19  C   UNL     1       1.245   7.415  21.190  0.00  0.00    +0.000 A 
ATOM     20  C   UNL     1       1.848   6.958  20.022  0.00  0.00    +0.000 A 
ATOM     21  C   UNL     1       1.981   7.899  18.978  0.00  0.00    +0.000 A 
ATOM     22  C   UNL     1       1.500   9.229  19.094  0.00  0.00    +0.000 A 
ENDBRANCH  12  20
ENDBRANCH   1  13
BRANCH   6  23
ATOM     23  O   UNL     1       7.915   5.661  17.367  0.00  0.00    +0.000 OA
BRANCH  23  24
ATOM     24  C   UNL     1       8.180   6.502  18.484  0.00  0.00    +0.000 C 
BRANCH  24  25
ATOM     25  C   UNL     1       8.101   7.970  18.081  0.00  0.00    +0.000 C 
ATOM     26  O   UNL     1       7.443   8.373  17.121  0.00  0.00    +0.000 OA
ATOM     27  N   UNL     1       8.801   8.828  18.894  0.00  0.00    +0.000 N 
ATOM     28  H   UNL     1       9.510   8.489  19.540  0.00  0.00    +0.000 HD
BRANCH  27  29
ATOM     29  O   UNL     1       8.868  10.177  18.486  0.00  0.00    +0.000 OA
ATOM     30  H   UNL     1       8.507  10.139  17.574  0.00  0.00    +0.000 HD
ENDBRANCH  27  29
ENDBRANCH  24  25
ENDBRANCH  23  24
ENDBRANCH   6  23
TORSDOF 6
ENDMDL
MODEL 3
REMARK VINA RESULT:      -7.9      1.203      1.343
REMARK  Name = 
REMARK  7 active torsions:
REMARK  status: ('A' for Active; 'I' for Inactive)
REMARK    1  A    between atoms: C_1  and  C_2
REMARK    2  A    between atoms: C_5  and  N_6
REMARK    3  A    between atoms: C_7  and  C_9
REMARK    4  A    between atoms: C_14  and  O_15
REMARK    5  A    between atoms: O_15  and  C_16
REMARK    6  A    between atoms: C_16  and  C_17
REMARK    7  A    between atoms: N_19  and  O_20
REMARK                            x       y       z     vdW  Elec       q    Type
REMARK                         _______ _______ _______ _____ _____    ______ ____
ROOT
ATOM      1  C   UNL     1       8.066   6.909  17.752  0.00  0.00    +0.000 C 
ATOM      2  C   UNL     1       7.656   5.748  18.757  0.00  0.00    +0.000 C 
ATOM      3  C   UNL     1       6.198   5.311  18.694  0.00  0.00    +0.000 A 
ATOM      4  C   UNL     1       5.605   4.279  19.492  0.00  0.00    +0.000 A 
ATOM      5  C   UNL     1       4.212   4.000  19.410  0.00  0.00    +0.000 A 
ATOM      6  C   UNL     1       3.403   4.781  18.593  0.00  0.00    +0.000 A 
ATOM      7  C   UNL     1       4.008   5.715  17.760  0.00  0.00    +0.000 A 
ATOM      8  C   UNL     1       5.392   5.891  17.730  0.00  0.00    +0.000 A 
ATOM      9  C   UNL     1       5.981   6.552  16.520  0.00  0.00    +0.000 C 
ATOM     10  N   UNL     1       7.437   6.665  16.437  0.00  0.00    +0.000 NA
ATOM     11  H   UNL     1       7.596   7.482  15.847  0.00  0.00    +0.000 HD
ENDROOT
BRANCH   1  13
ATOM     12  N   UNL     1       8.867   8.947  18.982  0.00  0.00    +0.000 N 
ATOM     13  C   UNL     1       7.904   8.481  18.034  0.00  0.00    +0.000 C 
ATOM     14  O   UNL     1       7.072   9.180  17.468  0.00  0.00    +0.000 OA
ATOM     15  H   UNL     1       9.296   8.236  19.564  0.00  0.00    +0.000 HD
BRANCH  12  20
ATOM     16  C   UNL     1      11.092  14.197  20.197  0.00  0.00    +0.000 C 
ATOM     17  C   UNL     1      10.464  12.863  19.876  0.00  0.00    +0.000 A 
ATOM     18  C   UNL     1      10.393  12.395  18.560  0.00  0.00    +0.000 A 
ATOM     19  C   UNL     1       9.839  11.130  18.245  0.00  0.00    +0.000 A 
ATOM     20  C   UNL     1       9.338  10.285  19.231  0.00  0.00    +0.000 A 
ATOM     21  C   UNL     1       9.379  10.775  20.554  0.00  0.00    +0.000 A 
ATOM     22  C   UNL     1       9.928  12.044  20.873  0.00  0.00    +0.000 A 
ENDBRANCH  12  20
ENDBRANCH   1  13
BRANCH   6  23
ATOM     23  O   UNL     1       2.072   4.604  18.341  0.00  0.00    +0.000 OA
BRANCH  23  24
ATOM     24  C   UNL     1       1.162   4.609  19.435  0.00  0.00    +0.000 C 
BRANCH  24  25
ATOM     25  C   UNL     1       1.222   3.284  20.188  0.00  0.00    +0.000 C 
ATOM     26  O   UNL     1       1.085   2.190  19.641  0.00  0.00    +0.000 OA
ATOM     27  N   UNL     1       1.471   3.399  21.534  0.00  0.00    +0.000 N 
ATOM     28  H   UNL     1       1.366   4.286  22.021  0.00  0.00    +0.000 HD
BRANCH  27  29
ATOM     29  O   UNL     1       1.403   2.213  22.295  0.00  0.00    +0.000 OA
ATOM     30  H   UNL     1       2.182   2.297  22.886  0.00  0.00    +0.000 HD
ENDBRANCH  27  29
ENDBRANCH  24  25
ENDBRANCH  23  24
ENDBRANCH   6  23
TORSDOF 6
ENDMDL
MODEL 4
REMARK VINA RESULT:      -7.8      5.325      7.542
REMARK  Name = 
REMARK  7 active torsions:
REMARK  status: ('A' for Active; 'I' for Inactive)
REMARK    1  A    between atoms: C_1  and  C_2
REMARK    2  A    between atoms: C_5  and  N_6
REMARK    3  A    between atoms: C_7  and  C_9
REMARK    4  A    between atoms: C_14  and  O_15
REMARK    5  A    between atoms: O_15  and  C_16
REMARK    6  A    between atoms: C_16  and  C_17
REMARK    7  A    between atoms: N_19  and  O_20
REMARK                            x       y       z     vdW  Elec       q    Type
REMARK                         _______ _______ _______ _____ _____    ______ ____
ROOT
ATOM      1  C   UNL     1       3.108   3.994  19.378  0.00  0.00    +0.000 C 
ATOM      2  C   UNL     1       2.681   5.032  20.503  0.00  0.00    +0.000 C 
ATOM      3  C   UNL     1       2.178   6.378  19.997  0.00  0.00    +0.000 A 
ATOM      4  C   UNL     1       1.728   7.460  20.822  0.00  0.00    +0.000 A 
ATOM      5  C   UNL     1       1.350   8.707  20.251  0.00  0.00    +0.000 A 
ATOM      6  C   UNL     1       1.478   8.902  18.881  0.00  0.00    +0.000 A 
ATOM      7  C   UNL     1       1.828   7.815  18.088  0.00  0.00    +0.000 A 
ATOM      8  C   UNL     1       2.059   6.549  18.630  0.00  0.00    +0.000 A 
ATOM      9  C   UNL     1       1.972   5.373  17.704  0.00  0.00    +0.000 C 
ATOM     10  N   UNL     1       2.126   4.035  18.274  0.00  0.00    +0.000 NA
ATOM     11  H   UNL     1       2.482   3.469  17.504  0.00  0.00    +0.000 HD
ENDROOT
BRANCH   1  13
ATOM     12  N   UNL     1       4.444   3.804  17.259  0.00  0.00    +0.000 N 
ATOM     13  C   UNL     1       4.552   3.924  18.680  0.00  0.00    +0.000 C 
ATOM     14  O   UNL     1       5.603   4.000  19.306  0.00  0.00    +0.000 OA
ATOM     15  H   UNL     1       3.550   3.479  16.909  0.00  0.00    +0.000 HD
BRANCH  12  20
ATOM     16  C   UNL     1       8.095   5.215  12.938  0.00  0.00    +0.000 C 
ATOM     17  C   UNL     1       7.181   4.802  14.065  0.00  0.00    +0.000 A 
ATOM     18  C   UNL     1       7.439   5.189  15.385  0.00  0.00    +0.000 A 
ATOM     19  C   UNL     1       6.572   4.839  16.450  0.00  0.00    +0.000 A 
ATOM     20  C   UNL     1       5.417   4.093  16.237  0.00  0.00    +0.000 A 
ATOM     21  C   UNL     1       5.177   3.675  14.910  0.00  0.00    +0.000 A 
ATOM     22  C   UNL     1       6.046   4.018  13.842  0.00  0.00    +0.000 A 
ENDBRANCH  12  20
ENDBRANCH   1  13
BRANCH   6  23
ATOM     23  O   UNL     1       1.094  10.000  18.165  0.00  0.00    +0.000 OA
BRANCH  23  24
ATOM     24  C   UNL     1       0.297  10.989  18.805  0.00  0.00    +0.000 C 
BRANCH  24  25
ATOM     25  C   UNL     1      -1.131  10.954  18.274  0.00  0.00    +0.000 C 
ATOM     26  O   UNL     1      -1.945  10.083  18.582  0.00  0.00    +0.000 OA
ATOM     27  N   UNL     1      -1.459  11.993  17.439  0.00  0.00    +0.000 N 
ATOM     28  H   UNL     1      -0.746  12.580  17.012  0.00  0.00    +0.000 HD
BRANCH  27  29
ATOM     29  O   UNL     1      -2.725  11.932  16.817  0.00  0.00    +0.000 OA
ATOM     30  H   UNL     1      -3.303  12.381  17.471  0.00  0.00    +0.000 HD
ENDBRANCH  27  29
ENDBRANCH  24  25
ENDBRANCH  23  24
ENDBRANCH   6  23
TORSDOF 6
ENDMDL
MODEL 5
REMARK VINA RESULT:      -7.8      0.986      1.384
REMARK  Name = 
REMARK  7 active torsions:
REMARK  status: ('A' for Active; 'I' for Inactive)
REMARK    1  A    between atoms: C_1  and  C_2
REMARK    2  A    between atoms: C_5  and  N_6
REMARK    3  A    between atoms: C_7  and  C_9
REMARK    4  A    between atoms: C_14  and  O_15
REMARK    5  A    between atoms: O_15  and  C_16
REMARK    6  A    between atoms: C_16  and  C_17
REMARK    7  A    between atoms: N_19  and  O_20
REMARK                            x       y       z     vdW  Elec       q    Type
REMARK                         _______ _______ _______ _____ _____    ______ ____
ROOT
ATOM      1  C   UNL     1       7.866   7.006  17.558  0.00  0.00    +0.000 C 
ATOM      2  C   UNL     1       7.514   5.876  18.618  0.00  0.00    +0.000 C 
ATOM      3  C   UNL     1       6.031   5.574  18.787  0.00  0.00    +0.000 A 
ATOM      4  C   UNL     1       5.479   4.591  19.671  0.00  0.00    +0.000 A 
ATOM      5  C   UNL     1       4.071   4.441  19.810  0.00  0.00    +0.000 A 
ATOM      6  C   UNL     1       3.218   5.301  19.129  0.00  0.00    +0.000 A 
ATOM      7  C   UNL     1       3.768   6.186  18.208  0.00  0.00    +0.000 A 
ATOM      8  C   UNL     1       5.140   6.236  17.961  0.00  0.00    +0.000 A 
ATOM      9  C   UNL     1       5.590   6.855  16.672  0.00  0.00    +0.000 C 
ATOM     10  N   UNL     1       7.018   6.837  16.360  0.00  0.00    +0.000 NA
ATOM     11  H   UNL     1       7.157   7.642  15.750  0.00  0.00    +0.000 HD
ENDROOT
BRANCH   1  13
ATOM     12  N   UNL     1       8.782   8.898  18.934  0.00  0.00    +0.000 N 
ATOM     13  C   UNL     1       7.895   8.583  17.858  0.00  0.00    +0.000 C 
ATOM     14  O   UNL     1       7.253   9.400  17.208  0.00  0.00    +0.000 OA
ATOM     15  H   UNL     1       9.025   8.128  19.547  0.00  0.00    +0.000 HD
BRANCH  12  20
ATOM     16  C   UNL     1      11.004  14.163  20.090  0.00  0.00    +0.000 C 
ATOM     17  C   UNL     1      10.481  12.777  19.802  0.00  0.00    +0.000 A 
ATOM     18  C   UNL     1       9.932  11.986  20.817  0.00  0.00    +0.000 A 
ATOM     19  C   UNL     1       9.404  10.696  20.557  0.00  0.00    +0.000 A 
ATOM     20  C   UNL     1       9.403  10.152  19.276  0.00  0.00    +0.000 A 
ATOM     21  C   UNL     1       9.989  10.938  18.261  0.00  0.00    +0.000 A 
ATOM     22  C   UNL     1      10.523  12.228  18.518  0.00  0.00    +0.000 A 
ENDBRANCH  12  20
ENDBRANCH   1  13
BRANCH   6  23
ATOM     23  O   UNL     1       1.854   5.249  19.091  0.00  0.00    +0.000 OA
BRANCH  23  24
ATOM     24  C   UNL     1       1.156   4.737  20.220  0.00  0.00    +0.000 C 
BRANCH  24  25
ATOM     25  C   UNL     1       1.072   3.216  20.154  0.00  0.00    +0.000 C 
ATOM     26  O   UNL     1       1.203   2.489  21.139  0.00  0.00    +0.000 OA
ATOM     27  N   UNL     1       0.807   2.709  18.905  0.00  0.00    +0.000 N 
ATOM     28  H   UNL     1       0.916   3.275  18.066  0.00  0.00    +0.000 HD
BRANCH  27  29
ATOM     29  O   UNL     1       0.852   1.305  18.767  0.00  0.00    +0.000 OA
ATOM     30  H   UNL     1      -0.090   1.079  18.608  0.00  0.00    +0.000 HD
ENDBRANCH  27  29
ENDBRANCH  24  25
ENDBRANCH  23  24
ENDBRANCH   6  23
TORSDOF 6
ENDMDL
MODEL 6
REMARK VINA RESULT:      -7.7      7.012      9.588
REMARK  Name = 
REMARK  7 active torsions:
REMARK  status: ('A' for Active; 'I' for Inactive)
REMARK    1  A    between atoms: C_1  and  C_2
REMARK    2  A    between atoms: C_5  and  N_6
REMARK    3  A    between atoms: C_7  and  C_9
REMARK    4  A    between atoms: C_14  and  O_15
REMARK    5  A    between atoms: O_15  and  C_16
REMARK    6  A    between atoms: C_16  and  C_17
REMARK    7  A    between atoms: N_19  and  O_20
REMARK                            x       y       z     vdW  Elec       q    Type
REMARK                         _______ _______ _______ _____ _____    ______ ____
ROOT
ATOM      1  C   UNL     1       0.418  11.963  19.840  0.00  0.00    +0.000 C 
ATOM      2  C   UNL     1       0.547  10.662  20.744  0.00  0.00    +0.000 C 
ATOM      3  C   UNL     1       1.207   9.462  20.076  0.00  0.00    +0.000 A 
ATOM      4  C   UNL     1       1.443   8.192  20.695  0.00  0.00    +0.000 A 
ATOM      5  C   UNL     1       1.998   7.110  19.957  0.00  0.00    +0.000 A 
ATOM      6  C   UNL     1       2.256   7.265  18.600  0.00  0.00    +0.000 A 
ATOM      7  C   UNL     1       2.108   8.528  18.039  0.00  0.00    +0.000 A 
ATOM      8  C   UNL     1       1.702   9.629  18.794  0.00  0.00    +0.000 A 
ATOM      9  C   UNL     1       2.008  10.993  18.252  0.00  0.00    +0.000 C 
ATOM     10  N   UNL     1       1.666  12.154  19.073  0.00  0.00    +0.000 NA
ATOM     11  H   UNL     1       1.520  12.908  18.401  0.00  0.00    +0.000 HD
ENDROOT
BRANCH   1  13
ATOM     12  N   UNL     1      -1.955  11.521  19.146  0.00  0.00    +0.000 N 
ATOM     13  C   UNL     1      -0.780  12.265  18.815  0.00  0.00    +0.000 C 
ATOM     14  O   UNL     1      -0.685  13.064  17.891  0.00  0.00    +0.000 OA
ATOM     15  H   UNL     1      -1.815  10.713  19.742  0.00  0.00    +0.000 HD
BRANCH  12  20
ATOM     16  C   UNL     1      -7.426  12.877  17.654  0.00  0.00    +0.000 C 
ATOM     17  C   UNL     1      -6.030  12.474  18.058  0.00  0.00    +0.000 A 
ATOM     18  C   UNL     1      -5.174  11.827  17.160  0.00  0.00    +0.000 A 
ATOM     19  C   UNL     1      -3.848  11.474  17.512  0.00  0.00    +0.000 A 
ATOM     20  C   UNL     1      -3.326  11.755  18.771  0.00  0.00    +0.000 A 
ATOM     21  C   UNL     1      -4.203  12.376  19.687  0.00  0.00    +0.000 A 
ATOM     22  C   UNL     1      -5.534  12.726  19.340  0.00  0.00    +0.000 A 
ENDBRANCH  12  20
ENDBRANCH   1  13
BRANCH   6  23
ATOM     23  O   UNL     1       2.852   6.362  17.766  0.00  0.00    +0.000 OA
BRANCH  23  24
ATOM     24  C   UNL     1       3.351   5.149  18.316  0.00  0.00    +0.000 C 
BRANCH  24  25
ATOM     25  C   UNL     1       2.489   3.969  17.883  0.00  0.00    +0.000 C 
ATOM     26  O   UNL     1       1.362   4.095  17.405  0.00  0.00    +0.000 OA
ATOM     27  N   UNL     1       3.079   2.738  18.040  0.00  0.00    +0.000 N 
ATOM     28  H   UNL     1       3.901   2.612  18.627  0.00  0.00    +0.000 HD
BRANCH  27  29
ATOM     29  O   UNL     1       2.273   1.610  17.780  0.00  0.00    +0.000 OA
ATOM     30  H   UNL     1       1.452   1.819  18.275  0.00  0.00    +0.000 HD
ENDBRANCH  27  29
ENDBRANCH  24  25
ENDBRANCH  23  24
ENDBRANCH   6  23
TORSDOF 6
ENDMDL
MODEL 7
REMARK VINA RESULT:      -7.7      2.850      7.772
REMARK  Name = 
REMARK  7 active torsions:
REMARK  status: ('A' for Active; 'I' for Inactive)
REMARK    1  A    between atoms: C_1  and  C_2
REMARK    2  A    between atoms: C_5  and  N_6
REMARK    3  A    between atoms: C_7  and  C_9
REMARK    4  A    between atoms: C_14  and  O_15
REMARK    5  A    between atoms: O_15  and  C_16
REMARK    6  A    between atoms: C_16  and  C_17
REMARK    7  A    between atoms: N_19  and  O_20
REMARK                            x       y       z     vdW  Elec       q    Type
REMARK                         _______ _______ _______ _____ _____    ______ ____
ROOT
ATOM      1  C   UNL     1       3.008   3.434  18.636  0.00  0.00    +0.000 C 
ATOM      2  C   UNL     1       3.514   3.606  17.139  0.00  0.00    +0.000 C 
ATOM      3  C   UNL     1       4.730   4.505  16.957  0.00  0.00    +0.000 A 
ATOM      4  C   UNL     1       5.368   4.796  15.707  0.00  0.00    +0.000 A 
ATOM      5  C   UNL     1       6.454   5.712  15.636  0.00  0.00    +0.000 A 
ATOM      6  C   UNL     1       6.862   6.384  16.782  0.00  0.00    +0.000 A 
ATOM      7  C   UNL     1       6.293   6.022  17.999  0.00  0.00    +0.000 A 
ATOM      8  C   UNL     1       5.328   5.018  18.094  0.00  0.00    +0.000 A 
ATOM      9  C   UNL     1       5.117   4.385  19.436  0.00  0.00    +0.000 C 
ATOM     10  N   UNL     1       4.172   3.273  19.532  0.00  0.00    +0.000 NA
ATOM     11  H   UNL     1       3.842   3.300  20.497  0.00  0.00    +0.000 HD
ENDROOT
BRANCH   1  13
ATOM     12  N   UNL     1       2.576   5.726  19.568  0.00  0.00    +0.000 N 
ATOM     13  C   UNL     1       2.002   4.428  19.395  0.00  0.00    +0.000 C 
ATOM     14  O   UNL     1       0.873   4.102  19.743  0.00  0.00    +0.000 OA
ATOM     15  H   UNL     1       3.586   5.778  19.491  0.00  0.00    +0.000 HD
BRANCH  12  20
ATOM     16  C   UNL     1       0.261  10.911  20.889  0.00  0.00    +0.000 C 
ATOM     17  C   UNL     1       0.808   9.553  20.527  0.00  0.00    +0.000 A 
ATOM     18  C   UNL     1       1.354   9.306  19.263  0.00  0.00    +0.000 A 
ATOM     19  C   UNL     1       1.904   8.046  18.919  0.00  0.00    +0.000 A 
ATOM     20  C   UNL     1       1.932   6.989  19.824  0.00  0.00    +0.000 A 
ATOM     21  C   UNL     1       1.349   7.230  21.087  0.00  0.00    +0.000 A 
ATOM     22  C   UNL     1       0.792   8.489  21.433  0.00  0.00    +0.000 A 
ENDBRANCH  12  20
ENDBRANCH   1  13
BRANCH   6  23
ATOM     23  O   UNL     1       7.924   7.232  16.907  0.00  0.00    +0.000 OA
BRANCH  23  24
ATOM     24  C   UNL     1       8.311   7.659  18.208  0.00  0.00    +0.000 C 
BRANCH  24  25
ATOM     25  C   UNL     1       8.413   9.179  18.266  0.00  0.00    +0.000 C 
ATOM     26  O   UNL     1       7.816   9.926  17.492  0.00  0.00    +0.000 OA
ATOM     27  N   UNL     1       9.206   9.662  19.278  0.00  0.00    +0.000 N 
ATOM     28  H   UNL     1       9.864   9.064  19.772  0.00  0.00    +0.000 HD
BRANCH  27  29
ATOM     29  O   UNL     1       9.438  11.055  19.292  0.00  0.00    +0.000 OA
ATOM     30  H   UNL     1       8.542  11.419  19.128  0.00  0.00    +0.000 HD
ENDBRANCH  27  29
ENDBRANCH  24  25
ENDBRANCH  23  24
ENDBRANCH   6  23
TORSDOF 6
ENDMDL
MODEL 8
REMARK VINA RESULT:      -7.7      7.003      9.670
REMARK  Name = 
REMARK  7 active torsions:
REMARK  status: ('A' for Active; 'I' for Inactive)
REMARK    1  A    between atoms: C_1  and  C_2
REMARK    2  A    between atoms: C_5  and  N_6
REMARK    3  A    between atoms: C_7  and  C_9
REMARK    4  A    between atoms: C_14  and  O_15
REMARK    5  A    between atoms: O_15  and  C_16
REMARK    6  A    between atoms: C_16  and  C_17
REMARK    7  A    between atoms: N_19  and  O_20
REMARK                            x       y       z     vdW  Elec       q    Type
REMARK                         _______ _______ _______ _____ _____    ______ ____
ROOT
ATOM      1  C   UNL     1       0.412  11.740  19.772  0.00  0.00    +0.000 C 
ATOM      2  C   UNL     1       0.528  10.452  20.695  0.00  0.00    +0.000 C 
ATOM      3  C   UNL     1       1.220   9.251  20.063  0.00  0.00    +0.000 A 
ATOM      4  C   UNL     1       1.450   7.991  20.705  0.00  0.00    +0.000 A 
ATOM      5  C   UNL     1       2.038   6.906  19.997  0.00  0.00    +0.000 A 
ATOM      6  C   UNL     1       2.334   7.047  18.647  0.00  0.00    +0.000 A 
ATOM      7  C   UNL     1       2.189   8.301  18.065  0.00  0.00    +0.000 A 
ATOM      8  C   UNL     1       1.750   9.407  18.794  0.00  0.00    +0.000 A 
ATOM      9  C   UNL     1       2.057  10.767  18.243  0.00  0.00    +0.000 C 
ATOM     10  N   UNL     1       1.680  11.934  19.039  0.00  0.00    +0.000 NA
ATOM     11  H   UNL     1       1.545  12.678  18.354  0.00  0.00    +0.000 HD
ENDROOT
BRANCH   1  13
ATOM     12  N   UNL     1      -1.980  11.379  19.094  0.00  0.00    +0.000 N 
ATOM     13  C   UNL     1      -0.759  12.016  18.709  0.00  0.00    +0.000 C 
ATOM     14  O   UNL     1      -0.609  12.718  17.715  0.00  0.00    +0.000 OA
ATOM     15  H   UNL     1      -1.893  10.624  19.765  0.00  0.00    +0.000 HD
BRANCH  12  20
ATOM     16  C   UNL     1      -7.359  12.920  17.456  0.00  0.00    +0.000 C 
ATOM     17  C   UNL     1      -5.989  12.470  17.897  0.00  0.00    +0.000 A 
ATOM     18  C   UNL     1      -5.131  11.797  17.021  0.00  0.00    +0.000 A 
ATOM     19  C   UNL     1      -3.827  11.399  17.408  0.00  0.00    +0.000 A 
ATOM     20  C   UNL     1      -3.331  11.660  18.682  0.00  0.00    +0.000 A 
ATOM     21  C   UNL     1      -4.211  12.308  19.575  0.00  0.00    +0.000 A 
ATOM     22  C   UNL     1      -5.520  12.703  19.193  0.00  0.00    +0.000 A 
ENDBRANCH  12  20
ENDBRANCH   1  13
BRANCH   6  23
ATOM     23  O   UNL     1       2.963   6.140  17.842  0.00  0.00    +0.000 OA
BRANCH  23  24
ATOM     24  C   UNL     1       4.373   6.237  17.675  0.00  0.00    +0.000 C 
BRANCH  24  25
ATOM     25  C   UNL     1       5.090   5.240  18.578  0.00  0.00    +0.000 C 
ATOM     26  O   UNL     1       6.098   5.519  19.226  0.00  0.00    +0.000 OA
ATOM     27  N   UNL     1       4.505   3.998  18.641  0.00  0.00    +0.000 N 
ATOM     28  H   UNL     1       3.817   3.698  17.954  0.00  0.00    +0.000 HD
BRANCH  27  29
ATOM     29  O   UNL     1       5.204   3.003  19.357  0.00  0.00    +0.000 OA
ATOM     30  H   UNL     1       5.513   2.407  18.641  0.00  0.00    +0.000 HD
ENDBRANCH  27  29
ENDBRANCH  24  25
ENDBRANCH  23  24
ENDBRANCH   6  23
TORSDOF 6
ENDMDL
MODEL 9
REMARK VINA RESULT:      -7.6      4.156      6.877
REMARK  Name = 
REMARK  7 active torsions:
REMARK  status: ('A' for Active; 'I' for Inactive)
REMARK    1  A    between atoms: C_1  and  C_2
REMARK    2  A    between atoms: C_5  and  N_6
REMARK    3  A    between atoms: C_7  and  C_9
REMARK    4  A    between atoms: C_14  and  O_15
REMARK    5  A    between atoms: O_15  and  C_16
REMARK    6  A    between atoms: C_16  and  C_17
REMARK    7  A    between atoms: N_19  and  O_20
REMARK                            x       y       z     vdW  Elec       q    Type
REMARK                         _______ _______ _______ _____ _____    ______ ____
ROOT
ATOM      1  C   UNL     1       6.581   6.535  16.981  0.00  0.00    +0.000 C 
ATOM      2  C   UNL     1       5.145   7.198  17.130  0.00  0.00    +0.000 C 
ATOM      3  C   UNL     1       4.260   6.610  18.222  0.00  0.00    +0.000 A 
ATOM      4  C   UNL     1       2.937   7.052  18.548  0.00  0.00    +0.000 A 
ATOM      5  C   UNL     1       2.165   6.382  19.537  0.00  0.00    +0.000 A 
ATOM      6  C   UNL     1       2.673   5.243  20.151  0.00  0.00    +0.000 A 
ATOM      7  C   UNL     1       3.991   4.884  19.889  0.00  0.00    +0.000 A 
ATOM      8  C   UNL     1       4.802   5.624  19.028  0.00  0.00    +0.000 A 
ATOM      9  C   UNL     1       6.286   5.455  19.157  0.00  0.00    +0.000 C 
ATOM     10  N   UNL     1       7.150   6.288  18.322  0.00  0.00    +0.000 NA
ATOM     11  H   UNL     1       8.005   5.743  18.214  0.00  0.00    +0.000 HD
ENDROOT
BRANCH   1  13
ATOM     12  N   UNL     1       6.006   5.077  15.018  0.00  0.00    +0.000 N 
ATOM     13  C   UNL     1       6.912   5.226  16.114  0.00  0.00    +0.000 C 
ATOM     14  O   UNL     1       7.852   4.479  16.361  0.00  0.00    +0.000 OA
ATOM     15  H   UNL     1       5.134   5.589  15.092  0.00  0.00    +0.000 HD
BRANCH  12  20
ATOM     16  C   UNL     1       6.892   1.780  10.291  0.00  0.00    +0.000 C 
ATOM     17  C   UNL     1       6.640   2.674  11.480  0.00  0.00    +0.000 A 
ATOM     18  C   UNL     1       5.431   2.622  12.182  0.00  0.00    +0.000 A 
ATOM     19  C   UNL     1       5.192   3.430  13.322  0.00  0.00    +0.000 A 
ATOM     20  C   UNL     1       6.150   4.316  13.804  0.00  0.00    +0.000 A 
ATOM     21  C   UNL     1       7.356   4.392  13.073  0.00  0.00    +0.000 A 
ATOM     22  C   UNL     1       7.597   3.589  11.928  0.00  0.00    +0.000 A 
ENDBRANCH  12  20
ENDBRANCH   1  13
BRANCH   6  23
ATOM     23  O   UNL     1       2.102   4.529  21.165  0.00  0.00    +0.000 OA
BRANCH  23  24
ATOM     24  C   UNL     1       2.347   3.129  21.237  0.00  0.00    +0.000 C 
BRANCH  24  25
ATOM     25  C   UNL     1       1.852   2.432  19.974  0.00  0.00    +0.000 C 
ATOM     26  O   UNL     1       2.559   1.694  19.289  0.00  0.00    +0.000 OA
ATOM     27  N   UNL     1       0.533   2.666  19.669  0.00  0.00    +0.000 N 
ATOM     28  H   UNL     1       0.016   3.433  20.093  0.00  0.00    +0.000 HD
BRANCH  27  29
ATOM     29  O   UNL     1       0.066   2.153  18.440  0.00  0.00    +0.000 OA
ATOM     30  H   UNL     1      -0.542   2.860  18.134  0.00  0.00    +0.000 HD
ENDBRANCH  27  29
ENDBRANCH  24  25
ENDBRANCH  23  24
ENDBRANCH   6  23
TORSDOF 6
ENDMDL
