MODEL 1
REMARK VINA RESULT:      -8.7      0.000      0.000
REMARK  Name = 
REMARK  5 active torsions:
REMARK  status: ('A' for Active; 'I' for Inactive)
REMARK    1  A    between atoms: C_1  and  C_2
REMARK    2  A    between atoms: C_4  and  C_5
REMARK    3  A    between atoms: C_7  and  C_8
REMARK    4  A    between atoms: N_10  and  C_11
REMARK    5  A    between atoms: C_11  and  C_12
REMARK                            x       y       z     vdW  Elec       q    Type
REMARK                         _______ _______ _______ _____ _____    ______ ____
ROOT
ATOM      1  C   UNL     1       6.742   6.883  17.520  0.00  0.00    +0.000 C 
ATOM      2  O   UNL     1       6.422   7.104  16.346  0.00  0.00    +0.000 OA
ATOM      3  N   UNL     1       5.907   6.200  18.393  0.00  0.00    +0.000 N 
ATOM      4  C   UNL     1       4.510   6.320  18.078  0.00  0.00    +0.000 C 
ATOM      5  C   UNL     1       3.651   5.739  19.180  0.00  0.00    +0.000 C 
ATOM      6  C   UNL     1       3.798   4.212  19.102  0.00  0.00    +0.000 C 
ATOM      7  C   UNL     1       5.305   3.893  19.395  0.00  0.00    +0.000 C 
ATOM      8  C   UNL     1       6.292   5.129  19.336  0.00  0.00    +0.000 C 
ATOM      9  N   UNL     1       3.450   3.711  17.711  0.00  0.00    +0.000 NA
ATOM     10  C   UNL     1       2.115   4.188  17.257  0.00  0.00    +0.000 C 
ATOM     11  C   UNL     1       0.922   3.822  18.178  0.00  0.00    +0.000 C 
ATOM     12  C   UNL     1       1.424   3.437  19.523  0.00  0.00    +0.000 A 
ATOM     13  N   UNL     1       0.724   2.864  20.537  0.00  0.00    +0.000 N 
ATOM     14  C   UNL     1       1.630   2.600  21.531  0.00  0.00    +0.000 A 
ATOM     15  N   UNL     1       2.846   3.025  21.227  0.00  0.00    +0.000 NA
ATOM     16  C   UNL     1       2.730   3.567  19.972  0.00  0.00    +0.000 A 
ATOM     17  H   UNL     1       3.424   2.690  17.765  0.00  0.00    +0.000 HD
ATOM     18  H   UNL     1      -0.259   2.634  20.541  0.00  0.00    +0.000 HD
ENDROOT
BRANCH   1  19
ATOM     19  C   UNL     1       8.028   7.482  18.057  0.00  0.00    +0.000 C 
BRANCH  19  22
ATOM     20  C   UNL     1       8.835   9.727  18.518  0.00  0.00    +0.000 C 
ATOM     21  O   UNL     1       9.350   9.341  19.565  0.00  0.00    +0.000 OA
ATOM     22  N   UNL     1       8.155   8.873  17.689  0.00  0.00    +0.000 N 
ATOM     23  H   UNL     1       7.705   9.171  16.836  0.00  0.00    +0.000 HD
BRANCH  20  30
ATOM     24  C   UNL     1       6.965  14.346  17.525  0.00  0.00    +0.000 C 
ATOM     25  C   UNL     1       8.115  13.385  17.627  0.00  0.00    +0.000 A 
ATOM     26  C   UNL     1       9.409  13.791  17.272  0.00  0.00    +0.000 A 
ATOM     27  C   UNL     1      10.483  12.904  17.348  0.00  0.00    +0.000 A 
ATOM     28  C   UNL     1      11.873  13.312  16.961  0.00  0.00    +0.000 C 
ATOM     29  C   UNL     1      10.253  11.598  17.786  0.00  0.00    +0.000 A 
ATOM     30  C   UNL     1       8.965  11.158  18.131  0.00  0.00    +0.000 A 
ATOM     31  C   UNL     1       7.903  12.065  18.056  0.00  0.00    +0.000 A 
ENDBRANCH  20  30
ENDBRANCH  19  22
ENDBRANCH   1  19
TORSDOF 3
ENDMDL
MODEL 2
REMARK VINA RESULT:      -8.5      5.864      8.349
REMARK  Name = 
REMARK  5 active torsions:
REMARK  status: ('A' for Active; 'I' for Inactive)
REMARK    1  A    between atoms: C_1  and  C_2
REMARK    2  A    between atoms: C_4  and  C_5
REMARK    3  A    between atoms: C_7  and  C_8
REMARK    4  A    between atoms: N_10  and  C_11
REMARK    5  A    between atoms: C_11  and  C_12
REMARK                            x       y       z     vdW  Elec       q    Type
REMARK                         _______ _______ _______ _____ _____    ______ ____
ROOT
ATOM      1  C   UNL     1       1.753   9.203  19.020  0.00  0.00    +0.000 C 
ATOM      2  O   UNL     1       2.372   9.895  18.205  0.00  0.00    +0.000 OA
ATOM      3  N   UNL     1       1.897   7.823  19.071  0.00  0.00    +0.000 N 
ATOM      4  C   UNL     1       2.272   7.229  17.817  0.00  0.00    +0.000 C 
ATOM      5  C   UNL     1       2.200   5.719  17.887  0.00  0.00    +0.000 C 
ATOM      6  C   UNL     1       3.383   5.256  18.751  0.00  0.00    +0.000 C 
ATOM      7  C   UNL     1       3.152   5.854  20.183  0.00  0.00    +0.000 C 
ATOM      8  C   UNL     1       2.055   6.991  20.282  0.00  0.00    +0.000 C 
ATOM      9  N   UNL     1       4.693   5.794  18.199  0.00  0.00    +0.000 NA
ATOM     10  C   UNL     1       4.869   5.474  16.756  0.00  0.00    +0.000 C 
ATOM     11  C   UNL     1       4.811   3.968  16.389  0.00  0.00    +0.000 C 
ATOM     12  C   UNL     1       4.176   3.206  17.494  0.00  0.00    +0.000 A 
ATOM     13  N   UNL     1       4.121   1.856  17.648  0.00  0.00    +0.000 N 
ATOM     14  C   UNL     1       3.532   1.628  18.864  0.00  0.00    +0.000 A 
ATOM     15  N   UNL     1       3.160   2.751  19.459  0.00  0.00    +0.000 NA
ATOM     16  C   UNL     1       3.545   3.751  18.602  0.00  0.00    +0.000 A 
ATOM     17  H   UNL     1       5.442   5.336  18.723  0.00  0.00    +0.000 HD
ATOM     18  H   UNL     1       4.486   1.159  17.014  0.00  0.00    +0.000 HD
ENDROOT
BRANCH   1  19
ATOM     19  C   UNL     1       0.714   9.863  19.907  0.00  0.00    +0.000 C 
BRANCH  19  22
ATOM     20  C   UNL     1      -0.920  11.139  18.643  0.00  0.00    +0.000 C 
ATOM     21  O   UNL     1      -0.179  12.120  18.648  0.00  0.00    +0.000 OA
ATOM     22  N   UNL     1      -0.563   9.960  19.241  0.00  0.00    +0.000 N 
ATOM     23  H   UNL     1      -1.165   9.149  19.269  0.00  0.00    +0.000 HD
BRANCH  20  30
ATOM     24  C   UNL     1      -5.877  12.241  18.460  0.00  0.00    +0.000 C 
ATOM     25  C   UNL     1      -4.619  11.726  17.823  0.00  0.00    +0.000 A 
ATOM     26  C   UNL     1      -4.646  11.215  16.518  0.00  0.00    +0.000 A 
ATOM     27  C   UNL     1      -3.487  10.720  15.919  0.00  0.00    +0.000 A 
ATOM     28  C   UNL     1      -3.495  10.156  14.529  0.00  0.00    +0.000 C 
ATOM     29  C   UNL     1      -2.291  10.742  16.640  0.00  0.00    +0.000 A 
ATOM     30  C   UNL     1      -2.237  11.231  17.954  0.00  0.00    +0.000 A 
ATOM     31  C   UNL     1      -3.408  11.730  18.533  0.00  0.00    +0.000 A 
ENDBRANCH  20  30
ENDBRANCH  19  22
ENDBRANCH   1  19
TORSDOF 3
ENDMDL
MODEL 3
REMARK VINA RESULT:      -8.4      5.834      8.460
REMARK  Name = 
REMARK  5 active torsions:
REMARK  status: ('A' for Active; 'I' for Inactive)
REMARK    1  A    between atoms: C_1  and  C_2
REMARK    2  A    between atoms: C_4  and  C_5
REMARK    3  A    between atoms: C_7  and  C_8
REMARK    4  A    between atoms: N_10  and  C_11
REMARK    5  A    between atoms: C_11  and  C_12
REMARK                            x       y       z     vdW  Elec       q    Type
REMARK                         _______ _______ _______ _____ _____    ______ ____
ROOT
ATOM      1  C   UNL     1       1.764   9.170  19.170  0.00  0.00    +0.000 C 
ATOM      2  O   UNL     1       2.497   9.884  18.476  0.00  0.00    +0.000 OA
ATOM      3  N   UNL     1       1.861   7.786  19.156  0.00  0.00    +0.000 N 
ATOM      4  C   UNL     1       2.368   7.249  17.922  0.00  0.00    +0.000 C 
ATOM      5  C   UNL     1       2.246   5.741  17.894  0.00  0.00    +0.000 C 
ATOM      6  C   UNL     1       3.302   5.189  18.864  0.00  0.00    +0.000 C 
ATOM      7  C   UNL     1       2.916   5.715  20.290  0.00  0.00    +0.000 C 
ATOM      8  C   UNL     1       1.848   6.883  20.326  0.00  0.00    +0.000 C 
ATOM      9  N   UNL     1       4.683   5.710  18.504  0.00  0.00    +0.000 NA
ATOM     10  C   UNL     1       5.023   5.464  17.076  0.00  0.00    +0.000 C 
ATOM     11  C   UNL     1       4.967   3.984  16.617  0.00  0.00    +0.000 C 
ATOM     12  C   UNL     1       4.181   3.184  17.592  0.00  0.00    +0.000 A 
ATOM     13  N   UNL     1       4.070   1.831  17.657  0.00  0.00    +0.000 N 
ATOM     14  C   UNL     1       3.332   1.557  18.779  0.00  0.00    +0.000 A 
ATOM     15  N   UNL     1       2.923   2.658  19.391  0.00  0.00    +0.000 NA
ATOM     16  C   UNL     1       3.437   3.690  18.647  0.00  0.00    +0.000 A 
ATOM     17  H   UNL     1       5.350   5.197  19.085  0.00  0.00    +0.000 HD
ATOM     18  H   UNL     1       4.489   1.158  17.031  0.00  0.00    +0.000 HD
ENDROOT
BRANCH   1  19
ATOM     19  C   UNL     1       0.645   9.817  19.964  0.00  0.00    +0.000 C 
BRANCH  19  22
ATOM     20  C   UNL     1      -0.943  10.983  18.543  0.00  0.00    +0.000 C 
ATOM     21  O   UNL     1      -0.235  11.988  18.554  0.00  0.00    +0.000 OA
ATOM     22  N   UNL     1      -0.588   9.842  19.214  0.00  0.00    +0.000 N 
ATOM     23  H   UNL     1      -1.164   9.012  19.237  0.00  0.00    +0.000 HD
BRANCH  20  30
ATOM     24  C   UNL     1      -3.729  10.132  14.380  0.00  0.00    +0.000 C 
ATOM     25  C   UNL     1      -3.587  10.628  15.791  0.00  0.00    +0.000 A 
ATOM     26  C   UNL     1      -4.675  11.225  16.442  0.00  0.00    +0.000 A 
ATOM     27  C   UNL     1      -4.552  11.703  17.747  0.00  0.00    +0.000 A 
ATOM     28  C   UNL     1      -5.698  12.358  18.459  0.00  0.00    +0.000 C 
ATOM     29  C   UNL     1      -3.325  11.577  18.401  0.00  0.00    +0.000 A 
ATOM     30  C   UNL     1      -2.214  11.000  17.768  0.00  0.00    +0.000 A 
ATOM     31  C   UNL     1      -2.359  10.519  16.463  0.00  0.00    +0.000 A 
ENDBRANCH  20  30
ENDBRANCH  19  22
ENDBRANCH   1  19
TORSDOF 3
ENDMDL
MODEL 4
REMARK VINA RESULT:      -8.2      5.820      8.325
REMARK  Name = 
REMARK  5 active torsions:
REMARK  status: ('A' for Active; 'I' for Inactive)
REMARK    1  A    between atoms: C_1  and  C_2
REMARK    2  A    between atoms: C_4  and  C_5
REMARK    3  A    between atoms: C_7  and  C_8
REMARK    4  A    between atoms: N_10  and  C_11
REMARK    5  A    between atoms: C_11  and  C_12
REMARK                            x       y       z     vdW  Elec       q    Type
REMARK                         _______ _______ _______ _____ _____    ______ ____
ROOT
ATOM      1  C   UNL     1       1.438   8.732  19.597  0.00  0.00    +0.000 C 
ATOM      2  O   UNL     1       0.973   8.840  20.738  0.00  0.00    +0.000 OA
ATOM      3  N   UNL     1       2.031   7.558  19.155  0.00  0.00    +0.000 N 
ATOM      4  C   UNL     1       2.609   6.765  20.206  0.00  0.00    +0.000 C 
ATOM      5  C   UNL     1       3.420   5.619  19.640  0.00  0.00    +0.000 C 
ATOM      6  C   UNL     1       2.420   4.601  19.073  0.00  0.00    +0.000 C 
ATOM      7  C   UNL     1       1.659   5.323  17.907  0.00  0.00    +0.000 C 
ATOM      8  C   UNL     1       1.827   6.896  17.849  0.00  0.00    +0.000 C 
ATOM      9  N   UNL     1       1.416   4.188  20.136  0.00  0.00    +0.000 NA
ATOM     10  C   UNL     1       2.078   3.718  21.383  0.00  0.00    +0.000 C 
ATOM     11  C   UNL     1       3.066   2.534  21.215  0.00  0.00    +0.000 C 
ATOM     12  C   UNL     1       3.454   2.402  19.787  0.00  0.00    +0.000 A 
ATOM     13  N   UNL     1       4.133   1.380  19.203  0.00  0.00    +0.000 N 
ATOM     14  C   UNL     1       4.159   1.650  17.859  0.00  0.00    +0.000 A 
ATOM     15  N   UNL     1       3.589   2.810  17.571  0.00  0.00    +0.000 NA
ATOM     16  C   UNL     1       3.153   3.301  18.775  0.00  0.00    +0.000 A 
ATOM     17  H   UNL     1       0.879   3.411  19.745  0.00  0.00    +0.000 HD
ATOM     18  H   UNL     1       4.504   0.559  19.660  0.00  0.00    +0.000 HD
ENDROOT
BRANCH   1  19
ATOM     19  C   UNL     1       1.472   9.952  18.697  0.00  0.00    +0.000 C 
BRANCH  19  22
ATOM     20  C   UNL     1      -0.783  10.850  18.604  0.00  0.00    +0.000 C 
ATOM     21  O   UNL     1      -0.643  11.356  19.716  0.00  0.00    +0.000 OA
ATOM     22  N   UNL     1       0.218  10.132  18.005  0.00  0.00    +0.000 N 
ATOM     23  H   UNL     1       0.117   9.688  17.103  0.00  0.00    +0.000 HD
BRANCH  20  30
ATOM     24  C   UNL     1      -5.649  12.284  18.301  0.00  0.00    +0.000 C 
ATOM     25  C   UNL     1      -4.411  11.689  17.693  0.00  0.00    +0.000 A 
ATOM     26  C   UNL     1      -4.437  11.190  16.383  0.00  0.00    +0.000 A 
ATOM     27  C   UNL     1      -3.299  10.622  15.811  0.00  0.00    +0.000 A 
ATOM     28  C   UNL     1      -3.307  10.070  14.417  0.00  0.00    +0.000 C 
ATOM     29  C   UNL     1      -2.124  10.558  16.563  0.00  0.00    +0.000 A 
ATOM     30  C   UNL     1      -2.072  11.034  17.882  0.00  0.00    +0.000 A 
ATOM     31  C   UNL     1      -3.222  11.607  18.435  0.00  0.00    +0.000 A 
ENDBRANCH  20  30
ENDBRANCH  19  22
ENDBRANCH   1  19
TORSDOF 3
ENDMDL
MODEL 5
REMARK VINA RESULT:      -8.0      8.696     10.763
REMARK  Name = 
REMARK  5 active torsions:
REMARK  status: ('A' for Active; 'I' for Inactive)
REMARK    1  A    between atoms: C_1  and  C_2
REMARK    2  A    between atoms: C_4  and  C_5
REMARK    3  A    between atoms: C_7  and  C_8
REMARK    4  A    between atoms: N_10  and  C_11
REMARK    5  A    between atoms: C_11  and  C_12
REMARK                            x       y       z     vdW  Elec       q    Type
REMARK                         _______ _______ _______ _____ _____    ______ ____
ROOT
ATOM      1  C   UNL     1      -0.723  11.168  19.712  0.00  0.00    +0.000 C 
ATOM      2  O   UNL     1      -1.574  10.484  19.133  0.00  0.00    +0.000 OA
ATOM      3  N   UNL     1      -1.068  12.136  20.645  0.00  0.00    +0.000 N 
ATOM      4  C   UNL     1      -2.374  12.700  20.444  0.00  0.00    +0.000 C 
ATOM      5  C   UNL     1      -2.600  13.889  21.353  0.00  0.00    +0.000 C 
ATOM      6  C   UNL     1      -2.779  13.336  22.775  0.00  0.00    +0.000 C 
ATOM      7  C   UNL     1      -1.426  12.640  23.156  0.00  0.00    +0.000 C 
ATOM      8  C   UNL     1      -0.429  12.374  21.956  0.00  0.00    +0.000 C 
ATOM      9  N   UNL     1      -3.892  12.303  22.811  0.00  0.00    +0.000 NA
ATOM     10  C   UNL     1      -5.160  12.820  22.227  0.00  0.00    +0.000 C 
ATOM     11  C   UNL     1      -5.723  14.110  22.878  0.00  0.00    +0.000 C 
ATOM     12  C   UNL     1      -4.657  14.783  23.665  0.00  0.00    +0.000 A 
ATOM     13  N   UNL     1      -4.796  15.816  24.536  0.00  0.00    +0.000 N 
ATOM     14  C   UNL     1      -3.561  16.021  25.095  0.00  0.00    +0.000 A 
ATOM     15  N   UNL     1      -2.641  15.217  24.583  0.00  0.00    +0.000 NA
ATOM     16  C   UNL     1      -3.313  14.442  23.672  0.00  0.00    +0.000 A 
ATOM     17  H   UNL     1      -4.058  12.086  23.796  0.00  0.00    +0.000 HD
ATOM     18  H   UNL     1      -5.649  16.306  24.765  0.00  0.00    +0.000 HD
ENDROOT
BRANCH   1  19
ATOM     19  C   UNL     1       0.732  11.033  19.303  0.00  0.00    +0.000 C 
BRANCH  19  22
ATOM     20  C   UNL     1       1.888   9.072  18.455  0.00  0.00    +0.000 C 
ATOM     21  O   UNL     1       2.120   9.650  17.395  0.00  0.00    +0.000 OA
ATOM     22  N   UNL     1       1.205   9.680  19.476  0.00  0.00    +0.000 N 
ATOM     23  H   UNL     1       0.983   9.218  20.346  0.00  0.00    +0.000 HD
BRANCH  20  30
ATOM     24  C   UNL     1       2.228   4.688  21.001  0.00  0.00    +0.000 C 
ATOM     25  C   UNL     1       2.585   5.565  19.835  0.00  0.00    +0.000 A 
ATOM     26  C   UNL     1       3.495   5.116  18.867  0.00  0.00    +0.000 A 
ATOM     27  C   UNL     1       3.846   5.926  17.786  0.00  0.00    +0.000 A 
ATOM     28  C   UNL     1       4.827   5.473  16.746  0.00  0.00    +0.000 C 
ATOM     29  C   UNL     1       3.276   7.196  17.679  0.00  0.00    +0.000 A 
ATOM     30  C   UNL     1       2.376   7.679  18.642  0.00  0.00    +0.000 A 
ATOM     31  C   UNL     1       2.031   6.849  19.713  0.00  0.00    +0.000 A 
ENDBRANCH  20  30
ENDBRANCH  19  22
ENDBRANCH   1  19
TORSDOF 3
ENDMDL
MODEL 6
REMARK VINA RESULT:      -8.0      5.782      8.348
REMARK  Name = 
REMARK  5 active torsions:
REMARK  status: ('A' for Active; 'I' for Inactive)
REMARK    1  A    between atoms: C_1  and  C_2
REMARK    2  A    between atoms: C_4  and  C_5
REMARK    3  A    between atoms: C_7  and  C_8
REMARK    4  A    between atoms: N_10  and  C_11
REMARK    5  A    between atoms: C_11  and  C_12
REMARK                            x       y       z     vdW  Elec       q    Type
REMARK                         _______ _______ _______ _____ _____    ______ ____
ROOT
ATOM      1  C   UNL     1       2.259   9.570  18.351  0.00  0.00    +0.000 C 
ATOM      2  O   UNL     1       3.139   9.924  17.559  0.00  0.00    +0.000 OA
ATOM      3  N   UNL     1       2.023   8.233  18.637  0.00  0.00    +0.000 N 
ATOM      4  C   UNL     1       2.384   7.336  17.572  0.00  0.00    +0.000 C 
ATOM      5  C   UNL     1       1.905   5.929  17.860  0.00  0.00    +0.000 C 
ATOM      6  C   UNL     1       2.802   5.372  18.976  0.00  0.00    +0.000 C 
ATOM      7  C   UNL     1       2.557   6.272  20.237  0.00  0.00    +0.000 C 
ATOM      8  C   UNL     1       1.798   7.635  19.970  0.00  0.00    +0.000 C 
ATOM      9  N   UNL     1       4.266   5.464  18.582  0.00  0.00    +0.000 NA
ATOM     10  C   UNL     1       4.535   4.840  17.258  0.00  0.00    +0.000 C 
ATOM     11  C   UNL     1       4.126   3.350  17.122  0.00  0.00    +0.000 C 
ATOM     12  C   UNL     1       3.174   2.989  18.204  0.00  0.00    +0.000 A 
ATOM     13  N   UNL     1       2.744   1.747  18.551  0.00  0.00    +0.000 N 
ATOM     14  C   UNL     1       1.965   1.905  19.668  0.00  0.00    +0.000 A 
ATOM     15  N   UNL     1       1.831   3.177  20.010  0.00  0.00    +0.000 NA
ATOM     16  C   UNL     1       2.575   3.873  19.090  0.00  0.00    +0.000 A 
ATOM     17  H   UNL     1       4.794   4.950  19.292  0.00  0.00    +0.000 HD
ATOM     18  H   UNL     1       2.988   0.875  18.105  0.00  0.00    +0.000 HD
ENDROOT
BRANCH   1  19
ATOM     19  C   UNL     1       1.329  10.617  18.933  0.00  0.00    +0.000 C 
BRANCH  19  22
ATOM     20  C   UNL     1      -1.072  10.460  18.600  0.00  0.00    +0.000 C 
ATOM     21  O   UNL     1      -1.214  10.009  19.735  0.00  0.00    +0.000 OA
ATOM     22  N   UNL     1       0.160  10.801  18.106  0.00  0.00    +0.000 N 
ATOM     23  H   UNL     1       0.302  11.152  17.170  0.00  0.00    +0.000 HD
BRANCH  20  30
ATOM     24  C   UNL     1      -3.619  10.138  14.216  0.00  0.00    +0.000 C 
ATOM     25  C   UNL     1      -3.530  10.541  15.660  0.00  0.00    +0.000 A 
ATOM     26  C   UNL     1      -4.594  11.219  16.271  0.00  0.00    +0.000 A 
ATOM     27  C   UNL     1      -4.518  11.611  17.608  0.00  0.00    +0.000 A 
ATOM     28  C   UNL     1      -5.638  12.349  18.279  0.00  0.00    +0.000 C 
ATOM     29  C   UNL     1      -3.362  11.318  18.334  0.00  0.00    +0.000 A 
ATOM     30  C   UNL     1      -2.274  10.657  17.744  0.00  0.00    +0.000 A 
ATOM     31  C   UNL     1      -2.373  10.264  16.405  0.00  0.00    +0.000 A 
ENDBRANCH  20  30
ENDBRANCH  19  22
ENDBRANCH   1  19
TORSDOF 3
ENDMDL
MODEL 7
REMARK VINA RESULT:      -7.9      6.673      9.145
REMARK  Name = 
REMARK  5 active torsions:
REMARK  status: ('A' for Active; 'I' for Inactive)
REMARK    1  A    between atoms: C_1  and  C_2
REMARK    2  A    between atoms: C_4  and  C_5
REMARK    3  A    between atoms: C_7  and  C_8
REMARK    4  A    between atoms: N_10  and  C_11
REMARK    5  A    between atoms: C_11  and  C_12
REMARK                            x       y       z     vdW  Elec       q    Type
REMARK                         _______ _______ _______ _____ _____    ______ ____
ROOT
ATOM      1  C   UNL     1       1.633   9.644  18.150  0.00  0.00    +0.000 C 
ATOM      2  O   UNL     1       2.467  10.245  17.463  0.00  0.00    +0.000 OA
ATOM      3  N   UNL     1       0.684  10.316  18.907  0.00  0.00    +0.000 N 
ATOM      4  C   UNL     1       1.094  11.628  19.326  0.00  0.00    +0.000 C 
ATOM      5  C   UNL     1       0.113  12.214  20.318  0.00  0.00    +0.000 C 
ATOM      6  C   UNL     1      -1.152  12.584  19.529  0.00  0.00    +0.000 C 
ATOM      7  C   UNL     1      -1.730  11.242  18.959  0.00  0.00    +0.000 C 
ATOM      8  C   UNL     1      -0.755   9.996  19.014  0.00  0.00    +0.000 C 
ATOM      9  N   UNL     1      -0.811  13.506  18.371  0.00  0.00    +0.000 NA
ATOM     10  C   UNL     1      -0.033  14.696  18.808  0.00  0.00    +0.000 C 
ATOM     11  C   UNL     1      -0.703  15.574  19.899  0.00  0.00    +0.000 C 
ATOM     12  C   UNL     1      -1.784  14.805  20.568  0.00  0.00    +0.000 A 
ATOM     13  N   UNL     1      -2.728  15.276  21.425  0.00  0.00    +0.000 N 
ATOM     14  C   UNL     1      -3.566  14.225  21.694  0.00  0.00    +0.000 A 
ATOM     15  N   UNL     1      -3.171  13.107  21.104  0.00  0.00    +0.000 NA
ATOM     16  C   UNL     1      -2.043  13.453  20.403  0.00  0.00    +0.000 A 
ATOM     17  H   UNL     1      -1.700  13.828  17.982  0.00  0.00    +0.000 HD
ATOM     18  H   UNL     1      -2.824  16.224  21.760  0.00  0.00    +0.000 HD
ENDROOT
BRANCH   1  19
ATOM     19  C   UNL     1       1.727   8.134  18.266  0.00  0.00    +0.000 C 
BRANCH  19  22
ATOM     20  C   UNL     1       3.287   6.309  17.898  0.00  0.00    +0.000 C 
ATOM     21  O   UNL     1       2.451   5.498  18.291  0.00  0.00    +0.000 OA
ATOM     22  N   UNL     1       3.020   7.652  17.843  0.00  0.00    +0.000 N 
ATOM     23  H   UNL     1       3.698   8.339  17.546  0.00  0.00    +0.000 HD
BRANCH  20  30
ATOM     24  C   UNL     1       6.427   4.056  14.600  0.00  0.00    +0.000 C 
ATOM     25  C   UNL     1       6.162   4.730  15.916  0.00  0.00    +0.000 A 
ATOM     26  C   UNL     1       7.190   4.864  16.861  0.00  0.00    +0.000 A 
ATOM     27  C   UNL     1       6.954   5.475  18.092  0.00  0.00    +0.000 A 
ATOM     28  C   UNL     1       8.034   5.618  19.123  0.00  0.00    +0.000 C 
ATOM     29  C   UNL     1       5.674   5.955  18.375  0.00  0.00    +0.000 A 
ATOM     30  C   UNL     1       4.621   5.819  17.457  0.00  0.00    +0.000 A 
ATOM     31  C   UNL     1       4.880   5.211  16.224  0.00  0.00    +0.000 A 
ENDBRANCH  20  30
ENDBRANCH  19  22
ENDBRANCH   1  19
TORSDOF 3
ENDMDL
MODEL 8
REMARK VINA RESULT:      -7.9      8.577     10.665
REMARK  Name = 
REMARK  5 active torsions:
REMARK  status: ('A' for Active; 'I' for Inactive)
REMARK    1  A    between atoms: C_1  and  C_2
REMARK    2  A    between atoms: C_4  and  C_5
REMARK    3  A    between atoms: C_7  and  C_8
REMARK    4  A    between atoms: N_10  and  C_11
REMARK    5  A    between atoms: C_11  and  C_12
REMARK                            x       y       z     vdW  Elec       q    Type
REMARK                         _______ _______ _______ _____ _____    ______ ____
ROOT
ATOM      1  C   UNL     1      -1.190  11.228  19.208  0.00  0.00    +0.000 C 
ATOM      2  O   UNL     1      -2.188  10.633  18.785  0.00  0.00    +0.000 OA
ATOM      3  N   UNL     1      -1.261  12.117  20.271  0.00  0.00    +0.000 N 
ATOM      4  C   UNL     1      -2.545  12.747  20.420  0.00  0.00    +0.000 C 
ATOM      5  C   UNL     1      -2.492  13.854  21.451  0.00  0.00    +0.000 C 
ATOM      6  C   UNL     1      -2.378  13.178  22.826  0.00  0.00    +0.000 C 
ATOM      7  C   UNL     1      -1.017  12.399  22.830  0.00  0.00    +0.000 C 
ATOM      8  C   UNL     1      -0.332  12.209  21.416  0.00  0.00    +0.000 C 
ATOM      9  N   UNL     1      -3.513  12.189  23.032  0.00  0.00    +0.000 NA
ATOM     10  C   UNL     1      -4.847  12.804  22.797  0.00  0.00    +0.000 C 
ATOM     11  C   UNL     1      -5.175  14.049  23.662  0.00  0.00    +0.000 C 
ATOM     12  C   UNL     1      -3.923  14.606  24.237  0.00  0.00    +0.000 A 
ATOM     13  N   UNL     1      -3.802  15.558  25.199  0.00  0.00    +0.000 N 
ATOM     14  C   UNL     1      -2.464  15.664  25.475  0.00  0.00    +0.000 A 
ATOM     15  N   UNL     1      -1.730  14.877  24.703  0.00  0.00    +0.000 NA
ATOM     16  C   UNL     1      -2.633  14.215  23.909  0.00  0.00    +0.000 A 
ATOM     17  H   UNL     1      -3.466  11.887  24.007  0.00  0.00    +0.000 HD
ATOM     18  H   UNL     1      -4.553  16.056  25.656  0.00  0.00    +0.000 HD
ENDROOT
BRANCH   1  19
ATOM     19  C   UNL     1       0.125  11.077  18.467  0.00  0.00    +0.000 C 
BRANCH  19  22
ATOM     20  C   UNL     1       1.910   9.469  18.112  0.00  0.00    +0.000 C 
ATOM     21  O   UNL     1       2.563  10.310  17.497  0.00  0.00    +0.000 OA
ATOM     22  N   UNL     1       0.680   9.756  18.642  0.00  0.00    +0.000 N 
ATOM     23  H   UNL     1       0.116   9.075  19.131  0.00  0.00    +0.000 HD
BRANCH  20  30
ATOM     24  C   UNL     1       4.826   5.541  16.739  0.00  0.00    +0.000 C 
ATOM     25  C   UNL     1       3.846   6.190  17.674  0.00  0.00    +0.000 A 
ATOM     26  C   UNL     1       3.343   5.480  18.773  0.00  0.00    +0.000 A 
ATOM     27  C   UNL     1       2.421   6.066  19.641  0.00  0.00    +0.000 A 
ATOM     28  C   UNL     1       1.858   5.321  20.815  0.00  0.00    +0.000 C 
ATOM     29  C   UNL     1       2.005   7.377  19.402  0.00  0.00    +0.000 A 
ATOM     30  C   UNL     1       2.478   8.106  18.300  0.00  0.00    +0.000 A 
ATOM     31  C   UNL     1       3.408   7.504  17.446  0.00  0.00    +0.000 A 
ENDBRANCH  20  30
ENDBRANCH  19  22
ENDBRANCH   1  19
TORSDOF 3
ENDMDL
MODEL 9
REMARK VINA RESULT:      -7.9      6.930      9.104
REMARK  Name = 
REMARK  5 active torsions:
REMARK  status: ('A' for Active; 'I' for Inactive)
REMARK    1  A    between atoms: C_1  and  C_2
REMARK    2  A    between atoms: C_4  and  C_5
REMARK    3  A    between atoms: C_7  and  C_8
REMARK    4  A    between atoms: N_10  and  C_11
REMARK    5  A    between atoms: C_11  and  C_12
REMARK                            x       y       z     vdW  Elec       q    Type
REMARK                         _______ _______ _______ _____ _____    ______ ____
ROOT
ATOM      1  C   UNL     1       0.725   8.555  20.894  0.00  0.00    +0.000 C 
ATOM      2  O   UNL     1      -0.192   7.897  21.399  0.00  0.00    +0.000 OA
ATOM      3  N   UNL     1       1.704   7.965  20.107  0.00  0.00    +0.000 N 
ATOM      4  C   UNL     1       1.945   6.582  20.415  0.00  0.00    +0.000 C 
ATOM      5  C   UNL     1       3.161   6.064  19.677  0.00  0.00    +0.000 C 
ATOM      6  C   UNL     1       2.763   5.930  18.199  0.00  0.00    +0.000 C 
ATOM      7  C   UNL     1       2.427   7.376  17.695  0.00  0.00    +0.000 C 
ATOM      8  C   UNL     1       2.235   8.469  18.823  0.00  0.00    +0.000 C 
ATOM      9  N   UNL     1       1.528   5.058  18.054  0.00  0.00    +0.000 NA
ATOM     10  C   UNL     1       1.683   3.743  18.734  0.00  0.00    +0.000 C 
ATOM     11  C   UNL     1       2.893   2.888  18.274  0.00  0.00    +0.000 C 
ATOM     12  C   UNL     1       3.871   3.745  17.557  0.00  0.00    +0.000 A 
ATOM     13  N   UNL     1       4.950   3.347  16.833  0.00  0.00    +0.000 N 
ATOM     14  C   UNL     1       5.483   4.480  16.276  0.00  0.00    +0.000 A 
ATOM     15  N   UNL     1       4.839   5.574  16.653  0.00  0.00    +0.000 NA
ATOM     16  C   UNL     1       3.831   5.129  17.471  0.00  0.00    +0.000 A 
ATOM     17  H   UNL     1       1.404   4.889  17.053  0.00  0.00    +0.000 HD
ATOM     18  H   UNL     1       5.270   2.398  16.693  0.00  0.00    +0.000 HD
ENDROOT
BRANCH   1  19
ATOM     19  C   UNL     1       0.857  10.024  21.246  0.00  0.00    +0.000 C 
BRANCH  19  22
ATOM     20  C   UNL     1      -0.967  11.625  21.137  0.00  0.00    +0.000 C 
ATOM     21  O   UNL     1      -0.471  12.143  20.138  0.00  0.00    +0.000 OA
ATOM     22  N   UNL     1      -0.382  10.555  21.762  0.00  0.00    +0.000 N 
ATOM     23  H   UNL     1      -0.760  10.128  22.596  0.00  0.00    +0.000 HD
BRANCH  20  30
ATOM     24  C   UNL     1      -4.305  12.524  24.860  0.00  0.00    +0.000 C 
ATOM     25  C   UNL     1      -3.887  12.603  23.420  0.00  0.00    +0.000 A 
ATOM     26  C   UNL     1      -4.754  13.144  22.461  0.00  0.00    +0.000 A 
ATOM     27  C   UNL     1      -4.383  13.210  21.118  0.00  0.00    +0.000 A 
ATOM     28  C   UNL     1      -5.300  13.772  20.072  0.00  0.00    +0.000 C 
ATOM     29  C   UNL     1      -3.129  12.729  20.738  0.00  0.00    +0.000 A 
ATOM     30  C   UNL     1      -2.247  12.165  21.673  0.00  0.00    +0.000 A 
ATOM     31  C   UNL     1      -2.634  12.116  23.016  0.00  0.00    +0.000 A 
ENDBRANCH  20  30
ENDBRANCH  19  22
ENDBRANCH   1  19
TORSDOF 3
ENDMDL
