MODEL 1
REMARK VINA RESULT:      -6.7      0.000      0.000
REMARK  Name = 
REMARK  7 active torsions:
REMARK  status: ('A' for Active; 'I' for Inactive)
REMARK    1  A    between atoms: C_2  and  C_5
REMARK    2  A    between atoms: N_3  and  O_4
REMARK    3  A    between atoms: C_8  and  C_9
REMARK    4  A    between atoms: C_9  and  N_10
REMARK    5  A    between atoms: N_10  and  C_11
REMARK    6  A    between atoms: C_11  and  C_12
REMARK    7  A    between atoms: C_12  and  C_13
REMARK                            x       y       z     vdW  Elec       q    Type
REMARK                         _______ _______ _______ _____ _____    ______ ____
ROOT
ATOM      1  C   UNL     1       5.854   5.395  17.168  0.00  0.00    +0.000 A 
ATOM      2  C   UNL     1       4.772   6.096  16.628  0.00  0.00    +0.000 A 
ATOM      3  C   UNL     1       3.718   6.487  17.456  0.00  0.00    +0.000 A 
ATOM      4  C   UNL     1       3.741   6.193  18.829  0.00  0.00    +0.000 A 
ATOM      5  C   UNL     1       4.834   5.500  19.363  0.00  0.00    +0.000 A 
ATOM      6  C   UNL     1       5.885   5.104  18.538  0.00  0.00    +0.000 A 
ENDROOT
BRANCH   1   8
ATOM      7  O   UNL     1       7.873   4.260  16.670  0.00  0.00    +0.000 OA
ATOM      8  C   UNL     1       6.977   5.002  16.282  0.00  0.00    +0.000 C 
ATOM      9  N   UNL     1       6.964   5.552  15.022  0.00  0.00    +0.000 N 
ATOM     10  H   UNL     1       6.475   6.417  14.820  0.00  0.00    +0.000 HD
BRANCH   9  11
ATOM     11  O   UNL     1       8.109   5.283  14.237  0.00  0.00    +0.000 OA
ATOM     12  H   UNL     1       7.717   4.862  13.439  0.00  0.00    +0.000 HD
ENDBRANCH   9  11
ENDBRANCH   1   8
BRANCH   4  13
ATOM     13  C   UNL     1       2.643   6.693  19.732  0.00  0.00    +0.000 C 
BRANCH  13  14
ATOM     14  N   UNL     1       2.206   5.667  20.679  0.00  0.00    +0.000 NA
ATOM     15  H   UNL     1       2.317   6.034  21.625  0.00  0.00    +0.000 HD
BRANCH  14  16
ATOM     16  C   UNL     1       0.803   5.284  20.473  0.00  0.00    +0.000 C 
BRANCH  16  17
ATOM     17  C   UNL     1       0.639   3.786  20.182  0.00  0.00    +0.000 C 
BRANCH  17  18
ATOM     18  C   UNL     1       1.768   3.207  19.374  0.00  0.00    +0.000 A 
ATOM     19  C   UNL     1       1.779   3.330  17.980  0.00  0.00    +0.000 A 
ATOM     20  C   UNL     1       2.795   2.739  17.228  0.00  0.00    +0.000 A 
ATOM     21  C   UNL     1       3.812   2.028  17.864  0.00  0.00    +0.000 A 
ATOM     22  C   UNL     1       3.816   1.920  19.254  0.00  0.00    +0.000 A 
ATOM     23 CL   UNL     1       5.065   1.036  20.040  0.00  0.00    +0.000 Cl
ATOM     24  C   UNL     1       2.805   2.508  20.010  0.00  0.00    +0.000 A 
ENDBRANCH  17  18
ENDBRANCH  16  17
ENDBRANCH  14  16
ENDBRANCH  13  14
ENDBRANCH   4  13
TORSDOF 7
ENDMDL
MODEL 2
REMARK VINA RESULT:      -6.6      2.753      4.276
REMARK  Name = 
REMARK  7 active torsions:
REMARK  status: ('A' for Active; 'I' for Inactive)
REMARK    1  A    between atoms: C_2  and  C_5
REMARK    2  A    between atoms: N_3  and  O_4
REMARK    3  A    between atoms: C_8  and  C_9
REMARK    4  A    between atoms: C_9  and  N_10
REMARK    5  A    between atoms: N_10  and  C_11
REMARK    6  A    between atoms: C_11  and  C_12
REMARK    7  A    between atoms: C_12  and  C_13
REMARK                            x       y       z     vdW  Elec       q    Type
REMARK                         _______ _______ _______ _____ _____    ______ ____
ROOT
ATOM      1  C   UNL     1       5.581   4.371  17.510  0.00  0.00    +0.000 A 
ATOM      2  C   UNL     1       5.570   3.931  18.837  0.00  0.00    +0.000 A 
ATOM      3  C   UNL     1       4.459   3.245  19.328  0.00  0.00    +0.000 A 
ATOM      4  C   UNL     1       3.357   2.980  18.498  0.00  0.00    +0.000 A 
ATOM      5  C   UNL     1       3.382   3.415  17.169  0.00  0.00    +0.000 A 
ATOM      6  C   UNL     1       4.488   4.106  16.676  0.00  0.00    +0.000 A 
ENDROOT
BRANCH   1   8
ATOM      7  O   UNL     1       7.809   4.484  16.711  0.00  0.00    +0.000 OA
ATOM      8  C   UNL     1       6.777   5.083  16.995  0.00  0.00    +0.000 C 
ATOM      9  N   UNL     1       6.662   6.450  16.895  0.00  0.00    +0.000 N 
ATOM     10  H   UNL     1       5.996   6.974  17.452  0.00  0.00    +0.000 HD
BRANCH   9  11
ATOM     11  O   UNL     1       7.850   7.128  16.537  0.00  0.00    +0.000 OA
ATOM     12  H   UNL     1       8.541   6.558  16.943  0.00  0.00    +0.000 HD
ENDBRANCH   9  11
ENDBRANCH   1   8
BRANCH   4  13
ATOM     13  C   UNL     1       2.198   2.163  19.010  0.00  0.00    +0.000 C 
BRANCH  13  14
ATOM     14  N   UNL     1       1.715   2.652  20.301  0.00  0.00    +0.000 NA
ATOM     15  H   UNL     1       2.509   2.713  20.940  0.00  0.00    +0.000 HD
BRANCH  14  16
ATOM     16  C   UNL     1       1.083   3.974  20.192  0.00  0.00    +0.000 C 
BRANCH  16  17
ATOM     17  C   UNL     1       1.915   5.081  20.854  0.00  0.00    +0.000 C 
BRANCH  17  18
ATOM     18  C   UNL     1       1.901   6.376  20.089  0.00  0.00    +0.000 A 
ATOM     19  C   UNL     1       2.454   6.448  18.804  0.00  0.00    +0.000 A 
ATOM     20  C   UNL     1       2.495   7.664  18.122  0.00  0.00    +0.000 A 
ATOM     21  C   UNL     1       1.978   8.816  18.714  0.00  0.00    +0.000 A 
ATOM     22  C   UNL     1       1.409   8.745  19.984  0.00  0.00    +0.000 A 
ATOM     23 CL   UNL     1       0.778  10.167  20.720  0.00  0.00    +0.000 Cl
ATOM     24  C   UNL     1       1.364   7.534  20.670  0.00  0.00    +0.000 A 
ENDBRANCH  17  18
ENDBRANCH  16  17
ENDBRANCH  14  16
ENDBRANCH  13  14
ENDBRANCH   4  13
TORSDOF 7
ENDMDL
MODEL 3
REMARK VINA RESULT:      -6.5      3.215      4.851
REMARK  Name = 
REMARK  7 active torsions:
REMARK  status: ('A' for Active; 'I' for Inactive)
REMARK    1  A    between atoms: C_2  and  C_5
REMARK    2  A    between atoms: N_3  and  O_4
REMARK    3  A    between atoms: C_8  and  C_9
REMARK    4  A    between atoms: C_9  and  N_10
REMARK    5  A    between atoms: N_10  and  C_11
REMARK    6  A    between atoms: C_11  and  C_12
REMARK    7  A    between atoms: C_12  and  C_13
REMARK                            x       y       z     vdW  Elec       q    Type
REMARK                         _______ _______ _______ _____ _____    ______ ____
ROOT
ATOM      1  C   UNL     1       2.156   6.607  18.471  0.00  0.00    +0.000 A 
ATOM      2  C   UNL     1       2.338   6.332  19.830  0.00  0.00    +0.000 A 
ATOM      3  C   UNL     1       1.982   5.081  20.335  0.00  0.00    +0.000 A 
ATOM      4  C   UNL     1       1.456   4.090  19.489  0.00  0.00    +0.000 A 
ATOM      5  C   UNL     1       1.288   4.372  18.128  0.00  0.00    +0.000 A 
ATOM      6  C   UNL     1       1.636   5.623  17.621  0.00  0.00    +0.000 A 
ENDROOT
BRANCH   1   8
ATOM      7  O   UNL     1       3.724   8.196  17.678  0.00  0.00    +0.000 OA
ATOM      8  C   UNL     1       2.554   7.935  17.943  0.00  0.00    +0.000 C 
ATOM      9  N   UNL     1       1.541   8.854  17.809  0.00  0.00    +0.000 N 
ATOM     10  H   UNL     1       0.686   8.793  18.351  0.00  0.00    +0.000 HD
BRANCH   9  11
ATOM     11  O   UNL     1       1.955  10.156  17.440  0.00  0.00    +0.000 OA
ATOM     12  H   UNL     1       1.121  10.670  17.533  0.00  0.00    +0.000 HD
ENDBRANCH   9  11
ENDBRANCH   1   8
BRANCH   4  13
ATOM     13  C   UNL     1       1.157   2.713  20.023  0.00  0.00    +0.000 C 
BRANCH  13  14
ATOM     14  N   UNL     1       1.674   1.664  19.145  0.00  0.00    +0.000 NA
ATOM     15  H   UNL     1       1.382   1.871  18.189  0.00  0.00    +0.000 HD
BRANCH  14  16
ATOM     16  C   UNL     1       3.140   1.575  19.191  0.00  0.00    +0.000 C 
BRANCH  16  17
ATOM     17  C   UNL     1       3.793   1.907  17.842  0.00  0.00    +0.000 C 
BRANCH  17  18
ATOM     18  C   UNL     1       4.528   3.220  17.842  0.00  0.00    +0.000 A 
ATOM     19  C   UNL     1       5.081   3.724  19.025  0.00  0.00    +0.000 A 
ATOM     20  C   UNL     1       5.708   4.970  19.035  0.00  0.00    +0.000 A 
ATOM     21  C   UNL     1       5.794   5.719  17.861  0.00  0.00    +0.000 A 
ATOM     22  C   UNL     1       5.262   5.212  16.677  0.00  0.00    +0.000 A 
ATOM     23 CL   UNL     1       5.360   6.137  15.229  0.00  0.00    +0.000 Cl
ATOM     24  C   UNL     1       4.636   3.968  16.660  0.00  0.00    +0.000 A 
ENDBRANCH  17  18
ENDBRANCH  16  17
ENDBRANCH  14  16
ENDBRANCH  13  14
ENDBRANCH   4  13
TORSDOF 7
ENDMDL
MODEL 4
REMARK VINA RESULT:      -6.3      3.222      4.762
REMARK  Name = 
REMARK  7 active torsions:
REMARK  status: ('A' for Active; 'I' for Inactive)
REMARK    1  A    between atoms: C_2  and  C_5
REMARK    2  A    between atoms: N_3  and  O_4
REMARK    3  A    between atoms: C_8  and  C_9
REMARK    4  A    between atoms: C_9  and  N_10
REMARK    5  A    between atoms: N_10  and  C_11
REMARK    6  A    between atoms: C_11  and  C_12
REMARK    7  A    between atoms: C_12  and  C_13
REMARK                            x       y       z     vdW  Elec       q    Type
REMARK                         _______ _______ _______ _____ _____    ______ ____
ROOT
ATOM      1  C   UNL     1       2.174   6.837  18.489  0.00  0.00    +0.000 A 
ATOM      2  C   UNL     1       2.335   6.781  19.877  0.00  0.00    +0.000 A 
ATOM      3  C   UNL     1       2.067   5.592  20.557  0.00  0.00    +0.000 A 
ATOM      4  C   UNL     1       1.649   4.447  19.858  0.00  0.00    +0.000 A 
ATOM      5  C   UNL     1       1.501   4.510  18.468  0.00  0.00    +0.000 A 
ATOM      6  C   UNL     1       1.762   5.698  17.786  0.00  0.00    +0.000 A 
ENDROOT
BRANCH   1   8
ATOM      7  O   UNL     1       3.466   8.210  17.055  0.00  0.00    +0.000 OA
ATOM      8  C   UNL     1       2.480   8.102  17.777  0.00  0.00    +0.000 C 
ATOM      9  N   UNL     1       1.613   9.144  18.009  0.00  0.00    +0.000 N 
ATOM     10  H   UNL     1       1.047   9.193  18.849  0.00  0.00    +0.000 HD
BRANCH   9  11
ATOM     11  O   UNL     1       1.993  10.380  17.437  0.00  0.00    +0.000 OA
ATOM     12  H   UNL     1       1.490  10.378  16.591  0.00  0.00    +0.000 HD
ENDBRANCH   9  11
ENDBRANCH   1   8
BRANCH   4  13
ATOM     13  C   UNL     1       1.447   3.143  20.586  0.00  0.00    +0.000 C 
BRANCH  13  14
ATOM     14  N   UNL     1       2.718   2.484  20.887  0.00  0.00    +0.000 NA
ATOM     15  H   UNL     1       2.518   1.570  21.296  0.00  0.00    +0.000 HD
BRANCH  14  16
ATOM     16  C   UNL     1       3.546   2.303  19.687  0.00  0.00    +0.000 C 
BRANCH  16  17
ATOM     17  C   UNL     1       4.831   3.140  19.727  0.00  0.00    +0.000 C 
BRANCH  17  18
ATOM     18  C   UNL     1       5.047   3.961  18.484  0.00  0.00    +0.000 A 
ATOM     19  C   UNL     1       4.577   3.510  17.245  0.00  0.00    +0.000 A 
ATOM     20  C   UNL     1       4.833   4.242  16.085  0.00  0.00    +0.000 A 
ATOM     21  C   UNL     1       5.552   5.435  16.156  0.00  0.00    +0.000 A 
ATOM     22  C   UNL     1       6.003   5.899  17.390  0.00  0.00    +0.000 A 
ATOM     23 CL   UNL     1       6.898   7.366  17.479  0.00  0.00    +0.000 Cl
ATOM     24  C   UNL     1       5.751   5.173  18.551  0.00  0.00    +0.000 A 
ENDBRANCH  17  18
ENDBRANCH  16  17
ENDBRANCH  14  16
ENDBRANCH  13  14
ENDBRANCH   4  13
TORSDOF 7
ENDMDL
MODEL 5
REMARK VINA RESULT:      -6.2      5.854      7.320
REMARK  Name = 
REMARK  7 active torsions:
REMARK  status: ('A' for Active; 'I' for Inactive)
REMARK    1  A    between atoms: C_2  and  C_5
REMARK    2  A    between atoms: N_3  and  O_4
REMARK    3  A    between atoms: C_8  and  C_9
REMARK    4  A    between atoms: C_9  and  N_10
REMARK    5  A    between atoms: N_10  and  C_11
REMARK    6  A    between atoms: C_11  and  C_12
REMARK    7  A    between atoms: C_12  and  C_13
REMARK                            x       y       z     vdW  Elec       q    Type
REMARK                         _______ _______ _______ _____ _____    ______ ____
ROOT
ATOM      1  C   UNL     1       4.139   5.505  18.910  0.00  0.00    +0.000 A 
ATOM      2  C   UNL     1       4.431   6.223  17.746  0.00  0.00    +0.000 A 
ATOM      3  C   UNL     1       3.656   7.331  17.405  0.00  0.00    +0.000 A 
ATOM      4  C   UNL     1       2.593   7.742  18.227  0.00  0.00    +0.000 A 
ATOM      5  C   UNL     1       2.316   7.024  19.396  0.00  0.00    +0.000 A 
ATOM      6  C   UNL     1       3.085   5.912  19.737  0.00  0.00    +0.000 A 
ENDROOT
BRANCH   1   8
ATOM      7  O   UNL     1       6.208   4.404  19.257  0.00  0.00    +0.000 OA
ATOM      8  C   UNL     1       4.983   4.339  19.271  0.00  0.00    +0.000 C 
ATOM      9  N   UNL     1       4.305   3.184  19.581  0.00  0.00    +0.000 N 
ATOM     10  H   UNL     1       3.364   3.008  19.245  0.00  0.00    +0.000 HD
BRANCH   9  11
ATOM     11  O   UNL     1       5.119   2.045  19.785  0.00  0.00    +0.000 OA
ATOM     12  H   UNL     1       4.515   1.447  20.281  0.00  0.00    +0.000 HD
ENDBRANCH   9  11
ENDBRANCH   1   8
BRANCH   4  13
ATOM     13  C   UNL     1       1.816   8.991  17.900  0.00  0.00    +0.000 C 
BRANCH  13  14
ATOM     14  N   UNL     1       1.159   9.549  19.082  0.00  0.00    +0.000 NA
ATOM     15  H   UNL     1       1.879   9.827  19.750  0.00  0.00    +0.000 HD
BRANCH  14  16
ATOM     16  C   UNL     1       0.330  10.717  18.755  0.00  0.00    +0.000 C 
BRANCH  16  17
ATOM     17  C   UNL     1      -1.130  10.545  19.194  0.00  0.00    +0.000 C 
BRANCH  17  18
ATOM     18  C   UNL     1      -2.105  10.572  18.047  0.00  0.00    +0.000 A 
ATOM     19  C   UNL     1      -1.836   9.864  16.870  0.00  0.00    +0.000 A 
ATOM     20  C   UNL     1      -2.710   9.940  15.785  0.00  0.00    +0.000 A 
ATOM     21  C   UNL     1      -3.864  10.720  15.872  0.00  0.00    +0.000 A 
ATOM     22  C   UNL     1      -4.146  11.411  17.049  0.00  0.00    +0.000 A 
ATOM     23 CL   UNL     1      -5.564  12.379  17.155  0.00  0.00    +0.000 Cl
ATOM     24  C   UNL     1      -3.277  11.337  18.135  0.00  0.00    +0.000 A 
ENDBRANCH  17  18
ENDBRANCH  16  17
ENDBRANCH  14  16
ENDBRANCH  13  14
ENDBRANCH   4  13
TORSDOF 7
ENDMDL
MODEL 6
REMARK VINA RESULT:      -6.2      2.098      3.629
REMARK  Name = 
REMARK  7 active torsions:
REMARK  status: ('A' for Active; 'I' for Inactive)
REMARK    1  A    between atoms: C_2  and  C_5
REMARK    2  A    between atoms: N_3  and  O_4
REMARK    3  A    between atoms: C_8  and  C_9
REMARK    4  A    between atoms: C_9  and  N_10
REMARK    5  A    between atoms: N_10  and  C_11
REMARK    6  A    between atoms: C_11  and  C_12
REMARK    7  A    between atoms: C_12  and  C_13
REMARK                            x       y       z     vdW  Elec       q    Type
REMARK                         _______ _______ _______ _____ _____    ______ ____
ROOT
ATOM      1  C   UNL     1       5.925   4.690  16.998  0.00  0.00    +0.000 A 
ATOM      2  C   UNL     1       6.115   4.720  18.383  0.00  0.00    +0.000 A 
ATOM      3  C   UNL     1       5.293   3.954  19.210  0.00  0.00    +0.000 A 
ATOM      4  C   UNL     1       4.286   3.141  18.663  0.00  0.00    +0.000 A 
ATOM      5  C   UNL     1       4.111   3.109  17.275  0.00  0.00    +0.000 A 
ATOM      6  C   UNL     1       4.926   3.878  16.446  0.00  0.00    +0.000 A 
ENDROOT
BRANCH   1   8
ATOM      7  O   UNL     1       7.039   6.680  16.356  0.00  0.00    +0.000 OA
ATOM      8  C   UNL     1       6.817   5.495  16.128  0.00  0.00    +0.000 C 
ATOM      9  N   UNL     1       7.342   4.839  15.039  0.00  0.00    +0.000 N 
ATOM     10  H   UNL     1       6.894   4.021  14.639  0.00  0.00    +0.000 HD
BRANCH   9  11
ATOM     11  O   UNL     1       8.074   5.652  14.143  0.00  0.00    +0.000 OA
ATOM     12  H   UNL     1       8.832   5.069  13.911  0.00  0.00    +0.000 HD
ENDBRANCH   9  11
ENDBRANCH   1   8
BRANCH   4  13
ATOM     13  C   UNL     1       3.460   2.250  19.555  0.00  0.00    +0.000 C 
BRANCH  13  14
ATOM     14  N   UNL     1       3.160   2.889  20.837  0.00  0.00    +0.000 NA
ATOM     15  H   UNL     1       3.525   3.842  20.814  0.00  0.00    +0.000 HD
BRANCH  14  16
ATOM     16  C   UNL     1       1.718   2.932  21.110  0.00  0.00    +0.000 C 
BRANCH  16  17
ATOM     17  C   UNL     1       0.947   3.764  20.075  0.00  0.00    +0.000 C 
BRANCH  17  18
ATOM     18  C   UNL     1       1.443   5.179  19.959  0.00  0.00    +0.000 A 
ATOM     19  C   UNL     1       1.169   6.113  20.966  0.00  0.00    +0.000 A 
ATOM     20  C   UNL     1       1.577   7.440  20.826  0.00  0.00    +0.000 A 
ATOM     21  C   UNL     1       2.267   7.843  19.683  0.00  0.00    +0.000 A 
ATOM     22  C   UNL     1       2.559   6.912  18.687  0.00  0.00    +0.000 A 
ATOM     23 CL   UNL     1       3.403   7.409  17.272  0.00  0.00    +0.000 Cl
ATOM     24  C   UNL     1       2.156   5.586  18.821  0.00  0.00    +0.000 A 
ENDBRANCH  17  18
ENDBRANCH  16  17
ENDBRANCH  14  16
ENDBRANCH  13  14
ENDBRANCH   4  13
TORSDOF 7
ENDMDL
MODEL 7
REMARK VINA RESULT:      -6.2      2.617      3.775
REMARK  Name = 
REMARK  7 active torsions:
REMARK  status: ('A' for Active; 'I' for Inactive)
REMARK    1  A    between atoms: C_2  and  C_5
REMARK    2  A    between atoms: N_3  and  O_4
REMARK    3  A    between atoms: C_8  and  C_9
REMARK    4  A    between atoms: C_9  and  N_10
REMARK    5  A    between atoms: N_10  and  C_11
REMARK    6  A    between atoms: C_11  and  C_12
REMARK    7  A    between atoms: C_12  and  C_13
REMARK                            x       y       z     vdW  Elec       q    Type
REMARK                         _______ _______ _______ _____ _____    ______ ____
ROOT
ATOM      1  C   UNL     1       5.549   5.195  17.372  0.00  0.00    +0.000 A 
ATOM      2  C   UNL     1       4.847   4.416  16.447  0.00  0.00    +0.000 A 
ATOM      3  C   UNL     1       4.255   3.221  16.856  0.00  0.00    +0.000 A 
ATOM      4  C   UNL     1       4.345   2.800  18.193  0.00  0.00    +0.000 A 
ATOM      5  C   UNL     1       5.039   3.591  19.115  0.00  0.00    +0.000 A 
ATOM      6  C   UNL     1       5.638   4.783  18.708  0.00  0.00    +0.000 A 
ENDROOT
BRANCH   1   8
ATOM      7  O   UNL     1       5.754   7.066  15.934  0.00  0.00    +0.000 OA
ATOM      8  C   UNL     1       6.158   6.473  16.928  0.00  0.00    +0.000 C 
ATOM      9  N   UNL     1       7.220   6.920  17.678  0.00  0.00    +0.000 N 
ATOM     10  H   UNL     1       7.784   6.291  18.238  0.00  0.00    +0.000 HD
BRANCH   9  11
ATOM     11  O   UNL     1       7.880   8.061  17.163  0.00  0.00    +0.000 OA
ATOM     12  H   UNL     1       7.567   8.076  16.231  0.00  0.00    +0.000 HD
ENDBRANCH   9  11
ENDBRANCH   1   8
BRANCH   4  13
ATOM     13  C   UNL     1       3.629   1.554  18.648  0.00  0.00    +0.000 C 
BRANCH  13  14
ATOM     14  N   UNL     1       2.203   1.795  18.871  0.00  0.00    +0.000 NA
ATOM     15  H   UNL     1       1.720   0.896  18.867  0.00  0.00    +0.000 HD
BRANCH  14  16
ATOM     16  C   UNL     1       1.949   2.473  20.149  0.00  0.00    +0.000 C 
BRANCH  16  17
ATOM     17  C   UNL     1       0.821   3.509  20.053  0.00  0.00    +0.000 C 
BRANCH  17  18
ATOM     18  C   UNL     1       1.311   4.898  19.749  0.00  0.00    +0.000 A 
ATOM     19  C   UNL     1       1.856   5.201  18.496  0.00  0.00    +0.000 A 
ATOM     20  C   UNL     1       2.367   6.473  18.238  0.00  0.00    +0.000 A 
ATOM     21  C   UNL     1       2.329   7.456  19.227  0.00  0.00    +0.000 A 
ATOM     22  C   UNL     1       1.769   7.165  20.470  0.00  0.00    +0.000 A 
ATOM     23 CL   UNL     1       1.729   8.373  21.695  0.00  0.00    +0.000 Cl
ATOM     24  C   UNL     1       1.257   5.897  20.733  0.00  0.00    +0.000 A 
ENDBRANCH  17  18
ENDBRANCH  16  17
ENDBRANCH  14  16
ENDBRANCH  13  14
ENDBRANCH   4  13
TORSDOF 7
ENDMDL
MODEL 8
REMARK VINA RESULT:      -6.2      4.170      5.915
REMARK  Name = 
REMARK  7 active torsions:
REMARK  status: ('A' for Active; 'I' for Inactive)
REMARK    1  A    between atoms: C_2  and  C_5
REMARK    2  A    between atoms: N_3  and  O_4
REMARK    3  A    between atoms: C_8  and  C_9
REMARK    4  A    between atoms: C_9  and  N_10
REMARK    5  A    between atoms: N_10  and  C_11
REMARK    6  A    between atoms: C_11  and  C_12
REMARK    7  A    between atoms: C_12  and  C_13
REMARK                            x       y       z     vdW  Elec       q    Type
REMARK                         _______ _______ _______ _____ _____    ______ ____
ROOT
ATOM      1  C   UNL     1       1.248   8.816  20.205  0.00  0.00    +0.000 A 
ATOM      2  C   UNL     1       1.361   9.546  19.017  0.00  0.00    +0.000 A 
ATOM      3  C   UNL     1       2.140   9.049  17.972  0.00  0.00    +0.000 A 
ATOM      4  C   UNL     1       2.801   7.816  18.095  0.00  0.00    +0.000 A 
ATOM      5  C   UNL     1       2.673   7.087  19.283  0.00  0.00    +0.000 A 
ATOM      6  C   UNL     1       1.900   7.583  20.332  0.00  0.00    +0.000 A 
ENDROOT
BRANCH   1   8
ATOM      7  O   UNL     1      -0.670   9.898  21.077  0.00  0.00    +0.000 OA
ATOM      8  C   UNL     1       0.402   9.345  21.302  0.00  0.00    +0.000 C 
ATOM      9  N   UNL     1       0.914   9.210  22.571  0.00  0.00    +0.000 N 
ATOM     10  H   UNL     1       1.909   9.111  22.739  0.00  0.00    +0.000 HD
BRANCH   9  11
ATOM     11  O   UNL     1       0.166   9.842  23.591  0.00  0.00    +0.000 OA
ATOM     12  H   UNL     1       0.847   9.981  24.288  0.00  0.00    +0.000 HD
ENDBRANCH   9  11
ENDBRANCH   1   8
BRANCH   4  13
ATOM     13  C   UNL     1       3.568   7.244  16.931  0.00  0.00    +0.000 C 
BRANCH  13  14
ATOM     14  N   UNL     1       4.771   6.535  17.367  0.00  0.00    +0.000 NA
ATOM     15  H   UNL     1       4.720   6.406  18.379  0.00  0.00    +0.000 HD
BRANCH  14  16
ATOM     16  C   UNL     1       4.904   5.222  16.721  0.00  0.00    +0.000 C 
BRANCH  16  17
ATOM     17  C   UNL     1       4.932   4.068  17.733  0.00  0.00    +0.000 C 
BRANCH  17  18
ATOM     18  C   UNL     1       3.587   3.774  18.340  0.00  0.00    +0.000 A 
ATOM     19  C   UNL     1       2.431   3.799  17.551  0.00  0.00    +0.000 A 
ATOM     20  C   UNL     1       1.179   3.588  18.128  0.00  0.00    +0.000 A 
ATOM     21  C   UNL     1       1.073   3.343  19.498  0.00  0.00    +0.000 A 
ATOM     22  C   UNL     1       2.223   3.297  20.283  0.00  0.00    +0.000 A 
ATOM     23 CL   UNL     1       2.094   3.002  21.974  0.00  0.00    +0.000 Cl
ATOM     24  C   UNL     1       3.476   3.506  19.712  0.00  0.00    +0.000 A 
ENDBRANCH  17  18
ENDBRANCH  16  17
ENDBRANCH  14  16
ENDBRANCH  13  14
ENDBRANCH   4  13
TORSDOF 7
ENDMDL
MODEL 9
REMARK VINA RESULT:      -6.1      2.582      3.885
REMARK  Name = 
REMARK  7 active torsions:
REMARK  status: ('A' for Active; 'I' for Inactive)
REMARK    1  A    between atoms: C_2  and  C_5
REMARK    2  A    between atoms: N_3  and  O_4
REMARK    3  A    between atoms: C_8  and  C_9
REMARK    4  A    between atoms: C_9  and  N_10
REMARK    5  A    between atoms: N_10  and  C_11
REMARK    6  A    between atoms: C_11  and  C_12
REMARK    7  A    between atoms: C_12  and  C_13
REMARK                            x       y       z     vdW  Elec       q    Type
REMARK                         _______ _______ _______ _____ _____    ______ ____
ROOT
ATOM      1  C   UNL     1       5.784   5.303  17.706  0.00  0.00    +0.000 A 
ATOM      2  C   UNL     1       5.645   4.733  18.975  0.00  0.00    +0.000 A 
ATOM      3  C   UNL     1       4.951   3.532  19.121  0.00  0.00    +0.000 A 
ATOM      4  C   UNL     1       4.401   2.882  18.003  0.00  0.00    +0.000 A 
ATOM      5  C   UNL     1       4.556   3.454  16.735  0.00  0.00    +0.000 A 
ATOM      6  C   UNL     1       5.244   4.658  16.586  0.00  0.00    +0.000 A 
ENDROOT
BRANCH   1   8
ATOM      7  O   UNL     1       6.296   7.366  16.661  0.00  0.00    +0.000 OA
ATOM      8  C   UNL     1       6.541   6.571  17.562  0.00  0.00    +0.000 C 
ATOM      9  N   UNL     1       7.551   6.772  18.474  0.00  0.00    +0.000 N 
ATOM     10  H   UNL     1       7.997   6.000  18.957  0.00  0.00    +0.000 HD
BRANCH   9  11
ATOM     11  O   UNL     1       8.353   7.912  18.240  0.00  0.00    +0.000 OA
ATOM     12  H   UNL     1       8.098   8.158  17.322  0.00  0.00    +0.000 HD
ENDBRANCH   9  11
ENDBRANCH   1   8
BRANCH   4  13
ATOM     13  C   UNL     1       3.729   1.542  18.156  0.00  0.00    +0.000 C 
BRANCH  13  14
ATOM     14  N   UNL     1       2.546   1.621  19.013  0.00  0.00    +0.000 NA
ATOM     15  H   UNL     1       2.715   2.326  19.732  0.00  0.00    +0.000 HD
BRANCH  14  16
ATOM     16  C   UNL     1       1.339   1.984  18.259  0.00  0.00    +0.000 C 
BRANCH  16  17
ATOM     17  C   UNL     1       0.493   3.045  18.976  0.00  0.00    +0.000 C 
BRANCH  17  18
ATOM     18  C   UNL     1       1.260   4.297  19.304  0.00  0.00    +0.000 A 
ATOM     19  C   UNL     1       1.505   4.651  20.636  0.00  0.00    +0.000 A 
ATOM     20  C   UNL     1       2.162   5.844  20.939  0.00  0.00    +0.000 A 
ATOM     21  C   UNL     1       2.586   6.689  19.913  0.00  0.00    +0.000 A 
ATOM     22  C   UNL     1       2.362   6.330  18.585  0.00  0.00    +0.000 A 
ATOM     23 CL   UNL     1       2.877   7.375  17.317  0.00  0.00    +0.000 Cl
ATOM     24  C   UNL     1       1.707   5.140  18.276  0.00  0.00    +0.000 A 
ENDBRANCH  17  18
ENDBRANCH  16  17
ENDBRANCH  14  16
ENDBRANCH  13  14
ENDBRANCH   4  13
TORSDOF 7
ENDMDL
