MODEL 1
REMARK VINA RESULT:      -6.7      0.000      0.000
REMARK  Name = 
REMARK  4 active torsions:
REMARK  status: ('A' for Active; 'I' for Inactive)
REMARK    1  A    between atoms: C_1  and  O_2
REMARK    2  A    between atoms: O_2  and  C_3
REMARK    3  A    between atoms: C_7  and  O_8
REMARK    4  A    between atoms: O_8  and  C_9
REMARK                            x       y       z     vdW  Elec       q    Type
REMARK                         _______ _______ _______ _____ _____    ______ ____
ROOT
ATOM      1  O   UNL     1       5.573   3.808  19.213  0.00  0.00    +0.000 OA
ENDROOT
BRANCH   1   2
ATOM      2  C   UNL     1       6.235   4.746  18.444  0.00  0.00    +0.000 A 
ATOM      3  C   UNL     1       7.066   5.740  18.970  0.00  0.00    +0.000 A 
ATOM      4  C   UNL     1       7.638   6.659  18.114  0.00  0.00    +0.000 A 
ATOM      5  N   UNL     1       7.519   6.652  16.776  0.00  0.00    +0.000 NA
ATOM      6  C   UNL     1       6.792   5.626  16.254  0.00  0.00    +0.000 A 
ATOM      7  C   UNL     1       6.604   5.396  14.861  0.00  0.00    +0.000 A 
ATOM      8  C   UNL     1       5.849   4.271  14.613  0.00  0.00    +0.000 A 
ATOM      9  S   UNL     1       5.330   3.519  16.056  0.00  0.00    +0.000 S 
ATOM     10  C   UNL     1       6.150   4.671  17.043  0.00  0.00    +0.000 A 
ENDBRANCH   1   2
BRANCH   1  15
ATOM     11  C   UNL     1       2.273   5.234  20.117  0.00  0.00    +0.000 A 
ATOM     12  C   UNL     1       1.505   4.072  20.037  0.00  0.00    +0.000 A 
ATOM     13  C   UNL     1       2.084   2.863  19.641  0.00  0.00    +0.000 A 
ATOM     14  C   UNL     1       3.447   2.808  19.363  0.00  0.00    +0.000 A 
ATOM     15  C   UNL     1       4.228   3.959  19.471  0.00  0.00    +0.000 A 
ATOM     16  C   UNL     1       3.626   5.186  19.781  0.00  0.00    +0.000 A 
BRANCH  11  18
ATOM     17  C   UNL     1       2.018   7.595  20.002  0.00  0.00    +0.000 C 
ATOM     18  O   UNL     1       1.598   6.346  20.540  0.00  0.00    +0.000 OA
ENDBRANCH  11  18
ENDBRANCH   1  15
TORSDOF 3
ENDMDL
MODEL 2
REMARK VINA RESULT:      -6.7      2.525      5.595
REMARK  Name = 
REMARK  4 active torsions:
REMARK  status: ('A' for Active; 'I' for Inactive)
REMARK    1  A    between atoms: C_1  and  O_2
REMARK    2  A    between atoms: O_2  and  C_3
REMARK    3  A    between atoms: C_7  and  O_8
REMARK    4  A    between atoms: O_8  and  C_9
REMARK                            x       y       z     vdW  Elec       q    Type
REMARK                         _______ _______ _______ _____ _____    ______ ____
ROOT
ATOM      1  O   UNL     1       3.346   5.174  16.903  0.00  0.00    +0.000 OA
ENDROOT
BRANCH   1   2
ATOM      2  C   UNL     1       2.819   5.490  18.140  0.00  0.00    +0.000 A 
ATOM      3  C   UNL     1       2.710   6.794  18.632  0.00  0.00    +0.000 A 
ATOM      4  C   UNL     1       2.213   6.993  19.904  0.00  0.00    +0.000 A 
ATOM      5  N   UNL     1       1.751   6.027  20.717  0.00  0.00    +0.000 NA
ATOM      6  C   UNL     1       1.762   4.768  20.200  0.00  0.00    +0.000 A 
ATOM      7  C   UNL     1       1.253   3.617  20.867  0.00  0.00    +0.000 A 
ATOM      8  C   UNL     1       1.365   2.476  20.105  0.00  0.00    +0.000 A 
ATOM      9  S   UNL     1       2.125   2.782  18.606  0.00  0.00    +0.000 S 
ATOM     10  C   UNL     1       2.276   4.467  18.938  0.00  0.00    +0.000 A 
ENDBRANCH   1   2
BRANCH   1  15
ATOM     11  C   UNL     1       6.946   4.680  17.640  0.00  0.00    +0.000 A 
ATOM     12  C   UNL     1       7.399   4.422  16.346  0.00  0.00    +0.000 A 
ATOM     13  C   UNL     1       6.502   4.369  15.276  0.00  0.00    +0.000 A 
ATOM     14  C   UNL     1       5.149   4.616  15.495  0.00  0.00    +0.000 A 
ATOM     15  C   UNL     1       4.693   4.906  16.781  0.00  0.00    +0.000 A 
ATOM     16  C   UNL     1       5.582   4.869  17.863  0.00  0.00    +0.000 A 
BRANCH  11  18
ATOM     17  C   UNL     1       7.769   5.708  19.619  0.00  0.00    +0.000 C 
ATOM     18  O   UNL     1       7.923   4.731  18.596  0.00  0.00    +0.000 OA
ENDBRANCH  11  18
ENDBRANCH   1  15
TORSDOF 3
ENDMDL
MODEL 3
REMARK VINA RESULT:      -6.7      2.739      6.104
REMARK  Name = 
REMARK  4 active torsions:
REMARK  status: ('A' for Active; 'I' for Inactive)
REMARK    1  A    between atoms: C_1  and  O_2
REMARK    2  A    between atoms: O_2  and  C_3
REMARK    3  A    between atoms: C_7  and  O_8
REMARK    4  A    between atoms: O_8  and  C_9
REMARK                            x       y       z     vdW  Elec       q    Type
REMARK                         _______ _______ _______ _____ _____    ______ ____
ROOT
ATOM      1  O   UNL     1       3.617   3.913  16.983  0.00  0.00    +0.000 OA
ENDROOT
BRANCH   1   2
ATOM      2  C   UNL     1       3.102   4.644  18.036  0.00  0.00    +0.000 A 
ATOM      3  C   UNL     1       3.022   6.040  18.052  0.00  0.00    +0.000 A 
ATOM      4  C   UNL     1       2.534   6.672  19.178  0.00  0.00    +0.000 A 
ATOM      5  N   UNL     1       2.056   6.052  20.270  0.00  0.00    +0.000 NA
ATOM      6  C   UNL     1       2.041   4.692  20.216  0.00  0.00    +0.000 A 
ATOM      7  C   UNL     1       1.511   3.850  21.235  0.00  0.00    +0.000 A 
ATOM      8  C   UNL     1       1.598   2.515  20.910  0.00  0.00    +0.000 A 
ATOM      9  S   UNL     1       2.356   2.274  19.398  0.00  0.00    +0.000 S 
ATOM     10  C   UNL     1       2.543   3.968  19.134  0.00  0.00    +0.000 A 
ENDBRANCH   1   2
BRANCH   1  15
ATOM     11  C   UNL     1       6.489   4.564  14.730  0.00  0.00    +0.000 A 
ATOM     12  C   UNL     1       7.488   4.718  15.691  0.00  0.00    +0.000 A 
ATOM     13  C   UNL     1       7.182   4.652  17.053  0.00  0.00    +0.000 A 
ATOM     14  C   UNL     1       5.874   4.390  17.455  0.00  0.00    +0.000 A 
ATOM     15  C   UNL     1       4.875   4.204  16.499  0.00  0.00    +0.000 A 
ATOM     16  C   UNL     1       5.171   4.360  15.139  0.00  0.00    +0.000 A 
BRANCH  11  18
ATOM     17  C   UNL     1       6.410   3.636  12.542  0.00  0.00    +0.000 C 
ATOM     18  O   UNL     1       6.919   4.623  13.433  0.00  0.00    +0.000 OA
ENDBRANCH  11  18
ENDBRANCH   1  15
TORSDOF 3
ENDMDL
MODEL 4
REMARK VINA RESULT:      -6.6      1.453      2.386
REMARK  Name = 
REMARK  4 active torsions:
REMARK  status: ('A' for Active; 'I' for Inactive)
REMARK    1  A    between atoms: C_1  and  O_2
REMARK    2  A    between atoms: O_2  and  C_3
REMARK    3  A    between atoms: C_7  and  O_8
REMARK    4  A    between atoms: O_8  and  C_9
REMARK                            x       y       z     vdW  Elec       q    Type
REMARK                         _______ _______ _______ _____ _____    ______ ____
ROOT
ATOM      1  O   UNL     1       4.941   3.353  18.423  0.00  0.00    +0.000 OA
ENDROOT
BRANCH   1   2
ATOM      2  C   UNL     1       5.328   4.255  17.452  0.00  0.00    +0.000 A 
ATOM      3  C   UNL     1       4.771   4.310  16.170  0.00  0.00    +0.000 A 
ATOM      4  C   UNL     1       5.269   5.220  15.260  0.00  0.00    +0.000 A 
ATOM      5  N   UNL     1       6.225   6.128  15.514  0.00  0.00    +0.000 NA
ATOM      6  C   UNL     1       6.699   6.143  16.791  0.00  0.00    +0.000 A 
ATOM      7  C   UNL     1       7.660   7.071  17.285  0.00  0.00    +0.000 A 
ATOM      8  C   UNL     1       7.938   6.878  18.619  0.00  0.00    +0.000 A 
ATOM      9  S   UNL     1       7.077   5.552  19.266  0.00  0.00    +0.000 S 
ATOM     10  C   UNL     1       6.279   5.240  17.769  0.00  0.00    +0.000 A 
ENDBRANCH   1   2
BRANCH   1  15
ATOM     11  C   UNL     1       1.741   4.390  19.982  0.00  0.00    +0.000 A 
ATOM     12  C   UNL     1       1.038   3.192  19.852  0.00  0.00    +0.000 A 
ATOM     13  C   UNL     1       1.618   2.093  19.213  0.00  0.00    +0.000 A 
ATOM     14  C   UNL     1       2.923   2.180  18.736  0.00  0.00    +0.000 A 
ATOM     15  C   UNL     1       3.644   3.364  18.891  0.00  0.00    +0.000 A 
ATOM     16  C   UNL     1       3.027   4.490  19.451  0.00  0.00    +0.000 A 
BRANCH  11  18
ATOM     17  C   UNL     1       1.715   6.653  20.711  0.00  0.00    +0.000 C 
ATOM     18  O   UNL     1       1.076   5.382  20.648  0.00  0.00    +0.000 OA
ENDBRANCH  11  18
ENDBRANCH   1  15
TORSDOF 3
ENDMDL
MODEL 5
REMARK VINA RESULT:      -6.6      2.628      5.760
REMARK  Name = 
REMARK  4 active torsions:
REMARK  status: ('A' for Active; 'I' for Inactive)
REMARK    1  A    between atoms: C_1  and  O_2
REMARK    2  A    between atoms: O_2  and  C_3
REMARK    3  A    between atoms: C_7  and  O_8
REMARK    4  A    between atoms: O_8  and  C_9
REMARK                            x       y       z     vdW  Elec       q    Type
REMARK                         _______ _______ _______ _____ _____    ______ ____
ROOT
ATOM      1  O   UNL     1       3.597   6.373  17.558  0.00  0.00    +0.000 OA
ENDROOT
BRANCH   1   2
ATOM      2  C   UNL     1       2.827   5.935  18.618  0.00  0.00    +0.000 A 
ATOM      3  C   UNL     1       2.421   6.751  19.678  0.00  0.00    +0.000 A 
ATOM      4  C   UNL     1       1.695   6.197  20.712  0.00  0.00    +0.000 A 
ATOM      5  N   UNL     1       1.275   4.922  20.771  0.00  0.00    +0.000 NA
ATOM      6  C   UNL     1       1.584   4.151  19.692  0.00  0.00    +0.000 A 
ATOM      7  C   UNL     1       1.173   2.798  19.523  0.00  0.00    +0.000 A 
ATOM      8  C   UNL     1       1.600   2.265  18.327  0.00  0.00    +0.000 A 
ATOM      9  S   UNL     1       2.533   3.379  17.429  0.00  0.00    +0.000 S 
ATOM     10  C   UNL     1       2.342   4.616  18.616  0.00  0.00    +0.000 A 
ENDBRANCH   1   2
BRANCH   1  15
ATOM     11  C   UNL     1       6.746   5.113  16.061  0.00  0.00    +0.000 A 
ATOM     12  C   UNL     1       7.440   4.815  17.234  0.00  0.00    +0.000 A 
ATOM     13  C   UNL     1       6.873   5.082  18.483  0.00  0.00    +0.000 A 
ATOM     14  C   UNL     1       5.588   5.613  18.559  0.00  0.00    +0.000 A 
ATOM     15  C   UNL     1       4.875   5.884  17.391  0.00  0.00    +0.000 A 
ATOM     16  C   UNL     1       5.482   5.698  16.143  0.00  0.00    +0.000 A 
BRANCH  11  18
ATOM     17  C   UNL     1       6.622   4.146  13.893  0.00  0.00    +0.000 C 
ATOM     18  O   UNL     1       7.396   4.782  14.903  0.00  0.00    +0.000 OA
ENDBRANCH  11  18
ENDBRANCH   1  15
TORSDOF 3
ENDMDL
MODEL 6
REMARK VINA RESULT:      -6.6      2.742      5.845
REMARK  Name = 
REMARK  4 active torsions:
REMARK  status: ('A' for Active; 'I' for Inactive)
REMARK    1  A    between atoms: C_1  and  O_2
REMARK    2  A    between atoms: O_2  and  C_3
REMARK    3  A    between atoms: C_7  and  O_8
REMARK    4  A    between atoms: O_8  and  C_9
REMARK                            x       y       z     vdW  Elec       q    Type
REMARK                         _______ _______ _______ _____ _____    ______ ____
ROOT
ATOM      1  O   UNL     1       3.425   4.222  16.560  0.00  0.00    +0.000 OA
ENDROOT
BRANCH   1   2
ATOM      2  C   UNL     1       2.840   3.747  17.718  0.00  0.00    +0.000 A 
ATOM      3  C   UNL     1       2.668   2.389  18.004  0.00  0.00    +0.000 A 
ATOM      4  C   UNL     1       2.024   2.025  19.169  0.00  0.00    +0.000 A 
ATOM      5  N   UNL     1       1.587   2.876  20.113  0.00  0.00    +0.000 NA
ATOM      6  C   UNL     1       1.844   4.193  19.883  0.00  0.00    +0.000 A 
ATOM      7  C   UNL     1       1.529   5.247  20.788  0.00  0.00    +0.000 A 
ATOM      8  C   UNL     1       1.924   6.479  20.317  0.00  0.00    +0.000 A 
ATOM      9  S   UNL     1       2.631   6.371  18.765  0.00  0.00    +0.000 S 
ATOM     10  C   UNL     1       2.458   4.656  18.719  0.00  0.00    +0.000 A 
ENDBRANCH   1   2
BRANCH   1  15
ATOM     11  C   UNL     1       7.009   4.580  17.439  0.00  0.00    +0.000 A 
ATOM     12  C   UNL     1       7.542   4.650  16.151  0.00  0.00    +0.000 A 
ATOM     13  C   UNL     1       6.715   4.528  15.032  0.00  0.00    +0.000 A 
ATOM     14  C   UNL     1       5.341   4.377  15.200  0.00  0.00    +0.000 A 
ATOM     15  C   UNL     1       4.797   4.338  16.485  0.00  0.00    +0.000 A 
ATOM     16  C   UNL     1       5.640   4.370  17.602  0.00  0.00    +0.000 A 
BRANCH  11  18
ATOM     17  C   UNL     1       7.561   5.634  19.497  0.00  0.00    +0.000 C 
ATOM     18  O   UNL     1       7.917   4.738  18.451  0.00  0.00    +0.000 OA
ENDBRANCH  11  18
ENDBRANCH   1  15
TORSDOF 3
ENDMDL
MODEL 7
REMARK VINA RESULT:      -6.5      2.492      5.861
REMARK  Name = 
REMARK  4 active torsions:
REMARK  status: ('A' for Active; 'I' for Inactive)
REMARK    1  A    between atoms: C_1  and  O_2
REMARK    2  A    between atoms: O_2  and  C_3
REMARK    3  A    between atoms: C_7  and  O_8
REMARK    4  A    between atoms: O_8  and  C_9
REMARK                            x       y       z     vdW  Elec       q    Type
REMARK                         _______ _______ _______ _____ _____    ______ ____
ROOT
ATOM      1  O   UNL     1       5.354   3.867  18.311  0.00  0.00    +0.000 OA
ENDROOT
BRANCH   1   2
ATOM      2  C   UNL     1       4.204   4.445  18.812  0.00  0.00    +0.000 A 
ATOM      3  C   UNL     1       4.078   5.807  19.101  0.00  0.00    +0.000 A 
ATOM      4  C   UNL     1       2.898   6.271  19.647  0.00  0.00    +0.000 A 
ATOM      5  N   UNL     1       1.804   5.527  19.877  0.00  0.00    +0.000 NA
ATOM      6  C   UNL     1       1.891   4.221  19.503  0.00  0.00    +0.000 A 
ATOM      7  C   UNL     1       0.823   3.282  19.594  0.00  0.00    +0.000 A 
ATOM      8  C   UNL     1       1.176   2.038  19.120  0.00  0.00    +0.000 A 
ATOM      9  S   UNL     1       2.805   1.989  18.607  0.00  0.00    +0.000 S 
ATOM     10  C   UNL     1       3.052   3.656  18.975  0.00  0.00    +0.000 A 
ENDBRANCH   1   2
BRANCH   1  15
ATOM     11  C   UNL     1       5.653   4.238  14.634  0.00  0.00    +0.000 A 
ATOM     12  C   UNL     1       6.880   4.900  14.582  0.00  0.00    +0.000 A 
ATOM     13  C   UNL     1       7.551   5.247  15.757  0.00  0.00    +0.000 A 
ATOM     14  C   UNL     1       7.011   4.896  16.992  0.00  0.00    +0.000 A 
ATOM     15  C   UNL     1       5.799   4.207  17.051  0.00  0.00    +0.000 A 
ATOM     16  C   UNL     1       5.088   3.941  15.874  0.00  0.00    +0.000 A 
BRANCH  11  18
ATOM     17  C   UNL     1       5.990   3.395  12.437  0.00  0.00    +0.000 C 
ATOM     18  O   UNL     1       5.108   3.931  13.418  0.00  0.00    +0.000 OA
ENDBRANCH  11  18
ENDBRANCH   1  15
TORSDOF 3
ENDMDL
MODEL 8
REMARK VINA RESULT:      -6.4      1.153      2.065
REMARK  Name = 
REMARK  4 active torsions:
REMARK  status: ('A' for Active; 'I' for Inactive)
REMARK    1  A    between atoms: C_1  and  O_2
REMARK    2  A    between atoms: O_2  and  C_3
REMARK    3  A    between atoms: C_7  and  O_8
REMARK    4  A    between atoms: O_8  and  C_9
REMARK                            x       y       z     vdW  Elec       q    Type
REMARK                         _______ _______ _______ _____ _____    ______ ____
ROOT
ATOM      1  O   UNL     1       5.861   4.189  19.349  0.00  0.00    +0.000 OA
ENDROOT
BRANCH   1   2
ATOM      2  C   UNL     1       6.460   5.028  18.429  0.00  0.00    +0.000 A 
ATOM      3  C   UNL     1       7.300   6.092  18.774  0.00  0.00    +0.000 A 
ATOM      4  C   UNL     1       7.806   6.898  17.776  0.00  0.00    +0.000 A 
ATOM      5  N   UNL     1       7.614   6.717  16.459  0.00  0.00    +0.000 NA
ATOM      6  C   UNL     1       6.879   5.622  16.116  0.00  0.00    +0.000 A 
ATOM      7  C   UNL     1       6.620   5.211  14.777  0.00  0.00    +0.000 A 
ATOM      8  C   UNL     1       5.875   4.055  14.719  0.00  0.00    +0.000 A 
ATOM      9  S   UNL     1       5.450   3.490  16.274  0.00  0.00    +0.000 S 
ATOM     10  C   UNL     1       6.300   4.770  17.057  0.00  0.00    +0.000 A 
ENDBRANCH   1   2
BRANCH   1  15
ATOM     11  C   UNL     1       2.296   3.283  19.813  0.00  0.00    +0.000 A 
ATOM     12  C   UNL     1       1.752   4.567  19.871  0.00  0.00    +0.000 A 
ATOM     13  C   UNL     1       2.577   5.693  19.805  0.00  0.00    +0.000 A 
ATOM     14  C   UNL     1       3.950   5.534  19.639  0.00  0.00    +0.000 A 
ATOM     15  C   UNL     1       4.498   4.254  19.549  0.00  0.00    +0.000 A 
ATOM     16  C   UNL     1       3.678   3.130  19.706  0.00  0.00    +0.000 A 
BRANCH  11  18
ATOM     17  C   UNL     1       0.520   2.122  18.741  0.00  0.00    +0.000 C 
ATOM     18  O   UNL     1       1.384   2.265  19.863  0.00  0.00    +0.000 OA
ENDBRANCH  11  18
ENDBRANCH   1  15
TORSDOF 3
ENDMDL
MODEL 9
REMARK VINA RESULT:      -6.4      2.453      5.468
REMARK  Name = 
REMARK  4 active torsions:
REMARK  status: ('A' for Active; 'I' for Inactive)
REMARK    1  A    between atoms: C_1  and  O_2
REMARK    2  A    between atoms: O_2  and  C_3
REMARK    3  A    between atoms: C_7  and  O_8
REMARK    4  A    between atoms: O_8  and  C_9
REMARK                            x       y       z     vdW  Elec       q    Type
REMARK                         _______ _______ _______ _____ _____    ______ ____
ROOT
ATOM      1  O   UNL     1       5.153   4.007  19.078  0.00  0.00    +0.000 OA
ENDROOT
BRANCH   1   2
ATOM      2  C   UNL     1       3.872   4.388  19.428  0.00  0.00    +0.000 A 
ATOM      3  C   UNL     1       3.533   5.671  19.870  0.00  0.00    +0.000 A 
ATOM      4  C   UNL     1       2.230   5.930  20.242  0.00  0.00    +0.000 A 
ATOM      5  N   UNL     1       1.211   5.058  20.161  0.00  0.00    +0.000 NA
ATOM      6  C   UNL     1       1.520   3.840  19.637  0.00  0.00    +0.000 A 
ATOM      7  C   UNL     1       0.575   2.801  19.399  0.00  0.00    +0.000 A 
ATOM      8  C   UNL     1       1.153   1.685  18.836  0.00  0.00    +0.000 A 
ATOM      9  S   UNL     1       2.839   1.872  18.636  0.00  0.00    +0.000 S 
ATOM     10  C   UNL     1       2.814   3.478  19.264  0.00  0.00    +0.000 A 
ENDBRANCH   1   2
BRANCH   1  15
ATOM     11  C   UNL     1       7.091   6.132  16.738  0.00  0.00    +0.000 A 
ATOM     12  C   UNL     1       6.763   5.493  15.542  0.00  0.00    +0.000 A 
ATOM     13  C   UNL     1       5.955   4.353  15.543  0.00  0.00    +0.000 A 
ATOM     14  C   UNL     1       5.438   3.874  16.745  0.00  0.00    +0.000 A 
ATOM     15  C   UNL     1       5.735   4.526  17.941  0.00  0.00    +0.000 A 
ATOM     16  C   UNL     1       6.618   5.614  17.944  0.00  0.00    +0.000 A 
BRANCH  11  18
ATOM     17  C   UNL     1       7.871   8.164  17.695  0.00  0.00    +0.000 C 
ATOM     18  O   UNL     1       7.868   7.250  16.604  0.00  0.00    +0.000 OA
ENDBRANCH  11  18
ENDBRANCH   1  15
TORSDOF 3
ENDMDL
