MODEL 1
REMARK VINA RESULT:      -7.7      0.000      0.000
REMARK  Name = 
REMARK  9 active torsions:
REMARK  status: ('A' for Active; 'I' for Inactive)
REMARK    1  A    between atoms: C_1  and  C_2
REMARK    2  A    between atoms: C_5  and  S_6
REMARK    3  A    between atoms: S_6  and  N_9
REMARK    4  A    between atoms: N_9  and  N_10
REMARK    5  A    between atoms: C_11  and  C_13
REMARK    6  A    between atoms: N_15  and  N_16
REMARK    7  A    between atoms: N_16  and  S_17
REMARK    8  A    between atoms: S_17  and  C_20
REMARK    9  A    between atoms: C_23  and  C_24
REMARK                            x       y       z     vdW  Elec       q    Type
REMARK                         _______ _______ _______ _____ _____    ______ ____
ROOT
ATOM      1  N   UNL     1       1.733   7.192  20.915  0.00  0.00    +0.000 N 
ATOM      2  C   UNL     1       2.129   7.215  19.594  0.00  0.00    +0.000 C 
ATOM      3  O   UNL     1       2.494   8.202  18.967  0.00  0.00    +0.000 OA
ATOM      4  H   UNL     1       1.420   6.320  21.348  0.00  0.00    +0.000 HD
ENDROOT
BRANCH   2   5
ATOM      5  C   UNL     1       2.070   5.830  18.916  0.00  0.00    +0.000 C 
ATOM      6  O   UNL     1       1.967   5.739  17.698  0.00  0.00    +0.000 OA
ATOM      7  N   UNL     1       2.171   4.770  19.794  0.00  0.00    +0.000 N 
ATOM      8  H   UNL     1       2.341   4.923  20.790  0.00  0.00    +0.000 HD
BRANCH   7   9
ATOM      9  N   UNL     1       2.183   3.394  19.282  0.00  0.00    +0.000 NA
ATOM     10  H   UNL     1       1.476   3.122  18.595  0.00  0.00    +0.000 HD
BRANCH   9  11
ATOM     11  S   UNL     1       3.673   2.579  19.285  0.00  0.00    +0.000 S 
ATOM     12  O   UNL     1       4.014   2.346  20.674  0.00  0.00    +0.000 OA
ATOM     13  O   UNL     1       3.566   1.478  18.354  0.00  0.00    +0.000 OA
BRANCH  11  14
ATOM     14  C   UNL     1       4.816   3.771  18.633  0.00  0.00    +0.000 A 
ATOM     15  C   UNL     1       4.870   4.006  17.256  0.00  0.00    +0.000 A 
ATOM     16  C   UNL     1       5.691   5.024  16.756  0.00  0.00    +0.000 A 
ATOM     17  C   UNL     1       6.451   5.817  17.626  0.00  0.00    +0.000 A 
ATOM     18  C   UNL     1       7.327   6.920  17.103  0.00  0.00    +0.000 C 
ATOM     19  C   UNL     1       6.377   5.580  19.006  0.00  0.00    +0.000 A 
ATOM     20  C   UNL     1       5.559   4.565  19.511  0.00  0.00    +0.000 A 
ENDBRANCH  11  14
ENDBRANCH   9  11
ENDBRANCH   7   9
ENDBRANCH   2   5
BRANCH   1  21
ATOM     21  N   UNL     1       1.755   8.402  21.728  0.00  0.00    +0.000 NA
ATOM     22  H   UNL     1       2.644   8.809  22.033  0.00  0.00    +0.000 HD
BRANCH  21  23
ATOM     23  S   UNL     1       0.279   9.079  22.206  0.00  0.00    +0.000 S 
ATOM     24  O   UNL     1       0.492   9.651  23.519  0.00  0.00    +0.000 OA
ATOM     25  O   UNL     1      -0.744   8.076  21.987  0.00  0.00    +0.000 OA
BRANCH  23  30
ATOM     26  C   UNL     1      -0.324  13.582  18.172  0.00  0.00    +0.000 C 
ATOM     27  C   UNL     1      -0.233  12.480  19.189  0.00  0.00    +0.000 A 
ATOM     28  C   UNL     1       0.071  12.757  20.529  0.00  0.00    +0.000 A 
ATOM     29  C   UNL     1       0.191  11.722  21.460  0.00  0.00    +0.000 A 
ATOM     30  C   UNL     1      -0.008  10.399  21.055  0.00  0.00    +0.000 A 
ATOM     31  C   UNL     1      -0.313  10.109  19.721  0.00  0.00    +0.000 A 
ATOM     32  C   UNL     1      -0.424  11.150  18.793  0.00  0.00    +0.000 A 
ENDBRANCH  23  30
ENDBRANCH  21  23
ENDBRANCH   1  21
TORSDOF 7
ENDMDL
MODEL 2
REMARK VINA RESULT:      -7.6      2.876      3.430
REMARK  Name = 
REMARK  9 active torsions:
REMARK  status: ('A' for Active; 'I' for Inactive)
REMARK    1  A    between atoms: C_1  and  C_2
REMARK    2  A    between atoms: C_5  and  S_6
REMARK    3  A    between atoms: S_6  and  N_9
REMARK    4  A    between atoms: N_9  and  N_10
REMARK    5  A    between atoms: C_11  and  C_13
REMARK    6  A    between atoms: N_15  and  N_16
REMARK    7  A    between atoms: N_16  and  S_17
REMARK    8  A    between atoms: S_17  and  C_20
REMARK    9  A    between atoms: C_23  and  C_24
REMARK                            x       y       z     vdW  Elec       q    Type
REMARK                         _______ _______ _______ _____ _____    ______ ____
ROOT
ATOM      1  N   UNL     1       1.184   9.168  18.840  0.00  0.00    +0.000 N 
ATOM      2  C   UNL     1       2.123   8.379  18.210  0.00  0.00    +0.000 C 
ATOM      3  O   UNL     1       2.678   8.628  17.146  0.00  0.00    +0.000 OA
ATOM      4  H   UNL     1       0.757   8.865  19.719  0.00  0.00    +0.000 HD
ENDROOT
BRANCH   2   5
ATOM      5  C   UNL     1       2.444   7.081  18.979  0.00  0.00    +0.000 C 
ATOM      6  O   UNL     1       2.135   6.968  20.160  0.00  0.00    +0.000 OA
ATOM      7  N   UNL     1       3.058   6.110  18.215  0.00  0.00    +0.000 N 
ATOM      8  H   UNL     1       3.208   6.244  17.213  0.00  0.00    +0.000 HD
BRANCH   7   9
ATOM      9  N   UNL     1       3.373   4.804  18.804  0.00  0.00    +0.000 NA
ATOM     10  H   UNL     1       2.699   4.041  18.691  0.00  0.00    +0.000 HD
BRANCH   9  11
ATOM     11  S   UNL     1       5.014   4.417  19.002  0.00  0.00    +0.000 S 
ATOM     12  O   UNL     1       5.625   5.543  19.680  0.00  0.00    +0.000 OA
ATOM     13  O   UNL     1       5.082   3.088  19.566  0.00  0.00    +0.000 OA
BRANCH  11  14
ATOM     14  C   UNL     1       5.648   4.368  17.344  0.00  0.00    +0.000 A 
ATOM     15  C   UNL     1       4.807   4.009  16.286  0.00  0.00    +0.000 A 
ATOM     16  C   UNL     1       5.278   4.079  14.969  0.00  0.00    +0.000 A 
ATOM     17  C   UNL     1       6.581   4.519  14.702  0.00  0.00    +0.000 A 
ATOM     18  C   UNL     1       7.095   4.610  13.293  0.00  0.00    +0.000 C 
ATOM     19  C   UNL     1       7.409   4.890  15.771  0.00  0.00    +0.000 A 
ATOM     20  C   UNL     1       6.945   4.822  17.088  0.00  0.00    +0.000 A 
ENDBRANCH  11  14
ENDBRANCH   9  11
ENDBRANCH   7   9
ENDBRANCH   2   5
BRANCH   1  21
ATOM     21  N   UNL     1       0.780  10.452  18.278  0.00  0.00    +0.000 NA
ATOM     22  H   UNL     1       1.000  10.687  17.306  0.00  0.00    +0.000 HD
BRANCH  21  23
ATOM     23  S   UNL     1      -0.003  11.563  19.287  0.00  0.00    +0.000 S 
ATOM     24  O   UNL     1       0.502  12.872  18.931  0.00  0.00    +0.000 OA
ATOM     25  O   UNL     1       0.110  11.065  20.643  0.00  0.00    +0.000 OA
BRANCH  23  30
ATOM     26  C   UNL     1      -5.905  10.981  17.969  0.00  0.00    +0.000 C 
ATOM     27  C   UNL     1      -4.439  11.160  18.244  0.00  0.00    +0.000 A 
ATOM     28  C   UNL     1      -3.481  10.374  17.590  0.00  0.00    +0.000 A 
ATOM     29  C   UNL     1      -2.121  10.523  17.880  0.00  0.00    +0.000 A 
ATOM     30  C   UNL     1      -1.713  11.471  18.821  0.00  0.00    +0.000 A 
ATOM     31  C   UNL     1      -2.660  12.263  19.480  0.00  0.00    +0.000 A 
ATOM     32  C   UNL     1      -4.019  12.104  19.189  0.00  0.00    +0.000 A 
ENDBRANCH  23  30
ENDBRANCH  21  23
ENDBRANCH   1  21
TORSDOF 7
ENDMDL
MODEL 3
REMARK VINA RESULT:      -7.6      0.341      7.911
REMARK  Name = 
REMARK  9 active torsions:
REMARK  status: ('A' for Active; 'I' for Inactive)
REMARK    1  A    between atoms: C_1  and  C_2
REMARK    2  A    between atoms: C_5  and  S_6
REMARK    3  A    between atoms: S_6  and  N_9
REMARK    4  A    between atoms: N_9  and  N_10
REMARK    5  A    between atoms: C_11  and  C_13
REMARK    6  A    between atoms: N_15  and  N_16
REMARK    7  A    between atoms: N_16  and  S_17
REMARK    8  A    between atoms: S_17  and  C_20
REMARK    9  A    between atoms: C_23  and  C_24
REMARK                            x       y       z     vdW  Elec       q    Type
REMARK                         _______ _______ _______ _____ _____    ______ ____
ROOT
ATOM      1  N   UNL     1       1.976   4.980  19.811  0.00  0.00    +0.000 N 
ATOM      2  C   UNL     1       2.077   6.080  18.984  0.00  0.00    +0.000 C 
ATOM      3  O   UNL     1       2.173   6.060  17.763  0.00  0.00    +0.000 OA
ATOM      4  H   UNL     1       1.924   5.095  20.825  0.00  0.00    +0.000 HD
ENDROOT
BRANCH   2   5
ATOM      5  C   UNL     1       2.066   7.420  19.751  0.00  0.00    +0.000 C 
ATOM      6  O   UNL     1       2.200   8.479  19.150  0.00  0.00    +0.000 OA
ATOM      7  N   UNL     1       1.871   7.288  21.111  0.00  0.00    +0.000 N 
ATOM      8  H   UNL     1       1.682   6.376  21.531  0.00  0.00    +0.000 HD
BRANCH   7   9
ATOM      9  N   UNL     1       1.785   8.484  21.957  0.00  0.00    +0.000 NA
ATOM     10  H   UNL     1       2.605   9.093  22.028  0.00  0.00    +0.000 HD
BRANCH   9  11
ATOM     11  S   UNL     1       0.245   9.160  22.191  0.00  0.00    +0.000 S 
ATOM     12  O   UNL     1      -0.714   8.125  21.862  0.00  0.00    +0.000 OA
ATOM     13  O   UNL     1       0.240   9.787  23.493  0.00  0.00    +0.000 OA
BRANCH  11  14
ATOM     14  C   UNL     1       0.137  10.422  20.947  0.00  0.00    +0.000 A 
ATOM     15  C   UNL     1      -0.739  10.266  19.868  0.00  0.00    +0.000 A 
ATOM     16  C   UNL     1      -0.905  11.310  18.950  0.00  0.00    +0.000 A 
ATOM     17  C   UNL     1      -0.208  12.516  19.111  0.00  0.00    +0.000 A 
ATOM     18  C   UNL     1      -0.386  13.648  18.139  0.00  0.00    +0.000 C 
ATOM     19  C   UNL     1       0.656  12.665  20.204  0.00  0.00    +0.000 A 
ATOM     20  C   UNL     1       0.826  11.625  21.125  0.00  0.00    +0.000 A 
ENDBRANCH  11  14
ENDBRANCH   9  11
ENDBRANCH   7   9
ENDBRANCH   2   5
BRANCH   1  21
ATOM     21  N   UNL     1       1.936   3.629  19.262  0.00  0.00    +0.000 NA
ATOM     22  H   UNL     1       1.062   3.242  18.893  0.00  0.00    +0.000 HD
BRANCH  21  23
ATOM     23  S   UNL     1       3.350   2.698  19.308  0.00  0.00    +0.000 S 
ATOM     24  O   UNL     1       3.145   1.591  18.399  0.00  0.00    +0.000 OA
ATOM     25  O   UNL     1       3.667   2.468  20.703  0.00  0.00    +0.000 OA
BRANCH  23  30
ATOM     26  C   UNL     1       7.401   6.602  17.015  0.00  0.00    +0.000 C 
ATOM     27  C   UNL     1       6.439   5.591  17.572  0.00  0.00    +0.000 A 
ATOM     28  C   UNL     1       5.630   4.821  16.724  0.00  0.00    +0.000 A 
ATOM     29  C   UNL     1       4.712   3.910  17.253  0.00  0.00    +0.000 A 
ATOM     30  C   UNL     1       4.609   3.754  18.637  0.00  0.00    +0.000 A 
ATOM     31  C   UNL     1       5.412   4.515  19.494  0.00  0.00    +0.000 A 
ATOM     32  C   UNL     1       6.323   5.430  18.958  0.00  0.00    +0.000 A 
ENDBRANCH  23  30
ENDBRANCH  21  23
ENDBRANCH   1  21
TORSDOF 7
ENDMDL
MODEL 4
REMARK VINA RESULT:      -7.6      4.163      7.779
REMARK  Name = 
REMARK  9 active torsions:
REMARK  status: ('A' for Active; 'I' for Inactive)
REMARK    1  A    between atoms: C_1  and  C_2
REMARK    2  A    between atoms: C_5  and  S_6
REMARK    3  A    between atoms: S_6  and  N_9
REMARK    4  A    between atoms: N_9  and  N_10
REMARK    5  A    between atoms: C_11  and  C_13
REMARK    6  A    between atoms: N_15  and  N_16
REMARK    7  A    between atoms: N_16  and  S_17
REMARK    8  A    between atoms: S_17  and  C_20
REMARK    9  A    between atoms: C_23  and  C_24
REMARK                            x       y       z     vdW  Elec       q    Type
REMARK                         _______ _______ _______ _____ _____    ______ ____
ROOT
ATOM      1  N   UNL     1       6.172   3.766  17.972  0.00  0.00    +0.000 N 
ATOM      2  C   UNL     1       5.786   3.943  19.285  0.00  0.00    +0.000 C 
ATOM      3  O   UNL     1       6.270   4.741  20.078  0.00  0.00    +0.000 OA
ATOM      4  H   UNL     1       5.723   3.055  17.390  0.00  0.00    +0.000 HD
ENDROOT
BRANCH   2   5
ATOM      5  C   UNL     1       4.638   3.005  19.713  0.00  0.00    +0.000 C 
ATOM      6  O   UNL     1       4.499   2.691  20.890  0.00  0.00    +0.000 OA
ATOM      7  N   UNL     1       3.819   2.608  18.676  0.00  0.00    +0.000 N 
ATOM      8  H   UNL     1       3.946   2.978  17.732  0.00  0.00    +0.000 HD
BRANCH   7   9
ATOM      9  N   UNL     1       2.654   1.757  18.947  0.00  0.00    +0.000 NA
ATOM     10  H   UNL     1       2.811   0.771  19.176  0.00  0.00    +0.000 HD
BRANCH   9  11
ATOM     11  S   UNL     1       1.258   2.519  19.540  0.00  0.00    +0.000 S 
ATOM     12  O   UNL     1       0.159   2.073  18.708  0.00  0.00    +0.000 OA
ATOM     13  O   UNL     1       1.231   2.320  20.972  0.00  0.00    +0.000 OA
BRANCH  11  14
ATOM     14  C   UNL     1       1.534   4.241  19.206  0.00  0.00    +0.000 A 
ATOM     15  C   UNL     1       1.749   5.131  20.263  0.00  0.00    +0.000 A 
ATOM     16  C   UNL     1       2.076   6.465  19.992  0.00  0.00    +0.000 A 
ATOM     17  C   UNL     1       2.202   6.913  18.671  0.00  0.00    +0.000 A 
ATOM     18  C   UNL     1       2.564   8.339  18.367  0.00  0.00    +0.000 C 
ATOM     19  C   UNL     1       1.998   6.007  17.620  0.00  0.00    +0.000 A 
ATOM     20  C   UNL     1       1.670   4.673  17.884  0.00  0.00    +0.000 A 
ENDBRANCH  11  14
ENDBRANCH   9  11
ENDBRANCH   7   9
ENDBRANCH   2   5
BRANCH   1  21
ATOM     21  N   UNL     1       7.220   4.589  17.380  0.00  0.00    +0.000 NA
ATOM     22  H   UNL     1       8.201   4.449  17.639  0.00  0.00    +0.000 HD
BRANCH  21  23
ATOM     23  S   UNL     1       6.770   5.817  16.305  0.00  0.00    +0.000 S 
ATOM     24  O   UNL     1       7.939   6.650  16.118  0.00  0.00    +0.000 OA
ATOM     25  O   UNL     1       5.526   6.378  16.791  0.00  0.00    +0.000 OA
BRANCH  23  30
ATOM     26  C   UNL     1       5.729   2.624  11.242  0.00  0.00    +0.000 C 
ATOM     27  C   UNL     1       5.972   3.465  12.463  0.00  0.00    +0.000 A 
ATOM     28  C   UNL     1       7.186   4.143  12.643  0.00  0.00    +0.000 A 
ATOM     29  C   UNL     1       7.417   4.893  13.800  0.00  0.00    +0.000 A 
ATOM     30  C   UNL     1       6.424   4.979  14.779  0.00  0.00    +0.000 A 
ATOM     31  C   UNL     1       5.208   4.309  14.611  0.00  0.00    +0.000 A 
ATOM     32  C   UNL     1       4.987   3.554  13.454  0.00  0.00    +0.000 A 
ENDBRANCH  23  30
ENDBRANCH  21  23
ENDBRANCH   1  21
TORSDOF 7
ENDMDL
MODEL 5
REMARK VINA RESULT:      -7.5      6.876      9.756
REMARK  Name = 
REMARK  9 active torsions:
REMARK  status: ('A' for Active; 'I' for Inactive)
REMARK    1  A    between atoms: C_1  and  C_2
REMARK    2  A    between atoms: C_5  and  S_6
REMARK    3  A    between atoms: S_6  and  N_9
REMARK    4  A    between atoms: N_9  and  N_10
REMARK    5  A    between atoms: C_11  and  C_13
REMARK    6  A    between atoms: N_15  and  N_16
REMARK    7  A    between atoms: N_16  and  S_17
REMARK    8  A    between atoms: S_17  and  C_20
REMARK    9  A    between atoms: C_23  and  C_24
REMARK                            x       y       z     vdW  Elec       q    Type
REMARK                         _______ _______ _______ _____ _____    ______ ____
ROOT
ATOM      1  N   UNL     1       7.659   7.412  16.799  0.00  0.00    +0.000 N 
ATOM      2  C   UNL     1       8.129   7.728  18.057  0.00  0.00    +0.000 C 
ATOM      3  O   UNL     1       8.391   6.932  18.950  0.00  0.00    +0.000 OA
ATOM      4  H   UNL     1       7.445   8.150  16.124  0.00  0.00    +0.000 HD
ENDROOT
BRANCH   2   5
ATOM      5  C   UNL     1       8.307   9.245  18.277  0.00  0.00    +0.000 C 
ATOM      6  O   UNL     1       7.681  10.048  17.596  0.00  0.00    +0.000 OA
ATOM      7  N   UNL     1       9.184   9.567  19.293  0.00  0.00    +0.000 N 
ATOM      8  H   UNL     1       9.606   8.842  19.876  0.00  0.00    +0.000 HD
BRANCH   7   9
ATOM      9  N   UNL     1       9.409  10.973  19.648  0.00  0.00    +0.000 NA
ATOM     10  H   UNL     1       9.159  11.286  20.590  0.00  0.00    +0.000 HD
BRANCH   9  11
ATOM     11  S   UNL     1      10.640  11.795  18.817  0.00  0.00    +0.000 S 
ATOM     12  O   UNL     1      11.840  10.996  18.960  0.00  0.00    +0.000 OA
ATOM     13  O   UNL     1      10.128  12.134  17.508  0.00  0.00    +0.000 OA
BRANCH  11  14
ATOM     14  C   UNL     1      10.864  13.291  19.749  0.00  0.00    +0.000 A 
ATOM     15  C   UNL     1      11.637  14.330  19.225  0.00  0.00    +0.000 A 
ATOM     16  C   UNL     1      11.720  15.549  19.910  0.00  0.00    +0.000 A 
ATOM     17  C   UNL     1      11.024  15.738  21.111  0.00  0.00    +0.000 A 
ATOM     18  C   UNL     1      11.095  17.044  21.850  0.00  0.00    +0.000 C 
ATOM     19  C   UNL     1      10.241  14.692  21.619  0.00  0.00    +0.000 A 
ATOM     20  C   UNL     1      10.154  13.473  20.939  0.00  0.00    +0.000 A 
ENDBRANCH  11  14
ENDBRANCH   9  11
ENDBRANCH   7   9
ENDBRANCH   2   5
BRANCH   1  21
ATOM     21  N   UNL     1       7.461   6.024  16.397  0.00  0.00    +0.000 NA
ATOM     22  H   UNL     1       8.239   5.359  16.422  0.00  0.00    +0.000 HD
BRANCH  21  23
ATOM     23  S   UNL     1       5.935   5.560  15.830  0.00  0.00    +0.000 S 
ATOM     24  O   UNL     1       6.127   4.335  15.083  0.00  0.00    +0.000 OA
ATOM     25  O   UNL     1       5.335   6.723  15.210  0.00  0.00    +0.000 OA
BRANCH  23  30
ATOM     26  C   UNL     1       2.627   3.959  20.668  0.00  0.00    +0.000 C 
ATOM     27  C   UNL     1       3.454   4.410  19.498  0.00  0.00    +0.000 A 
ATOM     28  C   UNL     1       2.894   5.190  18.477  0.00  0.00    +0.000 A 
ATOM     29  C   UNL     1       3.662   5.573  17.373  0.00  0.00    +0.000 A 
ATOM     30  C   UNL     1       5.003   5.188  17.294  0.00  0.00    +0.000 A 
ATOM     31  C   UNL     1       5.574   4.411  18.308  0.00  0.00    +0.000 A 
ATOM     32  C   UNL     1       4.797   4.025  19.405  0.00  0.00    +0.000 A 
ENDBRANCH  23  30
ENDBRANCH  21  23
ENDBRANCH   1  21
TORSDOF 7
ENDMDL
MODEL 6
REMARK VINA RESULT:      -7.5      1.423      8.166
REMARK  Name = 
REMARK  9 active torsions:
REMARK  status: ('A' for Active; 'I' for Inactive)
REMARK    1  A    between atoms: C_1  and  C_2
REMARK    2  A    between atoms: C_5  and  S_6
REMARK    3  A    between atoms: S_6  and  N_9
REMARK    4  A    between atoms: N_9  and  N_10
REMARK    5  A    between atoms: C_11  and  C_13
REMARK    6  A    between atoms: N_15  and  N_16
REMARK    7  A    between atoms: N_16  and  S_17
REMARK    8  A    between atoms: S_17  and  C_20
REMARK    9  A    between atoms: C_23  and  C_24
REMARK                            x       y       z     vdW  Elec       q    Type
REMARK                         _______ _______ _______ _____ _____    ______ ____
ROOT
ATOM      1  N   UNL     1       2.077   4.974  18.875  0.00  0.00    +0.000 N 
ATOM      2  C   UNL     1       2.086   5.686  20.057  0.00  0.00    +0.000 C 
ATOM      3  O   UNL     1       2.050   5.211  21.186  0.00  0.00    +0.000 OA
ATOM      4  H   UNL     1       2.086   5.460  17.976  0.00  0.00    +0.000 HD
ENDROOT
BRANCH   2   5
ATOM      5  C   UNL     1       2.143   7.213  19.846  0.00  0.00    +0.000 C 
ATOM      6  O   UNL     1       2.586   7.680  18.804  0.00  0.00    +0.000 OA
ATOM      7  N   UNL     1       1.637   7.946  20.901  0.00  0.00    +0.000 N 
ATOM      8  H   UNL     1       1.205   7.485  21.705  0.00  0.00    +0.000 HD
BRANCH   7   9
ATOM      9  N   UNL     1       1.579   9.410  20.815  0.00  0.00    +0.000 NA
ATOM     10  H   UNL     1       2.143   9.881  20.102  0.00  0.00    +0.000 HD
BRANCH   9  11
ATOM     11  S   UNL     1       0.158  10.163  21.358  0.00  0.00    +0.000 S 
ATOM     12  O   UNL     1      -0.548   9.184  22.160  0.00  0.00    +0.000 OA
ATOM     13  O   UNL     1       0.531  11.444  21.913  0.00  0.00    +0.000 OA
BRANCH  11  14
ATOM     14  C   UNL     1      -0.780  10.433  19.874  0.00  0.00    +0.000 A 
ATOM     15  C   UNL     1      -1.694  11.488  19.809  0.00  0.00    +0.000 A 
ATOM     16  C   UNL     1      -2.348  11.767  18.603  0.00  0.00    +0.000 A 
ATOM     17  C   UNL     1      -2.086  11.004  17.458  0.00  0.00    +0.000 A 
ATOM     18  C   UNL     1      -2.773  11.300  16.154  0.00  0.00    +0.000 C 
ATOM     19  C   UNL     1      -1.156   9.957  17.533  0.00  0.00    +0.000 A 
ATOM     20  C   UNL     1      -0.499   9.673  18.735  0.00  0.00    +0.000 A 
ENDBRANCH  11  14
ENDBRANCH   9  11
ENDBRANCH   7   9
ENDBRANCH   2   5
BRANCH   1  21
ATOM     21  N   UNL     1       2.060   3.515  18.876  0.00  0.00    +0.000 NA
ATOM     22  H   UNL     1       1.173   3.005  18.907  0.00  0.00    +0.000 HD
BRANCH  21  23
ATOM     23  S   UNL     1       3.539   2.693  18.890  0.00  0.00    +0.000 S 
ATOM     24  O   UNL     1       3.458   1.680  17.859  0.00  0.00    +0.000 OA
ATOM     25  O   UNL     1       3.818   2.334  20.266  0.00  0.00    +0.000 OA
BRANCH  23  30
ATOM     26  C   UNL     1       7.366   7.119  17.257  0.00  0.00    +0.000 C 
ATOM     27  C   UNL     1       6.462   5.983  17.642  0.00  0.00    +0.000 A 
ATOM     28  C   UNL     1       5.672   5.333  16.684  0.00  0.00    +0.000 A 
ATOM     29  C   UNL     1       4.806   4.302  17.059  0.00  0.00    +0.000 A 
ATOM     30  C   UNL     1       4.737   3.906  18.397  0.00  0.00    +0.000 A 
ATOM     31  C   UNL     1       5.522   4.546  19.362  0.00  0.00    +0.000 A 
ATOM     32  C   UNL     1       6.381   5.582  18.981  0.00  0.00    +0.000 A 
ENDBRANCH  23  30
ENDBRANCH  21  23
ENDBRANCH   1  21
TORSDOF 7
ENDMDL
MODEL 7
REMARK VINA RESULT:      -7.5      2.446      3.190
REMARK  Name = 
REMARK  9 active torsions:
REMARK  status: ('A' for Active; 'I' for Inactive)
REMARK    1  A    between atoms: C_1  and  C_2
REMARK    2  A    between atoms: C_5  and  S_6
REMARK    3  A    between atoms: S_6  and  N_9
REMARK    4  A    between atoms: N_9  and  N_10
REMARK    5  A    between atoms: C_11  and  C_13
REMARK    6  A    between atoms: N_15  and  N_16
REMARK    7  A    between atoms: N_16  and  S_17
REMARK    8  A    between atoms: S_17  and  C_20
REMARK    9  A    between atoms: C_23  and  C_24
REMARK                            x       y       z     vdW  Elec       q    Type
REMARK                         _______ _______ _______ _____ _____    ______ ____
ROOT
ATOM      1  N   UNL     1       1.791   8.215  19.822  0.00  0.00    +0.000 N 
ATOM      2  C   UNL     1       1.399   7.222  20.696  0.00  0.00    +0.000 C 
ATOM      3  O   UNL     1       0.652   7.361  21.657  0.00  0.00    +0.000 OA
ATOM      4  H   UNL     1       2.439   8.008  19.058  0.00  0.00    +0.000 HD
ENDROOT
BRANCH   2   5
ATOM      5  C   UNL     1       2.006   5.843  20.363  0.00  0.00    +0.000 C 
ATOM      6  O   UNL     1       1.854   4.898  21.128  0.00  0.00    +0.000 OA
ATOM      7  N   UNL     1       2.678   5.800  19.159  0.00  0.00    +0.000 N 
ATOM      8  H   UNL     1       2.692   6.608  18.533  0.00  0.00    +0.000 HD
BRANCH   7   9
ATOM      9  N   UNL     1       3.261   4.538  18.690  0.00  0.00    +0.000 NA
ATOM     10  H   UNL     1       2.820   4.059  17.900  0.00  0.00    +0.000 HD
BRANCH   9  11
ATOM     11  S   UNL     1       4.920   4.302  18.962  0.00  0.00    +0.000 S 
ATOM     12  O   UNL     1       5.389   5.464  19.688  0.00  0.00    +0.000 OA
ATOM     13  O   UNL     1       5.085   2.973  19.506  0.00  0.00    +0.000 OA
BRANCH  11  14
ATOM     14  C   UNL     1       5.633   4.348  17.336  0.00  0.00    +0.000 A 
ATOM     15  C   UNL     1       4.825   4.151  16.213  0.00  0.00    +0.000 A 
ATOM     16  C   UNL     1       5.367   4.298  14.931  0.00  0.00    +0.000 A 
ATOM     17  C   UNL     1       6.711   4.654  14.764  0.00  0.00    +0.000 A 
ATOM     18  C   UNL     1       7.303   4.826  13.393  0.00  0.00    +0.000 C 
ATOM     19  C   UNL     1       7.509   4.862  15.898  0.00  0.00    +0.000 A 
ATOM     20  C   UNL     1       6.973   4.716  17.182  0.00  0.00    +0.000 A 
ENDBRANCH  11  14
ENDBRANCH   9  11
ENDBRANCH   7   9
ENDBRANCH   2   5
BRANCH   1  21
ATOM     21  N   UNL     1       1.290   9.578  19.958  0.00  0.00    +0.000 NA
ATOM     22  H   UNL     1       1.036   9.950  20.878  0.00  0.00    +0.000 HD
BRANCH  21  23
ATOM     23  S   UNL     1       1.081  10.503  18.556  0.00  0.00    +0.000 S 
ATOM     24  O   UNL     1       1.622   9.724  17.462  0.00  0.00    +0.000 OA
ATOM     25  O   UNL     1       1.581  11.833  18.840  0.00  0.00    +0.000 OA
BRANCH  23  30
ATOM     26  C   UNL     1      -4.876  11.160  17.559  0.00  0.00    +0.000 C 
ATOM     27  C   UNL     1      -3.416  10.966  17.857  0.00  0.00    +0.000 A 
ATOM     28  C   UNL     1      -2.750  11.792  18.772  0.00  0.00    +0.000 A 
ATOM     29  C   UNL     1      -1.383  11.627  19.015  0.00  0.00    +0.000 A 
ATOM     30  C   UNL     1      -0.678  10.622  18.349  0.00  0.00    +0.000 A 
ATOM     31  C   UNL     1      -1.331   9.789  17.435  0.00  0.00    +0.000 A 
ATOM     32  C   UNL     1      -2.697   9.965  17.192  0.00  0.00    +0.000 A 
ENDBRANCH  23  30
ENDBRANCH  21  23
ENDBRANCH   1  21
TORSDOF 7
ENDMDL
MODEL 8
REMARK VINA RESULT:      -7.5      2.909      9.182
REMARK  Name = 
REMARK  9 active torsions:
REMARK  status: ('A' for Active; 'I' for Inactive)
REMARK    1  A    between atoms: C_1  and  C_2
REMARK    2  A    between atoms: C_5  and  S_6
REMARK    3  A    between atoms: S_6  and  N_9
REMARK    4  A    between atoms: N_9  and  N_10
REMARK    5  A    between atoms: C_11  and  C_13
REMARK    6  A    between atoms: N_15  and  N_16
REMARK    7  A    between atoms: N_16  and  S_17
REMARK    8  A    between atoms: S_17  and  C_20
REMARK    9  A    between atoms: C_23  and  C_24
REMARK                            x       y       z     vdW  Elec       q    Type
REMARK                         _______ _______ _______ _____ _____    ______ ____
ROOT
ATOM      1  N   UNL     1       2.895   6.113  18.237  0.00  0.00    +0.000 N 
ATOM      2  C   UNL     1       2.470   7.165  19.022  0.00  0.00    +0.000 C 
ATOM      3  O   UNL     1       2.344   7.150  20.241  0.00  0.00    +0.000 OA
ATOM      4  H   UNL     1       2.947   6.211  17.220  0.00  0.00    +0.000 HD
ENDROOT
BRANCH   2   5
ATOM      5  C   UNL     1       2.140   8.435  18.211  0.00  0.00    +0.000 C 
ATOM      6  O   UNL     1       2.668   8.631  17.122  0.00  0.00    +0.000 OA
ATOM      7  N   UNL     1       1.212   9.261  18.812  0.00  0.00    +0.000 N 
ATOM      8  H   UNL     1       0.750   8.991  19.682  0.00  0.00    +0.000 HD
BRANCH   7   9
ATOM      9  N   UNL     1       0.764  10.479  18.128  0.00  0.00    +0.000 NA
ATOM     10  H   UNL     1       0.513  10.420  17.137  0.00  0.00    +0.000 HD
BRANCH   9  11
ATOM     11  S   UNL     1       0.035  11.681  19.081  0.00  0.00    +0.000 S 
ATOM     12  O   UNL     1       0.198  11.269  20.460  0.00  0.00    +0.000 OA
ATOM     13  O   UNL     1       0.536  12.958  18.625  0.00  0.00    +0.000 OA
BRANCH  11  14
ATOM     14  C   UNL     1      -1.690  11.565  18.675  0.00  0.00    +0.000 A 
ATOM     15  C   UNL     1      -2.119  10.655  17.705  0.00  0.00    +0.000 A 
ATOM     16  C   UNL     1      -3.488  10.486  17.467  0.00  0.00    +0.000 A 
ATOM     17  C   UNL     1      -4.433  11.213  18.203  0.00  0.00    +0.000 A 
ATOM     18  C   UNL     1      -5.906  11.033  17.965  0.00  0.00    +0.000 C 
ATOM     19  C   UNL     1      -3.990  12.112  19.183  0.00  0.00    +0.000 A 
ATOM     20  C   UNL     1      -2.624  12.285  19.425  0.00  0.00    +0.000 A 
ENDBRANCH  11  14
ENDBRANCH   9  11
ENDBRANCH   7   9
ENDBRANCH   2   5
BRANCH   1  21
ATOM     21  N   UNL     1       3.285   4.840  18.832  0.00  0.00    +0.000 NA
ATOM     22  H   UNL     1       2.578   4.202  19.208  0.00  0.00    +0.000 HD
BRANCH  21  23
ATOM     23  S   UNL     1       4.935   4.474  18.942  0.00  0.00    +0.000 S 
ATOM     24  O   UNL     1       5.024   3.096  19.378  0.00  0.00    +0.000 OA
ATOM     25  O   UNL     1       5.561   5.537  19.702  0.00  0.00    +0.000 OA
BRANCH  23  30
ATOM     26  C   UNL     1       7.116   4.468  13.272  0.00  0.00    +0.000 C 
ATOM     27  C   UNL     1       6.566   4.530  14.669  0.00  0.00    +0.000 A 
ATOM     28  C   UNL     1       7.360   4.964  15.739  0.00  0.00    +0.000 A 
ATOM     29  C   UNL     1       6.851   4.983  17.040  0.00  0.00    +0.000 A 
ATOM     30  C   UNL     1       5.534   4.579  17.275  0.00  0.00    +0.000 A 
ATOM     31  C   UNL     1       4.730   4.145  16.215  0.00  0.00    +0.000 A 
ATOM     32  C   UNL     1       5.249   4.122  14.917  0.00  0.00    +0.000 A 
ENDBRANCH  23  30
ENDBRANCH  21  23
ENDBRANCH   1  21
TORSDOF 7
ENDMDL
MODEL 9
REMARK VINA RESULT:      -7.5      1.405      8.082
REMARK  Name = 
REMARK  9 active torsions:
REMARK  status: ('A' for Active; 'I' for Inactive)
REMARK    1  A    between atoms: C_1  and  C_2
REMARK    2  A    between atoms: C_5  and  S_6
REMARK    3  A    between atoms: S_6  and  N_9
REMARK    4  A    between atoms: N_9  and  N_10
REMARK    5  A    between atoms: C_11  and  C_13
REMARK    6  A    between atoms: N_15  and  N_16
REMARK    7  A    between atoms: N_16  and  S_17
REMARK    8  A    between atoms: S_17  and  C_20
REMARK    9  A    between atoms: C_23  and  C_24
REMARK                            x       y       z     vdW  Elec       q    Type
REMARK                         _______ _______ _______ _____ _____    ______ ____
ROOT
ATOM      1  N   UNL     1       1.865   4.965  19.069  0.00  0.00    +0.000 N 
ATOM      2  C   UNL     1       2.092   5.656  20.242  0.00  0.00    +0.000 C 
ATOM      3  O   UNL     1       2.289   5.160  21.344  0.00  0.00    +0.000 OA
ATOM      4  H   UNL     1       1.686   5.467  18.196  0.00  0.00    +0.000 HD
ENDROOT
BRANCH   2   5
ATOM      5  C   UNL     1       2.074   7.188  20.059  0.00  0.00    +0.000 C 
ATOM      6  O   UNL     1       2.402   7.689  18.989  0.00  0.00    +0.000 OA
ATOM      7  N   UNL     1       1.641   7.882  21.170  0.00  0.00    +0.000 N 
ATOM      8  H   UNL     1       1.302   7.392  22.000  0.00  0.00    +0.000 HD
BRANCH   7   9
ATOM      9  N   UNL     1       1.523   9.344  21.120  0.00  0.00    +0.000 NA
ATOM     10  H   UNL     1       2.136   9.863  20.485  0.00  0.00    +0.000 HD
BRANCH   9  11
ATOM     11  S   UNL     1       0.017  10.015  21.528  0.00  0.00    +0.000 S 
ATOM     12  O   UNL     1      -0.771   8.942  22.100  0.00  0.00    +0.000 OA
ATOM     13  O   UNL     1       0.271  11.227  22.274  0.00  0.00    +0.000 OA
BRANCH  11  14
ATOM     14  C   UNL     1      -0.700  10.446  19.961  0.00  0.00    +0.000 A 
ATOM     15  C   UNL     1      -0.381   9.705  18.820  0.00  0.00    +0.000 A 
ATOM     16  C   UNL     1      -1.032   9.975  17.610  0.00  0.00    +0.000 A 
ATOM     17  C   UNL     1      -2.010  10.976  17.537  0.00  0.00    +0.000 A 
ATOM     18  C   UNL     1      -2.724  11.269  16.248  0.00  0.00    +0.000 C 
ATOM     19  C   UNL     1      -2.330  11.703  18.693  0.00  0.00    +0.000 A 
ATOM     20  C   UNL     1      -1.683  11.437  19.904  0.00  0.00    +0.000 A 
ENDBRANCH  11  14
ENDBRANCH   9  11
ENDBRANCH   7   9
ENDBRANCH   2   5
BRANCH   1  21
ATOM     21  N   UNL     1       1.879   3.507  19.041  0.00  0.00    +0.000 NA
ATOM     22  H   UNL     1       1.070   2.972  19.369  0.00  0.00    +0.000 HD
BRANCH  21  23
ATOM     23  S   UNL     1       3.285   2.725  18.513  0.00  0.00    +0.000 S 
ATOM     24  O   UNL     1       2.953   2.077  17.262  0.00  0.00    +0.000 OA
ATOM     25  O   UNL     1       3.799   1.963  19.633  0.00  0.00    +0.000 OA
BRANCH  23  30
ATOM     26  C   UNL     1       7.481   6.943  17.278  0.00  0.00    +0.000 C 
ATOM     27  C   UNL     1       6.407   5.944  17.607  0.00  0.00    +0.000 A 
ATOM     28  C   UNL     1       6.286   5.414  18.899  0.00  0.00    +0.000 A 
ATOM     29  C   UNL     1       5.308   4.458  19.187  0.00  0.00    +0.000 A 
ATOM     30  C   UNL     1       4.435   4.037  18.181  0.00  0.00    +0.000 A 
ATOM     31  C   UNL     1       4.544   4.559  16.888  0.00  0.00    +0.000 A 
ATOM     32  C   UNL     1       5.530   5.510  16.606  0.00  0.00    +0.000 A 
ENDBRANCH  23  30
ENDBRANCH  21  23
ENDBRANCH   1  21
TORSDOF 7
ENDMDL
