MODEL 1
REMARK VINA RESULT:      -7.6      0.000      0.000
REMARK  Name = 
REMARK  8 active torsions:
REMARK  status: ('A' for Active; 'I' for Inactive)
REMARK    1  A    between atoms: C_1  and  O_2
REMARK    2  A    between atoms: O_2  and  C_3
REMARK    3  A    between atoms: C_6  and  N_7
REMARK    4  A    between atoms: C_11  and  S_12
REMARK    5  A    between atoms: S_12  and  C_15
REMARK    6  A    between atoms: C_15  and  C_16
REMARK    7  A    between atoms: C_18  and  N_19
REMARK    8  A    between atoms: C_23  and  N_24
REMARK                            x       y       z     vdW  Elec       q    Type
REMARK                         _______ _______ _______ _____ _____    ______ ____
ROOT
ATOM      1  S   UNL     1       1.974   5.295  19.549  0.00  0.00    +0.000 S 
ATOM      2  O   UNL     1       1.887   5.051  18.123  0.00  0.00    +0.000 OA
ATOM      3  O   UNL     1       0.809   5.258  20.411  0.00  0.00    +0.000 OA
ENDROOT
BRANCH   1   8
ATOM      4  N   UNL     1       4.203   3.611  19.592  0.00  0.00    +0.000 N 
ATOM      5  N   UNL     1       4.504   2.425  20.183  0.00  0.00    +0.000 NA
ATOM      6  N   UNL     1       3.667   2.292  21.197  0.00  0.00    +0.000 NA
ATOM      7  N   UNL     1       2.755   3.309  21.217  0.00  0.00    +0.000 NA
ATOM      8  C   UNL     1       3.056   4.091  20.194  0.00  0.00    +0.000 A 
BRANCH   4  12
ATOM      9  C   UNL     1       6.565   5.245  16.487  0.00  0.00    +0.000 A 
ATOM     10  C   UNL     1       5.597   4.279  16.205  0.00  0.00    +0.000 A 
ATOM     11  C   UNL     1       4.828   3.716  17.234  0.00  0.00    +0.000 A 
ATOM     12  C   UNL     1       5.026   4.126  18.560  0.00  0.00    +0.000 A 
ATOM     13  C   UNL     1       6.071   5.007  18.840  0.00  0.00    +0.000 A 
ATOM     14  C   UNL     1       6.825   5.575  17.811  0.00  0.00    +0.000 A 
BRANCH   9  16
ATOM     15  C   UNL     1       7.147   4.987  14.219  0.00  0.00    +0.000 C 
ATOM     16  O   UNL     1       7.242   5.759  15.415  0.00  0.00    +0.000 OA
ENDBRANCH   9  16
ENDBRANCH   4  12
ENDBRANCH   1   8
BRANCH   1  17
ATOM     17  C   UNL     1       2.834   6.847  19.757  0.00  0.00    +0.000 C 
BRANCH  17  18
ATOM     18  C   UNL     1       1.805   7.909  20.090  0.00  0.00    +0.000 A 
ATOM     19  C   UNL     1       1.207   8.657  19.062  0.00  0.00    +0.000 A 
ATOM     20  C   UNL     1       0.303   9.690  19.366  0.00  0.00    +0.000 A 
ATOM     21  C   UNL     1      -0.025   9.992  20.692  0.00  0.00    +0.000 A 
ATOM     22  C   UNL     1       0.570   9.247  21.718  0.00  0.00    +0.000 A 
ATOM     23  C   UNL     1       1.478   8.213  21.425  0.00  0.00    +0.000 A 
BRANCH  20  24
ATOM     24  N   UNL     1      -0.298  10.469  18.273  0.00  0.00    +0.000 N 
ATOM     25  O   UNL     1      -0.915   9.848  17.398  0.00  0.00    +0.000 OA
ATOM     26  O   UNL     1      -0.156  11.699  18.300  0.00  0.00    +0.000 OA
ENDBRANCH  20  24
BRANCH  22  27
ATOM     27  N   UNL     1       0.250   9.560  23.119  0.00  0.00    +0.000 N 
ATOM     28  O   UNL     1       1.147   9.418  23.958  0.00  0.00    +0.000 OA
ATOM     29  O   UNL     1      -0.896   9.956  23.372  0.00  0.00    +0.000 OA
ENDBRANCH  22  27
ENDBRANCH  17  18
ENDBRANCH   1  17
TORSDOF 7
ENDMDL
MODEL 2
REMARK VINA RESULT:      -7.6      0.166      1.073
REMARK  Name = 
REMARK  8 active torsions:
REMARK  status: ('A' for Active; 'I' for Inactive)
REMARK    1  A    between atoms: C_1  and  O_2
REMARK    2  A    between atoms: O_2  and  C_3
REMARK    3  A    between atoms: C_6  and  N_7
REMARK    4  A    between atoms: C_11  and  S_12
REMARK    5  A    between atoms: S_12  and  C_15
REMARK    6  A    between atoms: C_15  and  C_16
REMARK    7  A    between atoms: C_18  and  N_19
REMARK    8  A    between atoms: C_23  and  N_24
REMARK                            x       y       z     vdW  Elec       q    Type
REMARK                         _______ _______ _______ _____ _____    ______ ____
ROOT
ATOM      1  S   UNL     1       1.979   5.294  19.595  0.00  0.00    +0.000 S 
ATOM      2  O   UNL     1       1.792   5.038  18.180  0.00  0.00    +0.000 OA
ATOM      3  O   UNL     1       0.880   5.255  20.539  0.00  0.00    +0.000 OA
ENDROOT
BRANCH   1   8
ATOM      4  N   UNL     1       4.226   3.636  19.494  0.00  0.00    +0.000 N 
ATOM      5  N   UNL     1       4.578   2.454  20.064  0.00  0.00    +0.000 NA
ATOM      6  N   UNL     1       3.809   2.312  21.130  0.00  0.00    +0.000 NA
ATOM      7  N   UNL     1       2.889   3.318  21.209  0.00  0.00    +0.000 NA
ATOM      8  C   UNL     1       3.114   4.103  20.169  0.00  0.00    +0.000 A 
BRANCH   4  12
ATOM      9  C   UNL     1       6.550   5.097  16.277  0.00  0.00    +0.000 A 
ATOM     10  C   UNL     1       6.839   5.479  17.588  0.00  0.00    +0.000 A 
ATOM     11  C   UNL     1       6.057   5.017  18.656  0.00  0.00    +0.000 A 
ATOM     12  C   UNL     1       4.974   4.160  18.411  0.00  0.00    +0.000 A 
ATOM     13  C   UNL     1       4.629   3.878  17.089  0.00  0.00    +0.000 A 
ATOM     14  C   UNL     1       5.419   4.328  16.030  0.00  0.00    +0.000 A 
BRANCH   9  16
ATOM     15  C   UNL     1       7.301   4.892  14.054  0.00  0.00    +0.000 C 
ATOM     16  O   UNL     1       7.389   5.572  15.305  0.00  0.00    +0.000 OA
ENDBRANCH   9  16
ENDBRANCH   4  12
ENDBRANCH   1   8
BRANCH   1  17
ATOM     17  C   UNL     1       2.840   6.854  19.729  0.00  0.00    +0.000 C 
BRANCH  17  18
ATOM     18  C   UNL     1       1.821   7.918  20.087  0.00  0.00    +0.000 A 
ATOM     19  C   UNL     1       1.174   8.643  19.073  0.00  0.00    +0.000 A 
ATOM     20  C   UNL     1       0.280   9.678  19.397  0.00  0.00    +0.000 A 
ATOM     21  C   UNL     1       0.011  10.006  20.731  0.00  0.00    +0.000 A 
ATOM     22  C   UNL     1       0.656   9.284  21.743  0.00  0.00    +0.000 A 
ATOM     23  C   UNL     1       1.555   8.248  21.429  0.00  0.00    +0.000 A 
BRANCH  20  24
ATOM     24  N   UNL     1      -0.374  10.433  18.318  0.00  0.00    +0.000 N 
ATOM     25  O   UNL     1      -0.319  11.669  18.367  0.00  0.00    +0.000 OA
ATOM     26  O   UNL     1      -0.932   9.785  17.422  0.00  0.00    +0.000 OA
ENDBRANCH  20  24
BRANCH  22  27
ATOM     27  N   UNL     1       0.399   9.624  23.151  0.00  0.00    +0.000 N 
ATOM     28  O   UNL     1       1.277   9.350  23.977  0.00  0.00    +0.000 OA
ATOM     29  O   UNL     1      -0.678  10.173  23.421  0.00  0.00    +0.000 OA
ENDBRANCH  22  27
ENDBRANCH  17  18
ENDBRANCH   1  17
TORSDOF 7
ENDMDL
MODEL 3
REMARK VINA RESULT:      -7.5      3.001      6.990
REMARK  Name = 
REMARK  8 active torsions:
REMARK  status: ('A' for Active; 'I' for Inactive)
REMARK    1  A    between atoms: C_1  and  O_2
REMARK    2  A    between atoms: O_2  and  C_3
REMARK    3  A    between atoms: C_6  and  N_7
REMARK    4  A    between atoms: C_11  and  S_12
REMARK    5  A    between atoms: S_12  and  C_15
REMARK    6  A    between atoms: C_15  and  C_16
REMARK    7  A    between atoms: C_18  and  N_19
REMARK    8  A    between atoms: C_23  and  N_24
REMARK                            x       y       z     vdW  Elec       q    Type
REMARK                         _______ _______ _______ _____ _____    ______ ____
ROOT
ATOM      1  S   UNL     1       4.473   3.504  19.318  0.00  0.00    +0.000 S 
ATOM      2  O   UNL     1       4.952   4.859  19.504  0.00  0.00    +0.000 OA
ATOM      3  O   UNL     1       5.096   2.368  19.968  0.00  0.00    +0.000 OA
ENDROOT
BRANCH   1   8
ATOM      4  N   UNL     1       1.996   4.582  20.030  0.00  0.00    +0.000 N 
ATOM      5  N   UNL     1       0.978   4.203  20.845  0.00  0.00    +0.000 NA
ATOM      6  N   UNL     1       1.104   2.898  21.015  0.00  0.00    +0.000 NA
ATOM      7  N   UNL     1       2.241   2.433  20.418  0.00  0.00    +0.000 NA
ATOM      8  C   UNL     1       2.816   3.484  19.859  0.00  0.00    +0.000 A 
BRANCH   4  12
ATOM      9  C   UNL     1       2.041   8.519  18.483  0.00  0.00    +0.000 A 
ATOM     10  C   UNL     1       2.356   7.434  17.664  0.00  0.00    +0.000 A 
ATOM     11  C   UNL     1       2.367   6.129  18.177  0.00  0.00    +0.000 A 
ATOM     12  C   UNL     1       2.054   5.905  19.526  0.00  0.00    +0.000 A 
ATOM     13  C   UNL     1       1.853   7.006  20.358  0.00  0.00    +0.000 A 
ATOM     14  C   UNL     1       1.830   8.302  19.840  0.00  0.00    +0.000 A 
BRANCH   9  16
ATOM     15  C   UNL     1       1.424  10.784  18.662  0.00  0.00    +0.000 C 
ATOM     16  O   UNL     1       2.025   9.749  17.886  0.00  0.00    +0.000 OA
ENDBRANCH   9  16
ENDBRANCH   4  12
ENDBRANCH   1   8
BRANCH   1  17
ATOM     17  C   UNL     1       4.387   3.222  17.555  0.00  0.00    +0.000 C 
BRANCH  17  18
ATOM     18  C   UNL     1       5.368   4.165  16.885  0.00  0.00    +0.000 A 
ATOM     19  C   UNL     1       5.689   3.997  15.528  0.00  0.00    +0.000 A 
ATOM     20  C   UNL     1       6.649   4.823  14.917  0.00  0.00    +0.000 A 
ATOM     21  C   UNL     1       7.299   5.829  15.641  0.00  0.00    +0.000 A 
ATOM     22  C   UNL     1       6.979   5.997  16.994  0.00  0.00    +0.000 A 
ATOM     23  C   UNL     1       6.022   5.174  17.616  0.00  0.00    +0.000 A 
BRANCH  20  24
ATOM     24  N   UNL     1       6.980   4.619  13.499  0.00  0.00    +0.000 N 
ATOM     25  O   UNL     1       7.800   5.392  12.984  0.00  0.00    +0.000 OA
ATOM     26  O   UNL     1       6.425   3.682  12.910  0.00  0.00    +0.000 OA
ENDBRANCH  20  24
BRANCH  22  27
ATOM     27  N   UNL     1       7.663   7.038  17.776  0.00  0.00    +0.000 N 
ATOM     28  O   UNL     1       8.144   6.713  18.867  0.00  0.00    +0.000 OA
ATOM     29  O   UNL     1       7.724   8.175  17.288  0.00  0.00    +0.000 OA
ENDBRANCH  22  27
ENDBRANCH  17  18
ENDBRANCH   1  17
TORSDOF 7
ENDMDL
MODEL 4
REMARK VINA RESULT:      -7.5      3.034      7.393
REMARK  Name = 
REMARK  8 active torsions:
REMARK  status: ('A' for Active; 'I' for Inactive)
REMARK    1  A    between atoms: C_1  and  O_2
REMARK    2  A    between atoms: O_2  and  C_3
REMARK    3  A    between atoms: C_6  and  N_7
REMARK    4  A    between atoms: C_11  and  S_12
REMARK    5  A    between atoms: S_12  and  C_15
REMARK    6  A    between atoms: C_15  and  C_16
REMARK    7  A    between atoms: C_18  and  N_19
REMARK    8  A    between atoms: C_23  and  N_24
REMARK                            x       y       z     vdW  Elec       q    Type
REMARK                         _______ _______ _______ _____ _____    ______ ____
ROOT
ATOM      1  S   UNL     1       4.523   3.414  19.286  0.00  0.00    +0.000 S 
ATOM      2  O   UNL     1       5.065   4.730  19.556  0.00  0.00    +0.000 OA
ATOM      3  O   UNL     1       5.150   2.204  19.781  0.00  0.00    +0.000 OA
ENDROOT
BRANCH   1   8
ATOM      4  N   UNL     1       2.081   4.486  20.119  0.00  0.00    +0.000 N 
ATOM      5  N   UNL     1       1.135   4.137  21.030  0.00  0.00    +0.000 NA
ATOM      6  N   UNL     1       1.304   2.847  21.265  0.00  0.00    +0.000 NA
ATOM      7  N   UNL     1       2.404   2.369  20.613  0.00  0.00    +0.000 NA
ATOM      8  C   UNL     1       2.912   3.395  19.951  0.00  0.00    +0.000 A 
BRANCH   4  12
ATOM      9  C   UNL     1       2.183   8.357  18.418  0.00  0.00    +0.000 A 
ATOM     10  C   UNL     1       1.857   8.185  19.764  0.00  0.00    +0.000 A 
ATOM     11  C   UNL     1       1.797   6.902  20.327  0.00  0.00    +0.000 A 
ATOM     12  C   UNL     1       2.072   5.777  19.536  0.00  0.00    +0.000 A 
ATOM     13  C   UNL     1       2.285   5.956  18.169  0.00  0.00    +0.000 A 
ATOM     14  C   UNL     1       2.356   7.235  17.616  0.00  0.00    +0.000 A 
BRANCH   9  16
ATOM     15  C   UNL     1       1.370  10.557  18.626  0.00  0.00    +0.000 C 
ATOM     16  O   UNL     1       2.248   9.647  17.966  0.00  0.00    +0.000 OA
ENDBRANCH   9  16
ENDBRANCH   4  12
ENDBRANCH   1   8
BRANCH   1  17
ATOM     17  C   UNL     1       4.295   3.299  17.518  0.00  0.00    +0.000 C 
BRANCH  17  18
ATOM     18  C   UNL     1       5.370   4.138  16.855  0.00  0.00    +0.000 A 
ATOM     19  C   UNL     1       6.006   5.163  17.573  0.00  0.00    +0.000 A 
ATOM     20  C   UNL     1       6.955   5.989  16.946  0.00  0.00    +0.000 A 
ATOM     21  C   UNL     1       7.289   5.808  15.599  0.00  0.00    +0.000 A 
ATOM     22  C   UNL     1       6.656   4.786  14.882  0.00  0.00    +0.000 A 
ATOM     23  C   UNL     1       5.703   3.954  15.500  0.00  0.00    +0.000 A 
BRANCH  20  24
ATOM     24  N   UNL     1       7.596   7.066  17.715  0.00  0.00    +0.000 N 
ATOM     25  O   UNL     1       7.590   8.203  17.224  0.00  0.00    +0.000 OA
ATOM     26  O   UNL     1       8.095   6.771  18.808  0.00  0.00    +0.000 OA
ENDBRANCH  20  24
BRANCH  22  27
ATOM     27  N   UNL     1       6.982   4.588  13.461  0.00  0.00    +0.000 N 
ATOM     28  O   UNL     1       7.785   5.372  12.943  0.00  0.00    +0.000 OA
ATOM     29  O   UNL     1       6.440   3.643  12.874  0.00  0.00    +0.000 OA
ENDBRANCH  22  27
ENDBRANCH  17  18
ENDBRANCH   1  17
TORSDOF 7
ENDMDL
MODEL 5
REMARK VINA RESULT:      -7.5      1.063      1.606
REMARK  Name = 
REMARK  8 active torsions:
REMARK  status: ('A' for Active; 'I' for Inactive)
REMARK    1  A    between atoms: C_1  and  O_2
REMARK    2  A    between atoms: O_2  and  C_3
REMARK    3  A    between atoms: C_6  and  N_7
REMARK    4  A    between atoms: C_11  and  S_12
REMARK    5  A    between atoms: S_12  and  C_15
REMARK    6  A    between atoms: C_15  and  C_16
REMARK    7  A    between atoms: C_18  and  N_19
REMARK    8  A    between atoms: C_23  and  N_24
REMARK                            x       y       z     vdW  Elec       q    Type
REMARK                         _______ _______ _______ _____ _____    ______ ____
ROOT
ATOM      1  S   UNL     1       2.086   5.361  19.433  0.00  0.00    +0.000 S 
ATOM      2  O   UNL     1       1.891   5.257  18.001  0.00  0.00    +0.000 OA
ATOM      3  O   UNL     1       0.999   5.191  20.376  0.00  0.00    +0.000 OA
ENDROOT
BRANCH   1   8
ATOM      4  N   UNL     1       4.546   4.036  19.381  0.00  0.00    +0.000 N 
ATOM      5  N   UNL     1       4.960   2.763  19.613  0.00  0.00    +0.000 NA
ATOM      6  N   UNL     1       4.018   2.192  20.344  0.00  0.00    +0.000 NA
ATOM      7  N   UNL     1       2.949   3.027  20.504  0.00  0.00    +0.000 NA
ATOM      8  C   UNL     1       3.255   4.142  19.864  0.00  0.00    +0.000 A 
BRANCH   4  12
ATOM      9  C   UNL     1       7.048   6.916  17.556  0.00  0.00    +0.000 A 
ATOM     10  C   UNL     1       5.891   6.474  16.911  0.00  0.00    +0.000 A 
ATOM     11  C   UNL     1       5.071   5.501  17.500  0.00  0.00    +0.000 A 
ATOM     12  C   UNL     1       5.409   4.967  18.752  0.00  0.00    +0.000 A 
ATOM     13  C   UNL     1       6.623   5.334  19.331  0.00  0.00    +0.000 A 
ATOM     14  C   UNL     1       7.430   6.312  18.748  0.00  0.00    +0.000 A 
BRANCH   9  16
ATOM     15  C   UNL     1       8.116   9.008  17.734  0.00  0.00    +0.000 C 
ATOM     16  O   UNL     1       7.766   7.890  16.918  0.00  0.00    +0.000 OA
ENDBRANCH   9  16
ENDBRANCH   4  12
ENDBRANCH   1   8
BRANCH   1  17
ATOM     17  C   UNL     1       2.911   6.918  19.732  0.00  0.00    +0.000 C 
BRANCH  17  18
ATOM     18  C   UNL     1       1.851   7.949  20.065  0.00  0.00    +0.000 A 
ATOM     19  C   UNL     1       1.253   8.699  19.039  0.00  0.00    +0.000 A 
ATOM     20  C   UNL     1       0.319   9.705  19.345  0.00  0.00    +0.000 A 
ATOM     21  C   UNL     1      -0.037   9.979  20.670  0.00  0.00    +0.000 A 
ATOM     22  C   UNL     1       0.560   9.231  21.694  0.00  0.00    +0.000 A 
ATOM     23  C   UNL     1       1.497   8.223  21.399  0.00  0.00    +0.000 A 
BRANCH  20  24
ATOM     24  N   UNL     1      -0.283  10.488  18.255  0.00  0.00    +0.000 N 
ATOM     25  O   UNL     1      -0.079  11.710  18.246  0.00  0.00    +0.000 OA
ATOM     26  O   UNL     1      -0.948   9.876  17.410  0.00  0.00    +0.000 OA
ENDBRANCH  20  24
BRANCH  22  27
ATOM     27  N   UNL     1       0.211   9.514  23.094  0.00  0.00    +0.000 N 
ATOM     28  O   UNL     1      -0.952   9.855  23.338  0.00  0.00    +0.000 OA
ATOM     29  O   UNL     1       1.100   9.381  23.946  0.00  0.00    +0.000 OA
ENDBRANCH  22  27
ENDBRANCH  17  18
ENDBRANCH   1  17
TORSDOF 7
ENDMDL
MODEL 6
REMARK VINA RESULT:      -7.5      2.358      7.605
REMARK  Name = 
REMARK  8 active torsions:
REMARK  status: ('A' for Active; 'I' for Inactive)
REMARK    1  A    between atoms: C_1  and  O_2
REMARK    2  A    between atoms: O_2  and  C_3
REMARK    3  A    between atoms: C_6  and  N_7
REMARK    4  A    between atoms: C_11  and  S_12
REMARK    5  A    between atoms: S_12  and  C_15
REMARK    6  A    between atoms: C_15  and  C_16
REMARK    7  A    between atoms: C_18  and  N_19
REMARK    8  A    between atoms: C_23  and  N_24
REMARK                            x       y       z     vdW  Elec       q    Type
REMARK                         _______ _______ _______ _____ _____    ______ ____
ROOT
ATOM      1  S   UNL     1       2.344   4.423  17.806  0.00  0.00    +0.000 S 
ATOM      2  O   UNL     1       1.084   4.043  17.200  0.00  0.00    +0.000 OA
ATOM      3  O   UNL     1       2.926   5.738  17.620  0.00  0.00    +0.000 OA
ENDROOT
BRANCH   1   8
ATOM      4  N   UNL     1       2.045   5.288  20.446  0.00  0.00    +0.000 N 
ATOM      5  N   UNL     1       2.321   4.764  21.669  0.00  0.00    +0.000 NA
ATOM      6  N   UNL     1       2.409   3.456  21.502  0.00  0.00    +0.000 NA
ATOM      7  N   UNL     1       2.305   3.122  20.182  0.00  0.00    +0.000 NA
ATOM      8  C   UNL     1       2.136   4.259  19.529  0.00  0.00    +0.000 A 
BRANCH   4  12
ATOM      9  C   UNL     1       1.016   9.361  19.954  0.00  0.00    +0.000 A 
ATOM     10  C   UNL     1       1.898   8.742  19.066  0.00  0.00    +0.000 A 
ATOM     11  C   UNL     1       2.262   7.399  19.239  0.00  0.00    +0.000 A 
ATOM     12  C   UNL     1       1.735   6.664  20.310  0.00  0.00    +0.000 A 
ATOM     13  C   UNL     1       0.945   7.324  21.251  0.00  0.00    +0.000 A 
ATOM     14  C   UNL     1       0.575   8.657  21.068  0.00  0.00    +0.000 A 
BRANCH   9  16
ATOM     15  C   UNL     1      -0.289  10.841  18.668  0.00  0.00    +0.000 C 
ATOM     16  O   UNL     1       0.695  10.663  19.686  0.00  0.00    +0.000 OA
ENDBRANCH   9  16
ENDBRANCH   4  12
ENDBRANCH   1   8
BRANCH   1  17
ATOM     17  C   UNL     1       3.533   3.165  17.363  0.00  0.00    +0.000 C 
BRANCH  17  18
ATOM     18  C   UNL     1       4.856   3.852  17.087  0.00  0.00    +0.000 A 
ATOM     19  C   UNL     1       5.573   4.447  18.138  0.00  0.00    +0.000 A 
ATOM     20  C   UNL     1       6.766   5.145  17.881  0.00  0.00    +0.000 A 
ATOM     21  C   UNL     1       7.267   5.259  16.580  0.00  0.00    +0.000 A 
ATOM     22  C   UNL     1       6.553   4.666  15.531  0.00  0.00    +0.000 A 
ATOM     23  C   UNL     1       5.357   3.967  15.777  0.00  0.00    +0.000 A 
BRANCH  20  24
ATOM     24  N   UNL     1       7.490   5.773  18.996  0.00  0.00    +0.000 N 
ATOM     25  O   UNL     1       8.164   6.782  18.746  0.00  0.00    +0.000 OA
ATOM     26  O   UNL     1       7.375   5.260  20.116  0.00  0.00    +0.000 OA
ENDBRANCH  20  24
BRANCH  22  27
ATOM     27  N   UNL     1       7.056   4.787  14.154  0.00  0.00    +0.000 N 
ATOM     28  O   UNL     1       6.548   4.061  13.291  0.00  0.00    +0.000 OA
ATOM     29  O   UNL     1       7.949   5.617  13.940  0.00  0.00    +0.000 OA
ENDBRANCH  22  27
ENDBRANCH  17  18
ENDBRANCH   1  17
TORSDOF 7
ENDMDL
MODEL 7
REMARK VINA RESULT:      -7.5      0.208      2.786
REMARK  Name = 
REMARK  8 active torsions:
REMARK  status: ('A' for Active; 'I' for Inactive)
REMARK    1  A    between atoms: C_1  and  O_2
REMARK    2  A    between atoms: O_2  and  C_3
REMARK    3  A    between atoms: C_6  and  N_7
REMARK    4  A    between atoms: C_11  and  S_12
REMARK    5  A    between atoms: S_12  and  C_15
REMARK    6  A    between atoms: C_15  and  C_16
REMARK    7  A    between atoms: C_18  and  N_19
REMARK    8  A    between atoms: C_23  and  N_24
REMARK                            x       y       z     vdW  Elec       q    Type
REMARK                         _______ _______ _______ _____ _____    ______ ____
ROOT
ATOM      1  S   UNL     1       1.853   5.452  19.612  0.00  0.00    +0.000 S 
ATOM      2  O   UNL     1       1.791   5.207  18.185  0.00  0.00    +0.000 OA
ATOM      3  O   UNL     1       0.668   5.474  20.446  0.00  0.00    +0.000 OA
ENDROOT
BRANCH   1   8
ATOM      4  N   UNL     1       3.998   3.663  19.714  0.00  0.00    +0.000 N 
ATOM      5  N   UNL     1       4.227   2.467  20.315  0.00  0.00    +0.000 NA
ATOM      6  N   UNL     1       3.360   2.378  21.309  0.00  0.00    +0.000 NA
ATOM      7  N   UNL     1       2.498   3.437  21.304  0.00  0.00    +0.000 NA
ATOM      8  C   UNL     1       2.860   4.200  20.287  0.00  0.00    +0.000 A 
BRANCH   4  12
ATOM      9  C   UNL     1       6.507   5.166  16.659  0.00  0.00    +0.000 A 
ATOM     10  C   UNL     1       5.532   4.211  16.367  0.00  0.00    +0.000 A 
ATOM     11  C   UNL     1       4.714   3.691  17.380  0.00  0.00    +0.000 A 
ATOM     12  C   UNL     1       4.869   4.135  18.701  0.00  0.00    +0.000 A 
ATOM     13  C   UNL     1       5.919   5.003  18.997  0.00  0.00    +0.000 A 
ATOM     14  C   UNL     1       6.723   5.529  17.983  0.00  0.00    +0.000 A 
BRANCH   9  16
ATOM     15  C   UNL     1       7.045   4.927  14.379  0.00  0.00    +0.000 C 
ATOM     16  O   UNL     1       7.234   5.638  15.601  0.00  0.00    +0.000 OA
ENDBRANCH   9  16
ENDBRANCH   4  12
ENDBRANCH   1   8
BRANCH   1  17
ATOM     17  C   UNL     1       2.782   6.962  19.838  0.00  0.00    +0.000 C 
BRANCH  17  18
ATOM     18  C   UNL     1       1.794   8.077  20.122  0.00  0.00    +0.000 A 
ATOM     19  C   UNL     1       1.426   8.371  21.445  0.00  0.00    +0.000 A 
ATOM     20  C   UNL     1       0.460   9.356  21.713  0.00  0.00    +0.000 A 
ATOM     21  C   UNL     1      -0.150  10.067  20.674  0.00  0.00    +0.000 A 
ATOM     22  C   UNL     1       0.216   9.776  19.354  0.00  0.00    +0.000 A 
ATOM     23  C   UNL     1       1.181   8.789  19.075  0.00  0.00    +0.000 A 
BRANCH  20  24
ATOM     24  N   UNL     1       0.079   9.635  23.106  0.00  0.00    +0.000 N 
ATOM     25  O   UNL     1      -1.077  10.024  23.317  0.00  0.00    +0.000 OA
ATOM     26  O   UNL     1       0.936   9.455  23.982  0.00  0.00    +0.000 OA
ENDBRANCH  20  24
BRANCH  22  27
ATOM     27  N   UNL     1      -0.425  10.502  18.248  0.00  0.00    +0.000 N 
ATOM     28  O   UNL     1      -1.057   9.839  17.417  0.00  0.00    +0.000 OA
ATOM     29  O   UNL     1      -0.301  11.734  18.221  0.00  0.00    +0.000 OA
ENDBRANCH  22  27
ENDBRANCH  17  18
ENDBRANCH   1  17
TORSDOF 7
ENDMDL
MODEL 8
REMARK VINA RESULT:      -7.4      3.043      7.029
REMARK  Name = 
REMARK  8 active torsions:
REMARK  status: ('A' for Active; 'I' for Inactive)
REMARK    1  A    between atoms: C_1  and  O_2
REMARK    2  A    between atoms: O_2  and  C_3
REMARK    3  A    between atoms: C_6  and  N_7
REMARK    4  A    between atoms: C_11  and  S_12
REMARK    5  A    between atoms: S_12  and  C_15
REMARK    6  A    between atoms: C_15  and  C_16
REMARK    7  A    between atoms: C_18  and  N_19
REMARK    8  A    between atoms: C_23  and  N_24
REMARK                            x       y       z     vdW  Elec       q    Type
REMARK                         _______ _______ _______ _____ _____    ______ ____
ROOT
ATOM      1  S   UNL     1       4.448   3.294  19.346  0.00  0.00    +0.000 S 
ATOM      2  O   UNL     1       4.978   4.628  19.545  0.00  0.00    +0.000 OA
ATOM      3  O   UNL     1       5.083   2.118  19.908  0.00  0.00    +0.000 OA
ENDROOT
BRANCH   1   8
ATOM      4  N   UNL     1       2.019   4.401  20.172  0.00  0.00    +0.000 N 
ATOM      5  N   UNL     1       1.065   4.064  21.079  0.00  0.00    +0.000 NA
ATOM      6  N   UNL     1       1.214   2.772  21.314  0.00  0.00    +0.000 NA
ATOM      7  N   UNL     1       2.310   2.279  20.665  0.00  0.00    +0.000 NA
ATOM      8  C   UNL     1       2.834   3.298  20.005  0.00  0.00    +0.000 A 
BRANCH   4  12
ATOM      9  C   UNL     1       2.183   8.269  18.470  0.00  0.00    +0.000 A 
ATOM     10  C   UNL     1       1.893   8.105  19.825  0.00  0.00    +0.000 A 
ATOM     11  C   UNL     1       1.812   6.824  20.390  0.00  0.00    +0.000 A 
ATOM     12  C   UNL     1       2.029   5.692  19.590  0.00  0.00    +0.000 A 
ATOM     13  C   UNL     1       2.206   5.866  18.218  0.00  0.00    +0.000 A 
ATOM     14  C   UNL     1       2.299   7.143  17.662  0.00  0.00    +0.000 A 
BRANCH   9  16
ATOM     15  C   UNL     1       1.317  10.456  18.577  0.00  0.00    +0.000 C 
ATOM     16  O   UNL     1       2.272   9.557  18.017  0.00  0.00    +0.000 OA
ENDBRANCH   9  16
ENDBRANCH   4  12
ENDBRANCH   1   8
BRANCH   1  17
ATOM     17  C   UNL     1       4.227   3.082  17.586  0.00  0.00    +0.000 C 
BRANCH  17  18
ATOM     18  C   UNL     1       5.212   3.993  16.880  0.00  0.00    +0.000 A 
ATOM     19  C   UNL     1       5.491   3.806  15.516  0.00  0.00    +0.000 A 
ATOM     20  C   UNL     1       6.454   4.602  14.872  0.00  0.00    +0.000 A 
ATOM     21  C   UNL     1       7.151   5.595  15.568  0.00  0.00    +0.000 A 
ATOM     22  C   UNL     1       6.874   5.783  16.928  0.00  0.00    +0.000 A 
ATOM     23  C   UNL     1       5.913   4.990  17.584  0.00  0.00    +0.000 A 
BRANCH  20  24
ATOM     24  N   UNL     1       6.740   4.377  13.446  0.00  0.00    +0.000 N 
ATOM     25  O   UNL     1       7.648   5.044  12.932  0.00  0.00    +0.000 OA
ATOM     26  O   UNL     1       6.062   3.529  12.852  0.00  0.00    +0.000 OA
ENDBRANCH  20  24
BRANCH  22  27
ATOM     27  N   UNL     1       7.606   6.812  17.681  0.00  0.00    +0.000 N 
ATOM     28  O   UNL     1       7.764   7.913  17.143  0.00  0.00    +0.000 OA
ATOM     29  O   UNL     1       8.010   6.516  18.814  0.00  0.00    +0.000 OA
ENDBRANCH  22  27
ENDBRANCH  17  18
ENDBRANCH   1  17
TORSDOF 7
ENDMDL
MODEL 9
REMARK VINA RESULT:      -7.4      2.361      7.164
REMARK  Name = 
REMARK  8 active torsions:
REMARK  status: ('A' for Active; 'I' for Inactive)
REMARK    1  A    between atoms: C_1  and  O_2
REMARK    2  A    between atoms: O_2  and  C_3
REMARK    3  A    between atoms: C_6  and  N_7
REMARK    4  A    between atoms: C_11  and  S_12
REMARK    5  A    between atoms: S_12  and  C_15
REMARK    6  A    between atoms: C_15  and  C_16
REMARK    7  A    between atoms: C_18  and  N_19
REMARK    8  A    between atoms: C_23  and  N_24
REMARK                            x       y       z     vdW  Elec       q    Type
REMARK                         _______ _______ _______ _____ _____    ______ ____
ROOT
ATOM      1  S   UNL     1       2.323   4.277  17.886  0.00  0.00    +0.000 S 
ATOM      2  O   UNL     1       1.110   3.761  17.284  0.00  0.00    +0.000 OA
ATOM      3  O   UNL     1       2.772   5.639  17.674  0.00  0.00    +0.000 OA
ENDROOT
BRANCH   1   8
ATOM      4  N   UNL     1       2.048   5.166  20.521  0.00  0.00    +0.000 N 
ATOM      5  N   UNL     1       2.326   4.649  21.747  0.00  0.00    +0.000 NA
ATOM      6  N   UNL     1       2.402   3.339  21.589  0.00  0.00    +0.000 NA
ATOM      7  N   UNL     1       2.287   2.995  20.272  0.00  0.00    +0.000 NA
ATOM      8  C   UNL     1       2.124   4.128  19.611  0.00  0.00    +0.000 A 
BRANCH   4  12
ATOM      9  C   UNL     1       1.056   9.244  19.998  0.00  0.00    +0.000 A 
ATOM     10  C   UNL     1       1.967   8.623  19.142  0.00  0.00    +0.000 A 
ATOM     11  C   UNL     1       2.319   7.278  19.326  0.00  0.00    +0.000 A 
ATOM     12  C   UNL     1       1.749   6.543  20.376  0.00  0.00    +0.000 A 
ATOM     13  C   UNL     1       0.928   7.205  21.289  0.00  0.00    +0.000 A 
ATOM     14  C   UNL     1       0.570   8.540  21.094  0.00  0.00    +0.000 A 
BRANCH   9  16
ATOM     15  C   UNL     1      -0.125  11.172  20.659  0.00  0.00    +0.000 C 
ATOM     16  O   UNL     1       0.751  10.548  19.720  0.00  0.00    +0.000 OA
ENDBRANCH   9  16
ENDBRANCH   4  12
ENDBRANCH   1   8
BRANCH   1  17
ATOM     17  C   UNL     1       3.633   3.134  17.473  0.00  0.00    +0.000 C 
BRANCH  17  18
ATOM     18  C   UNL     1       4.881   3.944  17.179  0.00  0.00    +0.000 A 
ATOM     19  C   UNL     1       5.362   4.043  15.863  0.00  0.00    +0.000 A 
ATOM     20  C   UNL     1       6.556   4.734  15.592  0.00  0.00    +0.000 A 
ATOM     21  C   UNL     1       7.287   5.340  16.620  0.00  0.00    +0.000 A 
ATOM     22  C   UNL     1       6.808   5.242  17.932  0.00  0.00    +0.000 A 
ATOM     23  C   UNL     1       5.615   4.551  18.215  0.00  0.00    +0.000 A 
BRANCH  20  24
ATOM     24  N   UNL     1       7.048   4.810  14.208  0.00  0.00    +0.000 N 
ATOM     25  O   UNL     1       7.960   5.613  13.968  0.00  0.00    +0.000 OA
ATOM     26  O   UNL     1       6.526   4.062  13.372  0.00  0.00    +0.000 OA
ENDBRANCH  20  24
BRANCH  22  27
ATOM     27  N   UNL     1       7.569   5.859  19.029  0.00  0.00    +0.000 N 
ATOM     28  O   UNL     1       7.510   5.323  20.141  0.00  0.00    +0.000 OA
ATOM     29  O   UNL     1       8.231   6.873  18.769  0.00  0.00    +0.000 OA
ENDBRANCH  22  27
ENDBRANCH  17  18
ENDBRANCH   1  17
TORSDOF 7
ENDMDL
