MODEL 1
REMARK VINA RESULT:      -7.3      0.000      0.000
REMARK  Name = 
REMARK  4 active torsions:
REMARK  status: ('A' for Active; 'I' for Inactive)
REMARK    1  A    between atoms: C_1  and  C_2
REMARK    2  A    between atoms: C_2  and  C_3
REMARK    3  A    between atoms: C_3  and  C_4
REMARK    4  A    between atoms: C_3  and  N_5
REMARK                            x       y       z     vdW  Elec       q    Type
REMARK                         _______ _______ _______ _____ _____    ______ ____
ROOT
ATOM      1  N   UNL     1       4.246   4.208  17.912  0.00  0.00    +0.000 N 
ATOM      2  C   UNL     1       4.424   4.686  19.197  0.00  0.00    +0.000 A 
ATOM      3  N   UNL     1       5.491   5.430  19.312  0.00  0.00    +0.000 NA
ATOM      4  C   UNL     1       6.052   5.432  18.061  0.00  0.00    +0.000 A 
ATOM      5  C   UNL     1       7.282   6.125  17.696  0.00  0.00    +0.000 A 
ATOM      6  O   UNL     1       7.957   6.799  18.471  0.00  0.00    +0.000 OA
ATOM      7  O   UNL     1       7.669   5.973  16.354  0.00  0.00    +0.000 OA
ATOM      8  C   UNL     1       6.923   5.195  15.421  0.00  0.00    +0.000 A 
ATOM      9  C   UNL     1       7.477   5.150  14.137  0.00  0.00    +0.000 A 
ATOM     10  C   UNL     1       6.824   4.415  13.155  0.00  0.00    +0.000 A 
ATOM     11  C   UNL     1       5.644   3.741  13.471  0.00  0.00    +0.000 A 
ATOM     12  C   UNL     1       5.106   3.789  14.769  0.00  0.00    +0.000 A 
ATOM     13  C   UNL     1       5.735   4.525  15.774  0.00  0.00    +0.000 A 
ATOM     14  C   UNL     1       5.307   4.676  17.163  0.00  0.00    +0.000 A 
ENDROOT
BRANCH   1  15
ATOM     15  C   UNL     1       3.111   3.360  17.532  0.00  0.00    +0.000 C 
ATOM     16  C   UNL     1       1.763   4.102  17.622  0.00  0.00    +0.000 C 
BRANCH  15  18
ATOM     17  C   UNL     1       1.861   1.952  19.262  0.00  0.00    +0.000 C 
ATOM     18  C   UNL     1       3.093   2.068  18.371  0.00  0.00    +0.000 C 
ENDBRANCH  15  18
ENDBRANCH   1  15
TORSDOF 2
ENDMDL
MODEL 2
REMARK VINA RESULT:      -7.1      2.832      5.666
REMARK  Name = 
REMARK  4 active torsions:
REMARK  status: ('A' for Active; 'I' for Inactive)
REMARK    1  A    between atoms: C_1  and  C_2
REMARK    2  A    between atoms: C_2  and  C_3
REMARK    3  A    between atoms: C_3  and  C_4
REMARK    4  A    between atoms: C_3  and  N_5
REMARK                            x       y       z     vdW  Elec       q    Type
REMARK                         _______ _______ _______ _____ _____    ______ ____
ROOT
ATOM      1  N   UNL     1       4.893   5.412  17.383  0.00  0.00    +0.000 N 
ATOM      2  C   UNL     1       4.806   6.652  16.777  0.00  0.00    +0.000 A 
ATOM      3  N   UNL     1       3.938   7.435  17.359  0.00  0.00    +0.000 NA
ATOM      4  C   UNL     1       3.415   6.681  18.377  0.00  0.00    +0.000 A 
ATOM      5  C   UNL     1       2.385   7.129  19.308  0.00  0.00    +0.000 A 
ATOM      6  O   UNL     1       1.870   8.245  19.290  0.00  0.00    +0.000 OA
ATOM      7  O   UNL     1       1.998   6.175  20.264  0.00  0.00    +0.000 OA
ATOM      8  C   UNL     1       2.561   4.867  20.319  0.00  0.00    +0.000 A 
ATOM      9  C   UNL     1       2.035   4.055  21.330  0.00  0.00    +0.000 A 
ATOM     10  C   UNL     1       2.519   2.760  21.464  0.00  0.00    +0.000 A 
ATOM     11  C   UNL     1       3.506   2.300  20.591  0.00  0.00    +0.000 A 
ATOM     12  C   UNL     1       4.017   3.125  19.573  0.00  0.00    +0.000 A 
ATOM     13  C   UNL     1       3.557   4.434  19.419  0.00  0.00    +0.000 A 
ATOM     14  C   UNL     1       3.982   5.412  18.421  0.00  0.00    +0.000 A 
ENDROOT
BRANCH   1  15
ATOM     15  C   UNL     1       5.808   4.365  16.918  0.00  0.00    +0.000 C 
ATOM     16  C   UNL     1       7.280   4.674  17.253  0.00  0.00    +0.000 C 
BRANCH  15  18
ATOM     17  C   UNL     1       6.817   4.559  14.576  0.00  0.00    +0.000 C 
ATOM     18  C   UNL     1       5.622   4.110  15.409  0.00  0.00    +0.000 C 
ENDBRANCH  15  18
ENDBRANCH   1  15
TORSDOF 2
ENDMDL
MODEL 3
REMARK VINA RESULT:      -7.0      2.557      5.341
REMARK  Name = 
REMARK  4 active torsions:
REMARK  status: ('A' for Active; 'I' for Inactive)
REMARK    1  A    between atoms: C_1  and  C_2
REMARK    2  A    between atoms: C_2  and  C_3
REMARK    3  A    between atoms: C_3  and  C_4
REMARK    4  A    between atoms: C_3  and  N_5
REMARK                            x       y       z     vdW  Elec       q    Type
REMARK                         _______ _______ _______ _____ _____    ______ ____
ROOT
ATOM      1  N   UNL     1       4.899   5.336  16.747  0.00  0.00    +0.000 N 
ATOM      2  C   UNL     1       5.104   6.694  16.590  0.00  0.00    +0.000 A 
ATOM      3  N   UNL     1       4.321   7.411  17.349  0.00  0.00    +0.000 NA
ATOM      4  C   UNL     1       3.553   6.496  18.022  0.00  0.00    +0.000 A 
ATOM      5  C   UNL     1       2.510   6.825  18.987  0.00  0.00    +0.000 A 
ATOM      6  O   UNL     1       2.202   7.968  19.316  0.00  0.00    +0.000 OA
ATOM      7  O   UNL     1       1.849   5.715  19.542  0.00  0.00    +0.000 OA
ATOM      8  C   UNL     1       2.165   4.373  19.185  0.00  0.00    +0.000 A 
ATOM      9  C   UNL     1       1.385   3.407  19.831  0.00  0.00    +0.000 A 
ATOM     10  C   UNL     1       1.616   2.066  19.549  0.00  0.00    +0.000 A 
ATOM     11  C   UNL     1       2.608   1.717  18.632  0.00  0.00    +0.000 A 
ATOM     12  C   UNL     1       3.376   2.700  17.983  0.00  0.00    +0.000 A 
ATOM     13  C   UNL     1       3.173   4.055  18.252  0.00  0.00    +0.000 A 
ATOM     14  C   UNL     1       3.881   5.192  17.669  0.00  0.00    +0.000 A 
ENDROOT
BRANCH   1  15
ATOM     15  C   UNL     1       5.669   4.328  16.010  0.00  0.00    +0.000 C 
ATOM     16  C   UNL     1       7.185   4.441  16.262  0.00  0.00    +0.000 C 
BRANCH  15  18
ATOM     17  C   UNL     1       6.548   4.062  13.624  0.00  0.00    +0.000 C 
ATOM     18  C   UNL     1       5.347   4.391  14.505  0.00  0.00    +0.000 C 
ENDBRANCH  15  18
ENDBRANCH   1  15
TORSDOF 2
ENDMDL
MODEL 4
REMARK VINA RESULT:      -6.9      3.305      4.470
REMARK  Name = 
REMARK  4 active torsions:
REMARK  status: ('A' for Active; 'I' for Inactive)
REMARK    1  A    between atoms: C_1  and  C_2
REMARK    2  A    between atoms: C_2  and  C_3
REMARK    3  A    between atoms: C_3  and  C_4
REMARK    4  A    between atoms: C_3  and  N_5
REMARK                            x       y       z     vdW  Elec       q    Type
REMARK                         _______ _______ _______ _____ _____    ______ ____
ROOT
ATOM      1  N   UNL     1       2.364   6.009  19.430  0.00  0.00    +0.000 N 
ATOM      2  C   UNL     1       1.647   5.213  20.304  0.00  0.00    +0.000 A 
ATOM      3  N   UNL     1       1.858   3.939  20.110  0.00  0.00    +0.000 NA
ATOM      4  C   UNL     1       2.732   3.886  19.056  0.00  0.00    +0.000 A 
ATOM      5  C   UNL     1       3.254   2.661  18.462  0.00  0.00    +0.000 A 
ATOM      6  O   UNL     1       2.975   1.528  18.845  0.00  0.00    +0.000 OA
ATOM      7  O   UNL     1       4.131   2.857  17.380  0.00  0.00    +0.000 OA
ATOM      8  C   UNL     1       4.478   4.151  16.895  0.00  0.00    +0.000 A 
ATOM      9  C   UNL     1       5.350   4.141  15.801  0.00  0.00    +0.000 A 
ATOM     10  C   UNL     1       5.747   5.354  15.253  0.00  0.00    +0.000 A 
ATOM     11  C   UNL     1       5.267   6.545  15.800  0.00  0.00    +0.000 A 
ATOM     12  C   UNL     1       4.383   6.538  16.893  0.00  0.00    +0.000 A 
ATOM     13  C   UNL     1       3.972   5.335  17.470  0.00  0.00    +0.000 A 
ATOM     14  C   UNL     1       3.066   5.157  18.601  0.00  0.00    +0.000 A 
ENDROOT
BRANCH   1  15
ATOM     15  C   UNL     1       2.303   7.474  19.461  0.00  0.00    +0.000 C 
ATOM     16  C   UNL     1       1.571   8.009  20.707  0.00  0.00    +0.000 C 
BRANCH  15  18
ATOM     17  C   UNL     1       2.067   9.462  17.870  0.00  0.00    +0.000 C 
ATOM     18  C   UNL     1       1.670   8.020  18.166  0.00  0.00    +0.000 C 
ENDBRANCH  15  18
ENDBRANCH   1  15
TORSDOF 2
ENDMDL
MODEL 5
REMARK VINA RESULT:      -6.8      2.669      3.418
REMARK  Name = 
REMARK  4 active torsions:
REMARK  status: ('A' for Active; 'I' for Inactive)
REMARK    1  A    between atoms: C_1  and  C_2
REMARK    2  A    between atoms: C_2  and  C_3
REMARK    3  A    between atoms: C_3  and  C_4
REMARK    4  A    between atoms: C_3  and  N_5
REMARK                            x       y       z     vdW  Elec       q    Type
REMARK                         _______ _______ _______ _____ _____    ______ ____
ROOT
ATOM      1  N   UNL     1       2.680   4.142  19.862  0.00  0.00    +0.000 N 
ATOM      2  C   UNL     1       1.873   4.821  20.757  0.00  0.00    +0.000 A 
ATOM      3  N   UNL     1       1.755   6.088  20.464  0.00  0.00    +0.000 NA
ATOM      4  C   UNL     1       2.528   6.261  19.345  0.00  0.00    +0.000 A 
ATOM      5  C   UNL     1       2.722   7.528  18.649  0.00  0.00    +0.000 A 
ATOM      6  O   UNL     1       2.206   8.592  18.983  0.00  0.00    +0.000 OA
ATOM      7  O   UNL     1       3.569   7.462  17.529  0.00  0.00    +0.000 OA
ATOM      8  C   UNL     1       4.197   6.254  17.108  0.00  0.00    +0.000 A 
ATOM      9  C   UNL     1       5.017   6.393  15.983  0.00  0.00    +0.000 A 
ATOM     10  C   UNL     1       5.675   5.271  15.495  0.00  0.00    +0.000 A 
ATOM     11  C   UNL     1       5.509   4.043  16.137  0.00  0.00    +0.000 A 
ATOM     12  C   UNL     1       4.690   3.922  17.273  0.00  0.00    +0.000 A 
ATOM     13  C   UNL     1       4.009   5.030  17.781  0.00  0.00    +0.000 A 
ATOM     14  C   UNL     1       3.125   5.072  18.943  0.00  0.00    +0.000 A 
ENDROOT
BRANCH   1  15
ATOM     15  C   UNL     1       2.953   2.705  19.975  0.00  0.00    +0.000 C 
ATOM     16  C   UNL     1       4.459   2.397  20.091  0.00  0.00    +0.000 C 
BRANCH  15  18
ATOM     17  C   UNL     1       0.815   2.175  18.677  0.00  0.00    +0.000 C 
ATOM     18  C   UNL     1       2.316   1.936  18.801  0.00  0.00    +0.000 C 
ENDBRANCH  15  18
ENDBRANCH   1  15
TORSDOF 2
ENDMDL
MODEL 6
REMARK VINA RESULT:      -6.8      3.484      5.736
REMARK  Name = 
REMARK  4 active torsions:
REMARK  status: ('A' for Active; 'I' for Inactive)
REMARK    1  A    between atoms: C_1  and  C_2
REMARK    2  A    between atoms: C_2  and  C_3
REMARK    3  A    between atoms: C_3  and  C_4
REMARK    4  A    between atoms: C_3  and  N_5
REMARK                            x       y       z     vdW  Elec       q    Type
REMARK                         _______ _______ _______ _____ _____    ______ ____
ROOT
ATOM      1  N   UNL     1       4.637   4.919  17.894  0.00  0.00    +0.000 N 
ATOM      2  C   UNL     1       4.914   3.691  18.467  0.00  0.00    +0.000 A 
ATOM      3  N   UNL     1       4.198   3.463  19.535  0.00  0.00    +0.000 NA
ATOM      4  C   UNL     1       3.431   4.589  19.688  0.00  0.00    +0.000 A 
ATOM      5  C   UNL     1       2.471   4.808  20.764  0.00  0.00    +0.000 A 
ATOM      6  O   UNL     1       2.232   4.000  21.658  0.00  0.00    +0.000 OA
ATOM      7  O   UNL     1       1.808   6.047  20.719  0.00  0.00    +0.000 OA
ATOM      8  C   UNL     1       2.058   7.018  19.708  0.00  0.00    +0.000 A 
ATOM      9  C   UNL     1       1.313   8.195  19.843  0.00  0.00    +0.000 A 
ATOM     10  C   UNL     1       1.487   9.205  18.905  0.00  0.00    +0.000 A 
ATOM     11  C   UNL     1       2.396   9.027  17.862  0.00  0.00    +0.000 A 
ATOM     12  C   UNL     1       3.145   7.842  17.746  0.00  0.00    +0.000 A 
ATOM     13  C   UNL     1       2.986   6.806  18.668  0.00  0.00    +0.000 A 
ATOM     14  C   UNL     1       3.681   5.521  18.688  0.00  0.00    +0.000 A 
ENDROOT
BRANCH   1  15
ATOM     15  C   UNL     1       5.306   5.395  16.679  0.00  0.00    +0.000 C 
ATOM     16  C   UNL     1       5.197   4.393  15.513  0.00  0.00    +0.000 C 
BRANCH  15  18
ATOM     17  C   UNL     1       6.962   7.202  17.409  0.00  0.00    +0.000 C 
ATOM     18  C   UNL     1       6.776   5.753  16.971  0.00  0.00    +0.000 C 
ENDBRANCH  15  18
ENDBRANCH   1  15
TORSDOF 2
ENDMDL
MODEL 7
REMARK VINA RESULT:      -6.7      2.770      4.047
REMARK  Name = 
REMARK  4 active torsions:
REMARK  status: ('A' for Active; 'I' for Inactive)
REMARK    1  A    between atoms: C_1  and  C_2
REMARK    2  A    between atoms: C_2  and  C_3
REMARK    3  A    between atoms: C_3  and  C_4
REMARK    4  A    between atoms: C_3  and  N_5
REMARK                            x       y       z     vdW  Elec       q    Type
REMARK                         _______ _______ _______ _____ _____    ______ ____
ROOT
ATOM      1  N   UNL     1       3.209   3.660  20.136  0.00  0.00    +0.000 N 
ATOM      2  C   UNL     1       4.107   2.611  20.215  0.00  0.00    +0.000 A 
ATOM      3  N   UNL     1       5.191   2.826  19.521  0.00  0.00    +0.000 NA
ATOM      4  C   UNL     1       4.999   4.055  18.944  0.00  0.00    +0.000 A 
ATOM      5  C   UNL     1       5.946   4.721  18.057  0.00  0.00    +0.000 A 
ATOM      6  O   UNL     1       7.036   4.257  17.728  0.00  0.00    +0.000 OA
ATOM      7  O   UNL     1       5.525   5.973  17.578  0.00  0.00    +0.000 OA
ATOM      8  C   UNL     1       4.268   6.548  17.925  0.00  0.00    +0.000 A 
ATOM      9  C   UNL     1       4.022   7.792  17.335  0.00  0.00    +0.000 A 
ATOM     10  C   UNL     1       2.820   8.434  17.610  0.00  0.00    +0.000 A 
ATOM     11  C   UNL     1       1.893   7.825  18.457  0.00  0.00    +0.000 A 
ATOM     12  C   UNL     1       2.152   6.569  19.033  0.00  0.00    +0.000 A 
ATOM     13  C   UNL     1       3.353   5.903  18.782  0.00  0.00    +0.000 A 
ATOM     14  C   UNL     1       3.773   4.603  19.300  0.00  0.00    +0.000 A 
ENDROOT
BRANCH   1  15
ATOM     15  C   UNL     1       1.923   3.657  20.841  0.00  0.00    +0.000 C 
ATOM     16  C   UNL     1       1.829   2.536  21.894  0.00  0.00    +0.000 C 
BRANCH  15  18
ATOM     17  C   UNL     1       0.861   2.397  18.886  0.00  0.00    +0.000 C 
ATOM     18  C   UNL     1       0.754   3.581  19.840  0.00  0.00    +0.000 C 
ENDBRANCH  15  18
ENDBRANCH   1  15
TORSDOF 2
ENDMDL
MODEL 8
REMARK VINA RESULT:      -6.7      2.817      5.064
REMARK  Name = 
REMARK  4 active torsions:
REMARK  status: ('A' for Active; 'I' for Inactive)
REMARK    1  A    between atoms: C_1  and  C_2
REMARK    2  A    between atoms: C_2  and  C_3
REMARK    3  A    between atoms: C_3  and  C_4
REMARK    4  A    between atoms: C_3  and  N_5
REMARK                            x       y       z     vdW  Elec       q    Type
REMARK                         _______ _______ _______ _____ _____    ______ ____
ROOT
ATOM      1  N   UNL     1       3.130   6.872  17.860  0.00  0.00    +0.000 N 
ATOM      2  C   UNL     1       4.183   7.475  17.197  0.00  0.00    +0.000 A 
ATOM      3  N   UNL     1       5.024   6.609  16.699  0.00  0.00    +0.000 NA
ATOM      4  C   UNL     1       4.521   5.386  17.062  0.00  0.00    +0.000 A 
ATOM      5  C   UNL     1       5.132   4.102  16.740  0.00  0.00    +0.000 A 
ATOM      6  O   UNL     1       6.170   3.966  16.097  0.00  0.00    +0.000 OA
ATOM      7  O   UNL     1       4.439   2.980  17.229  0.00  0.00    +0.000 OA
ATOM      8  C   UNL     1       3.237   3.088  17.986  0.00  0.00    +0.000 A 
ATOM      9  C   UNL     1       2.705   1.861  18.398  0.00  0.00    +0.000 A 
ATOM     10  C   UNL     1       1.533   1.860  19.144  0.00  0.00    +0.000 A 
ATOM     11  C   UNL     1       0.922   3.073  19.467  0.00  0.00    +0.000 A 
ATOM     12  C   UNL     1       1.475   4.298  19.054  0.00  0.00    +0.000 A 
ATOM     13  C   UNL     1       2.647   4.330  18.296  0.00  0.00    +0.000 A 
ATOM     14  C   UNL     1       3.345   5.510  17.791  0.00  0.00    +0.000 A 
ENDROOT
BRANCH   1  15
ATOM     15  C   UNL     1       2.050   7.637  18.493  0.00  0.00    +0.000 C 
ATOM     16  C   UNL     1       1.990   9.095  17.998  0.00  0.00    +0.000 C 
BRANCH  15  18
ATOM     17  C   UNL     1       1.182   8.497  20.739  0.00  0.00    +0.000 C 
ATOM     18  C   UNL     1       2.166   7.574  20.029  0.00  0.00    +0.000 C 
ENDBRANCH  15  18
ENDBRANCH   1  15
TORSDOF 2
ENDMDL
MODEL 9
REMARK VINA RESULT:      -6.6      2.551      3.103
REMARK  Name = 
REMARK  4 active torsions:
REMARK  status: ('A' for Active; 'I' for Inactive)
REMARK    1  A    between atoms: C_1  and  C_2
REMARK    2  A    between atoms: C_2  and  C_3
REMARK    3  A    between atoms: C_3  and  C_4
REMARK    4  A    between atoms: C_3  and  N_5
REMARK                            x       y       z     vdW  Elec       q    Type
REMARK                         _______ _______ _______ _____ _____    ______ ____
ROOT
ATOM      1  N   UNL     1       2.817   4.484  19.549  0.00  0.00    +0.000 N 
ATOM      2  C   UNL     1       2.060   5.336  20.332  0.00  0.00    +0.000 A 
ATOM      3  N   UNL     1       2.055   6.560  19.880  0.00  0.00    +0.000 NA
ATOM      4  C   UNL     1       2.854   6.525  18.767  0.00  0.00    +0.000 A 
ATOM      5  C   UNL     1       3.166   7.673  17.923  0.00  0.00    +0.000 A 
ATOM      6  O   UNL     1       2.738   8.810  18.110  0.00  0.00    +0.000 OA
ATOM      7  O   UNL     1       4.018   7.396  16.841  0.00  0.00    +0.000 OA
ATOM      8  C   UNL     1       4.546   6.096  16.589  0.00  0.00    +0.000 A 
ATOM      9  C   UNL     1       5.389   6.023  15.475  0.00  0.00    +0.000 A 
ATOM     10  C   UNL     1       5.955   4.797  15.147  0.00  0.00    +0.000 A 
ATOM     11  C   UNL     1       5.676   3.678  15.933  0.00  0.00    +0.000 A 
ATOM     12  C   UNL     1       4.834   3.771  17.056  0.00  0.00    +0.000 A 
ATOM     13  C   UNL     1       4.245   4.987  17.405  0.00  0.00    +0.000 A 
ATOM     14  C   UNL     1       3.352   5.249  18.532  0.00  0.00    +0.000 A 
ENDROOT
BRANCH   1  15
ATOM     15  C   UNL     1       2.965   3.055  19.847  0.00  0.00    +0.000 C 
ATOM     16  C   UNL     1       2.011   2.176  19.014  0.00  0.00    +0.000 C 
BRANCH  15  18
ATOM     17  C   UNL     1       1.351   2.470  21.742  0.00  0.00    +0.000 C 
ATOM     18  C   UNL     1       2.790   2.792  21.355  0.00  0.00    +0.000 C 
ENDBRANCH  15  18
ENDBRANCH   1  15
TORSDOF 2
ENDMDL
