MODEL 1
REMARK VINA RESULT:      -7.9      0.000      0.000
REMARK  Name = 
REMARK  4 active torsions:
REMARK  status: ('A' for Active; 'I' for Inactive)
REMARK    1  A    between atoms: C_1  and  C_2
REMARK    2  A    between atoms: C_2  and  C_3
REMARK    3  A    between atoms: C_18  and  C_19
REMARK    4  A    between atoms: C_22  and  C_23
REMARK                            x       y       z     vdW  Elec       q    Type
REMARK                         _______ _______ _______ _____ _____    ______ ____
ROOT
ATOM      1  C   UNL     1       1.745   0.900  20.114  0.00  0.00    +0.000 C 
ATOM      2  C   UNL     1       2.053   2.372  19.782  0.00  0.00    +0.000 C 
ATOM      3  C   UNL     1       1.454   3.251  20.900  0.00  0.00    +0.000 C 
ATOM      4  C   UNL     1       1.449   2.741  18.419  0.00  0.00    +0.000 C 
ATOM      5  C   UNL     1       1.909   4.095  17.907  0.00  0.00    +0.000 C 
ATOM      6  O   UNL     1       1.209   4.743  17.132  0.00  0.00    +0.000 OA
ATOM      7  C   UNL     1       3.267   4.577  18.277  0.00  0.00    +0.000 C 
ATOM      8  C   UNL     1       4.028   3.824  19.078  0.00  0.00    +0.000 C 
ATOM      9  C   UNL     1       3.578   2.541  19.719  0.00  0.00    +0.000 C 
ATOM     10  N   UNL     1       5.314   4.150  19.368  0.00  0.00    +0.000 NA
ATOM     11  C   UNL     1       5.868   5.169  18.803  0.00  0.00    +0.000 C 
ATOM     12  S   UNL     1       7.567   5.235  19.114  0.00  0.00    +0.000 S 
ATOM     13  C   UNL     1       8.125   6.779  18.465  0.00  0.00    +0.000 C 
ATOM     14  C   UNL     1       7.244   7.517  17.504  0.00  0.00    +0.000 C 
ATOM     15  C   UNL     1       5.818   7.106  17.260  0.00  0.00    +0.000 C 
ATOM     16  O   UNL     1       5.205   7.732  16.385  0.00  0.00    +0.000 OA
ATOM     17  N   UNL     1       5.226   6.077  17.978  0.00  0.00    +0.000 N 
ATOM     18  C   UNL     1       3.775   5.874  17.715  0.00  0.00    +0.000 C 
ENDROOT
BRANCH  18  19
ATOM     19  C   UNL     1       2.939   7.039  18.250  0.00  0.00    +0.000 A 
ATOM     20  C   UNL     1       2.477   8.031  17.366  0.00  0.00    +0.000 A 
ATOM     21  C   UNL     1       1.641   9.056  17.815  0.00  0.00    +0.000 A 
ATOM     22  C   UNL     1       1.249   9.116  19.158  0.00  0.00    +0.000 A 
ATOM     23  C   UNL     1       1.724   8.139  20.047  0.00  0.00    +0.000 A 
ATOM     24  C   UNL     1       2.568   7.118  19.601  0.00  0.00    +0.000 A 
BRANCH  22  25
ATOM     25  C   UNL     1       0.322  10.203  19.650  0.00  0.00    +0.000 C 
ATOM     26  F   UNL     1      -0.520  10.680  18.697  0.00  0.00    +0.000 F 
ATOM     27  F   UNL     1      -0.472   9.778  20.674  0.00  0.00    +0.000 F 
ATOM     28  F   UNL     1       1.000  11.282  20.129  0.00  0.00    +0.000 F 
ENDBRANCH  22  25
ENDBRANCH  18  19
TORSDOF 2
ENDMDL
MODEL 2
REMARK VINA RESULT:      -7.9      0.384      1.002
REMARK  Name = 
REMARK  4 active torsions:
REMARK  status: ('A' for Active; 'I' for Inactive)
REMARK    1  A    between atoms: C_1  and  C_2
REMARK    2  A    between atoms: C_2  and  C_3
REMARK    3  A    between atoms: C_18  and  C_19
REMARK    4  A    between atoms: C_22  and  C_23
REMARK                            x       y       z     vdW  Elec       q    Type
REMARK                         _______ _______ _______ _____ _____    ______ ____
ROOT
ATOM      1  C   UNL     1       1.794   0.803  20.097  0.00  0.00    +0.000 C 
ATOM      2  C   UNL     1       2.068   2.279  19.756  0.00  0.00    +0.000 C 
ATOM      3  C   UNL     1       1.443   3.152  20.863  0.00  0.00    +0.000 C 
ATOM      4  C   UNL     1       1.464   2.623  18.386  0.00  0.00    +0.000 C 
ATOM      5  C   UNL     1       1.895   3.984  17.867  0.00  0.00    +0.000 C 
ATOM      6  O   UNL     1       1.184   4.610  17.083  0.00  0.00    +0.000 OA
ATOM      7  C   UNL     1       3.240   4.501  18.241  0.00  0.00    +0.000 C 
ATOM      8  C   UNL     1       4.013   3.772  19.052  0.00  0.00    +0.000 C 
ATOM      9  C   UNL     1       3.590   2.484  19.700  0.00  0.00    +0.000 C 
ATOM     10  N   UNL     1       5.290   4.131  19.347  0.00  0.00    +0.000 NA
ATOM     11  C   UNL     1       5.822   5.158  18.778  0.00  0.00    +0.000 C 
ATOM     12  S   UNL     1       7.517   5.267  19.098  0.00  0.00    +0.000 S 
ATOM     13  C   UNL     1       8.043   6.819  18.440  0.00  0.00    +0.000 C 
ATOM     14  C   UNL     1       7.151   7.528  17.468  0.00  0.00    +0.000 C 
ATOM     15  C   UNL     1       5.735   7.082  17.219  0.00  0.00    +0.000 C 
ATOM     16  O   UNL     1       5.113   7.687  16.337  0.00  0.00    +0.000 OA
ATOM     17  N   UNL     1       5.164   6.044  17.941  0.00  0.00    +0.000 N 
ATOM     18  C   UNL     1       3.720   5.806  17.672  0.00  0.00    +0.000 C 
ENDROOT
BRANCH  18  19
ATOM     19  C   UNL     1       2.853   6.954  18.194  0.00  0.00    +0.000 A 
ATOM     20  C   UNL     1       2.538   7.023  19.562  0.00  0.00    +0.000 A 
ATOM     21  C   UNL     1       1.821   8.107  20.078  0.00  0.00    +0.000 A 
ATOM     22  C   UNL     1       1.401   9.145  19.237  0.00  0.00    +0.000 A 
ATOM     23  C   UNL     1       1.697   9.069  17.866  0.00  0.00    +0.000 A 
ATOM     24  C   UNL     1       2.405   7.981  17.348  0.00  0.00    +0.000 A 
BRANCH  22  25
ATOM     25  C   UNL     1       0.651  10.335  19.785  0.00  0.00    +0.000 C 
ATOM     26  F   UNL     1       0.777  11.458  19.030  0.00  0.00    +0.000 F 
ATOM     27  F   UNL     1      -0.688  10.100  19.885  0.00  0.00    +0.000 F 
ATOM     28  F   UNL     1       1.064  10.675  21.037  0.00  0.00    +0.000 F 
ENDBRANCH  22  25
ENDBRANCH  18  19
TORSDOF 2
ENDMDL
MODEL 3
REMARK VINA RESULT:      -7.1      2.333      4.696
REMARK  Name = 
REMARK  4 active torsions:
REMARK  status: ('A' for Active; 'I' for Inactive)
REMARK    1  A    between atoms: C_1  and  C_2
REMARK    2  A    between atoms: C_2  and  C_3
REMARK    3  A    between atoms: C_18  and  C_19
REMARK    4  A    between atoms: C_22  and  C_23
REMARK                            x       y       z     vdW  Elec       q    Type
REMARK                         _______ _______ _______ _____ _____    ______ ____
ROOT
ATOM      1  C   UNL     1       7.208   4.777  14.360  0.00  0.00    +0.000 C 
ATOM      2  C   UNL     1       6.144   5.210  15.385  0.00  0.00    +0.000 C 
ATOM      3  C   UNL     1       5.232   6.260  14.716  0.00  0.00    +0.000 C 
ATOM      4  C   UNL     1       6.823   5.797  16.632  0.00  0.00    +0.000 C 
ATOM      5  C   UNL     1       5.862   6.024  17.786  0.00  0.00    +0.000 C 
ATOM      6  O   UNL     1       6.094   6.883  18.635  0.00  0.00    +0.000 OA
ATOM      7  C   UNL     1       4.689   5.120  17.931  0.00  0.00    +0.000 C 
ATOM      8  C   UNL     1       4.494   4.159  17.022  0.00  0.00    +0.000 C 
ATOM      9  C   UNL     1       5.335   3.970  15.791  0.00  0.00    +0.000 C 
ATOM     10  N   UNL     1       3.508   3.233  17.151  0.00  0.00    +0.000 NA
ATOM     11  C   UNL     1       2.776   3.210  18.213  0.00  0.00    +0.000 C 
ATOM     12  S   UNL     1       1.778   1.800  18.276  0.00  0.00    +0.000 S 
ATOM     13  C   UNL     1       0.698   2.024  19.655  0.00  0.00    +0.000 C 
ATOM     14  C   UNL     1       1.040   3.068  20.675  0.00  0.00    +0.000 C 
ATOM     15  C   UNL     1       2.131   4.077  20.441  0.00  0.00    +0.000 C 
ATOM     16  O   UNL     1       2.386   4.841  21.381  0.00  0.00    +0.000 OA
ATOM     17  N   UNL     1       2.814   4.142  19.235  0.00  0.00    +0.000 N 
ATOM     18  C   UNL     1       3.772   5.274  19.111  0.00  0.00    +0.000 C 
ENDROOT
BRANCH  18  19
ATOM     19  C   UNL     1       3.047   6.620  19.038  0.00  0.00    +0.000 A 
ATOM     20  C   UNL     1       2.969   7.303  17.811  0.00  0.00    +0.000 A 
ATOM     21  C   UNL     1       2.239   8.490  17.698  0.00  0.00    +0.000 A 
ATOM     22  C   UNL     1       1.573   9.022  18.809  0.00  0.00    +0.000 A 
ATOM     23  C   UNL     1       1.666   8.352  20.040  0.00  0.00    +0.000 A 
ATOM     24  C   UNL     1       2.403   7.170  20.156  0.00  0.00    +0.000 A 
BRANCH  22  25
ATOM     25  C   UNL     1       0.758  10.288  18.695  0.00  0.00    +0.000 C 
ATOM     26  F   UNL     1      -0.296  10.187  17.844  0.00  0.00    +0.000 F 
ATOM     27  F   UNL     1       0.236  10.674  19.894  0.00  0.00    +0.000 F 
ATOM     28  F   UNL     1       1.498  11.342  18.255  0.00  0.00    +0.000 F 
ENDBRANCH  22  25
ENDBRANCH  18  19
TORSDOF 2
ENDMDL
MODEL 4
REMARK VINA RESULT:      -7.1      8.202     12.348
REMARK  Name = 
REMARK  4 active torsions:
REMARK  status: ('A' for Active; 'I' for Inactive)
REMARK    1  A    between atoms: C_1  and  C_2
REMARK    2  A    between atoms: C_2  and  C_3
REMARK    3  A    between atoms: C_18  and  C_19
REMARK    4  A    between atoms: C_22  and  C_23
REMARK                            x       y       z     vdW  Elec       q    Type
REMARK                         _______ _______ _______ _____ _____    ______ ____
ROOT
ATOM      1  C   UNL     1      -2.381  18.098  25.773  0.00  0.00    +0.000 C 
ATOM      2  C   UNL     1      -2.450  16.800  24.948  0.00  0.00    +0.000 C 
ATOM      3  C   UNL     1      -1.626  15.721  25.680  0.00  0.00    +0.000 C 
ATOM      4  C   UNL     1      -1.895  17.044  23.537  0.00  0.00    +0.000 C 
ATOM      5  C   UNL     1      -2.148  15.887  22.585  0.00  0.00    +0.000 C 
ATOM      6  O   UNL     1      -1.405  15.690  21.626  0.00  0.00    +0.000 OA
ATOM      7  C   UNL     1      -3.370  15.059  22.773  0.00  0.00    +0.000 C 
ATOM      8  C   UNL     1      -4.189  15.332  23.795  0.00  0.00    +0.000 C 
ATOM      9  C   UNL     1      -3.923  16.377  24.842  0.00  0.00    +0.000 C 
ATOM     10  N   UNL     1      -5.373  14.688  23.963  0.00  0.00    +0.000 NA
ATOM     11  C   UNL     1      -5.781  13.840  23.080  0.00  0.00    +0.000 C 
ATOM     12  S   UNL     1      -7.414  13.350  23.363  0.00  0.00    +0.000 S 
ATOM     13  C   UNL     1      -7.741  12.047  22.217  0.00  0.00    +0.000 C 
ATOM     14  C   UNL     1      -6.819  11.867  21.050  0.00  0.00    +0.000 C 
ATOM     15  C   UNL     1      -5.508  12.599  20.954  0.00  0.00    +0.000 C 
ATOM     16  O   UNL     1      -4.862  12.440  19.910  0.00  0.00    +0.000 OA
ATOM     17  N   UNL     1      -5.053  13.411  21.983  0.00  0.00    +0.000 N 
ATOM     18  C   UNL     1      -3.684  13.963  21.795  0.00  0.00    +0.000 C 
ENDROOT
BRANCH  18  19
ATOM     19  C   UNL     1      -2.619  12.866  21.880  0.00  0.00    +0.000 A 
ATOM     20  C   UNL     1      -2.405  12.196  23.097  0.00  0.00    +0.000 A 
ATOM     21  C   UNL     1      -1.500  11.133  23.179  0.00  0.00    +0.000 A 
ATOM     22  C   UNL     1      -0.788  10.718  22.048  0.00  0.00    +0.000 A 
ATOM     23  C   UNL     1      -0.986  11.399  20.835  0.00  0.00    +0.000 A 
ATOM     24  C   UNL     1      -1.883  12.468  20.754  0.00  0.00    +0.000 A 
BRANCH  22  25
ATOM     25  C   UNL     1       0.171   9.553  22.115  0.00  0.00    +0.000 C 
ATOM     26  F   UNL     1      -0.401   8.354  21.831  0.00  0.00    +0.000 F 
ATOM     27  F   UNL     1       1.209   9.690  21.242  0.00  0.00    +0.000 F 
ATOM     28  F   UNL     1       0.735   9.419  23.346  0.00  0.00    +0.000 F 
ENDBRANCH  22  25
ENDBRANCH  18  19
TORSDOF 2
ENDMDL
MODEL 5
REMARK VINA RESULT:      -6.8      6.998      8.847
REMARK  Name = 
REMARK  4 active torsions:
REMARK  status: ('A' for Active; 'I' for Inactive)
REMARK    1  A    between atoms: C_1  and  C_2
REMARK    2  A    between atoms: C_2  and  C_3
REMARK    3  A    between atoms: C_18  and  C_19
REMARK    4  A    between atoms: C_22  and  C_23
REMARK                            x       y       z     vdW  Elec       q    Type
REMARK                         _______ _______ _______ _____ _____    ______ ____
ROOT
ATOM      1  C   UNL     1      -3.138  13.427  24.631  0.00  0.00    +0.000 C 
ATOM      2  C   UNL     1      -2.563  13.098  23.241  0.00  0.00    +0.000 C 
ATOM      3  C   UNL     1      -3.718  13.143  22.221  0.00  0.00    +0.000 C 
ATOM      4  C   UNL     1      -1.907  11.710  23.260  0.00  0.00    +0.000 C 
ATOM      5  C   UNL     1      -1.106  11.409  22.004  0.00  0.00    +0.000 C 
ATOM      6  O   UNL     1      -0.931  10.250  21.635  0.00  0.00    +0.000 OA
ATOM      7  C   UNL     1      -0.449  12.535  21.286  0.00  0.00    +0.000 C 
ATOM      8  C   UNL     1      -0.614  13.781  21.744  0.00  0.00    +0.000 C 
ATOM      9  C   UNL     1      -1.498  14.152  22.901  0.00  0.00    +0.000 C 
ATOM     10  N   UNL     1       0.042  14.840  21.203  0.00  0.00    +0.000 NA
ATOM     11  C   UNL     1       0.916  14.656  20.272  0.00  0.00    +0.000 C 
ATOM     12  S   UNL     1       1.804  16.097  19.927  0.00  0.00    +0.000 S 
ATOM     13  C   UNL     1       2.789  15.739  18.506  0.00  0.00    +0.000 C 
ATOM     14  C   UNL     1       2.993  14.308  18.114  0.00  0.00    +0.000 C 
ATOM     15  C   UNL     1       2.203  13.193  18.744  0.00  0.00    +0.000 C 
ATOM     16  O   UNL     1       2.508  12.041  18.406  0.00  0.00    +0.000 OA
ATOM     17  N   UNL     1       1.189  13.446  19.656  0.00  0.00    +0.000 N 
ATOM     18  C   UNL     1       0.416  12.252  20.091  0.00  0.00    +0.000 C 
ENDROOT
BRANCH  18  19
ATOM     19  C   UNL     1      -0.436  11.688  18.951  0.00  0.00    +0.000 A 
ATOM     20  C   UNL     1      -0.181  10.393  18.466  0.00  0.00    +0.000 A 
ATOM     21  C   UNL     1      -0.999   9.822  17.486  0.00  0.00    +0.000 A 
ATOM     22  C   UNL     1      -2.088  10.534  16.967  0.00  0.00    +0.000 A 
ATOM     23  C   UNL     1      -2.333  11.834  17.436  0.00  0.00    +0.000 A 
ATOM     24  C   UNL     1      -1.510  12.410  18.409  0.00  0.00    +0.000 A 
BRANCH  22  25
ATOM     25  C   UNL     1      -2.996   9.919  15.929  0.00  0.00    +0.000 C 
ATOM     26  F   UNL     1      -3.373   8.645  16.215  0.00  0.00    +0.000 F 
ATOM     27  F   UNL     1      -4.151  10.625  15.773  0.00  0.00    +0.000 F 
ATOM     28  F   UNL     1      -2.418   9.874  14.698  0.00  0.00    +0.000 F 
ENDBRANCH  22  25
ENDBRANCH  18  19
TORSDOF 2
ENDMDL
MODEL 6
REMARK VINA RESULT:      -6.7      5.951      8.832
REMARK  Name = 
REMARK  4 active torsions:
REMARK  status: ('A' for Active; 'I' for Inactive)
REMARK    1  A    between atoms: C_1  and  C_2
REMARK    2  A    between atoms: C_2  and  C_3
REMARK    3  A    between atoms: C_18  and  C_19
REMARK    4  A    between atoms: C_22  and  C_23
REMARK                            x       y       z     vdW  Elec       q    Type
REMARK                         _______ _______ _______ _____ _____    ______ ____
ROOT
ATOM      1  C   UNL     1       1.745   8.563  17.919  0.00  0.00    +0.000 C 
ATOM      2  C   UNL     1       1.021   9.705  18.655  0.00  0.00    +0.000 C 
ATOM      3  C   UNL     1       0.800   9.269  20.118  0.00  0.00    +0.000 C 
ATOM      4  C   UNL     1      -0.320  10.006  17.970  0.00  0.00    +0.000 C 
ATOM      5  C   UNL     1      -0.983  11.273  18.482  0.00  0.00    +0.000 C 
ATOM      6  O   UNL     1      -2.203  11.410  18.422  0.00  0.00    +0.000 OA
ATOM      7  C   UNL     1      -0.123  12.389  18.961  0.00  0.00    +0.000 C 
ATOM      8  C   UNL     1       1.205  12.231  18.962  0.00  0.00    +0.000 C 
ATOM      9  C   UNL     1       1.910  10.956  18.591  0.00  0.00    +0.000 C 
ATOM     10  N   UNL     1       2.052  13.243  19.283  0.00  0.00    +0.000 NA
ATOM     11  C   UNL     1       1.591  14.424  19.520  0.00  0.00    +0.000 C 
ATOM     12  S   UNL     1       2.854  15.597  19.643  0.00  0.00    +0.000 S 
ATOM     13  C   UNL     1       2.084  17.094  20.176  0.00  0.00    +0.000 C 
ATOM     14  C   UNL     1       0.596  17.219  20.058  0.00  0.00    +0.000 C 
ATOM     15  C   UNL     1      -0.276  16.039  19.725  0.00  0.00    +0.000 C 
ATOM     16  O   UNL     1      -1.483  16.270  19.571  0.00  0.00    +0.000 OA
ATOM     17  N   UNL     1       0.250  14.762  19.596  0.00  0.00    +0.000 N 
ATOM     18  C   UNL     1      -0.753  13.682  19.393  0.00  0.00    +0.000 C 
ENDROOT
BRANCH  18  19
ATOM     19  C   UNL     1      -1.599  13.457  20.650  0.00  0.00    +0.000 A 
ATOM     20  C   UNL     1      -0.967  13.160  21.870  0.00  0.00    +0.000 A 
ATOM     21  C   UNL     1      -1.709  13.036  23.048  0.00  0.00    +0.000 A 
ATOM     22  C   UNL     1      -3.099  13.201  23.032  0.00  0.00    +0.000 A 
ATOM     23  C   UNL     1      -3.735  13.477  21.811  0.00  0.00    +0.000 A 
ATOM     24  C   UNL     1      -2.995  13.593  20.630  0.00  0.00    +0.000 A 
BRANCH  22  25
ATOM     25  C   UNL     1      -3.911  13.097  24.302  0.00  0.00    +0.000 C 
ATOM     26  F   UNL     1      -4.071  11.824  24.748  0.00  0.00    +0.000 F 
ATOM     27  F   UNL     1      -3.346  13.787  25.332  0.00  0.00    +0.000 F 
ATOM     28  F   UNL     1      -5.165  13.606  24.157  0.00  0.00    +0.000 F 
ENDBRANCH  22  25
ENDBRANCH  18  19
TORSDOF 2
ENDMDL
MODEL 7
REMARK VINA RESULT:      -6.7      5.630      9.437
REMARK  Name = 
REMARK  4 active torsions:
REMARK  status: ('A' for Active; 'I' for Inactive)
REMARK    1  A    between atoms: C_1  and  C_2
REMARK    2  A    between atoms: C_2  and  C_3
REMARK    3  A    between atoms: C_18  and  C_19
REMARK    4  A    between atoms: C_22  and  C_23
REMARK                            x       y       z     vdW  Elec       q    Type
REMARK                         _______ _______ _______ _____ _____    ______ ____
ROOT
ATOM      1  C   UNL     1       1.950  17.341  18.314  0.00  0.00    +0.000 C 
ATOM      2  C   UNL     1       1.216  16.182  19.011  0.00  0.00    +0.000 C 
ATOM      3  C   UNL     1      -0.286  16.297  18.680  0.00  0.00    +0.000 C 
ATOM      4  C   UNL     1       1.445  16.250  20.528  0.00  0.00    +0.000 C 
ATOM      5  C   UNL     1       0.960  15.013  21.264  0.00  0.00    +0.000 C 
ATOM      6  O   UNL     1       0.623  15.077  22.444  0.00  0.00    +0.000 OA
ATOM      7  C   UNL     1       0.998  13.701  20.562  0.00  0.00    +0.000 C 
ATOM      8  C   UNL     1       1.421  13.655  19.294  0.00  0.00    +0.000 C 
ATOM      9  C   UNL     1       1.788  14.861  18.476  0.00  0.00    +0.000 C 
ATOM     10  N   UNL     1       1.583  12.481  18.630  0.00  0.00    +0.000 NA
ATOM     11  C   UNL     1       1.407  11.360  19.243  0.00  0.00    +0.000 C 
ATOM     12  S   UNL     1       1.921  10.015  18.287  0.00  0.00    +0.000 S 
ATOM     13  C   UNL     1       1.419   8.568  19.165  0.00  0.00    +0.000 C 
ATOM     14  C   UNL     1       1.043   8.696  20.610  0.00  0.00    +0.000 C 
ATOM     15  C   UNL     1       0.855  10.038  21.264  0.00  0.00    +0.000 C 
ATOM     16  O   UNL     1       0.627  10.032  22.481  0.00  0.00    +0.000 OA
ATOM     17  N   UNL     1       0.938  11.218  20.538  0.00  0.00    +0.000 N 
ATOM     18  C   UNL     1       0.602  12.452  21.297  0.00  0.00    +0.000 C 
ENDROOT
BRANCH  18  19
ATOM     19  C   UNL     1      -0.886  12.506  21.654  0.00  0.00    +0.000 A 
ATOM     20  C   UNL     1      -1.283  12.421  23.000  0.00  0.00    +0.000 A 
ATOM     21  C   UNL     1      -2.627  12.554  23.360  0.00  0.00    +0.000 A 
ATOM     22  C   UNL     1      -3.605  12.771  22.381  0.00  0.00    +0.000 A 
ATOM     23  C   UNL     1      -3.214  12.836  21.034  0.00  0.00    +0.000 A 
ATOM     24  C   UNL     1      -1.871  12.694  20.673  0.00  0.00    +0.000 A 
BRANCH  22  25
ATOM     25  C   UNL     1      -5.058  12.945  22.757  0.00  0.00    +0.000 C 
ATOM     26  F   UNL     1      -5.921  12.316  21.917  0.00  0.00    +0.000 F 
ATOM     27  F   UNL     1      -5.329  12.462  24.003  0.00  0.00    +0.000 F 
ATOM     28  F   UNL     1      -5.434  14.252  22.775  0.00  0.00    +0.000 F 
ENDBRANCH  22  25
ENDBRANCH  18  19
TORSDOF 2
ENDMDL
MODEL 8
REMARK VINA RESULT:      -6.6      7.234      9.087
REMARK  Name = 
REMARK  4 active torsions:
REMARK  status: ('A' for Active; 'I' for Inactive)
REMARK    1  A    between atoms: C_1  and  C_2
REMARK    2  A    between atoms: C_2  and  C_3
REMARK    3  A    between atoms: C_18  and  C_19
REMARK    4  A    between atoms: C_22  and  C_23
REMARK                            x       y       z     vdW  Elec       q    Type
REMARK                         _______ _______ _______ _____ _____    ______ ____
ROOT
ATOM      1  C   UNL     1      -3.583  13.256  24.941  0.00  0.00    +0.000 C 
ATOM      2  C   UNL     1      -2.993  12.961  23.550  0.00  0.00    +0.000 C 
ATOM      3  C   UNL     1      -4.156  12.893  22.540  0.00  0.00    +0.000 C 
ATOM      4  C   UNL     1      -2.220  11.634  23.579  0.00  0.00    +0.000 C 
ATOM      5  C   UNL     1      -1.406  11.387  22.319  0.00  0.00    +0.000 C 
ATOM      6  O   UNL     1      -1.135  10.243  21.962  0.00  0.00    +0.000 OA
ATOM      7  C   UNL     1      -0.855  12.557  21.582  0.00  0.00    +0.000 C 
ATOM      8  C   UNL     1      -1.122  13.790  22.027  0.00  0.00    +0.000 C 
ATOM      9  C   UNL     1      -2.026  14.098  23.188  0.00  0.00    +0.000 C 
ATOM     10  N   UNL     1      -0.564  14.895  21.468  0.00  0.00    +0.000 NA
ATOM     11  C   UNL     1       0.314  14.775  20.531  0.00  0.00    +0.000 C 
ATOM     12  S   UNL     1       1.072  16.283  20.161  0.00  0.00    +0.000 S 
ATOM     13  C   UNL     1       2.073  15.993  18.735  0.00  0.00    +0.000 C 
ATOM     14  C   UNL     1       2.396  14.580  18.358  0.00  0.00    +0.000 C 
ATOM     15  C   UNL     1       1.710  13.409  19.008  0.00  0.00    +0.000 C 
ATOM     16  O   UNL     1       2.110  12.284  18.681  0.00  0.00    +0.000 OA
ATOM     17  N   UNL     1       0.685  13.586  19.927  0.00  0.00    +0.000 N 
ATOM     18  C   UNL     1       0.021  12.335  20.383  0.00  0.00    +0.000 C 
ENDROOT
BRANCH  18  19
ATOM     19  C   UNL     1      -0.788  11.685  19.257  0.00  0.00    +0.000 A 
ATOM     20  C   UNL     1      -1.969  12.300  18.804  0.00  0.00    +0.000 A 
ATOM     21  C   UNL     1      -2.679  11.774  17.721  0.00  0.00    +0.000 A 
ATOM     22  C   UNL     1      -2.228  10.620  17.069  0.00  0.00    +0.000 A 
ATOM     23  C   UNL     1      -1.060   9.993  17.532  0.00  0.00    +0.000 A 
ATOM     24  C   UNL     1      -0.354  10.512  18.621  0.00  0.00    +0.000 A 
BRANCH  22  25
ATOM     25  C   UNL     1      -2.969  10.056  15.880  0.00  0.00    +0.000 C 
ATOM     26  F   UNL     1      -3.000   8.698  15.846  0.00  0.00    +0.000 F 
ATOM     27  F   UNL     1      -4.270  10.462  15.845  0.00  0.00    +0.000 F 
ATOM     28  F   UNL     1      -2.424  10.451  14.697  0.00  0.00    +0.000 F 
ENDBRANCH  22  25
ENDBRANCH  18  19
TORSDOF 2
ENDMDL
MODEL 9
REMARK VINA RESULT:      -6.6      7.371      9.875
REMARK  Name = 
REMARK  4 active torsions:
REMARK  status: ('A' for Active; 'I' for Inactive)
REMARK    1  A    between atoms: C_1  and  C_2
REMARK    2  A    between atoms: C_2  and  C_3
REMARK    3  A    between atoms: C_18  and  C_19
REMARK    4  A    between atoms: C_22  and  C_23
REMARK                            x       y       z     vdW  Elec       q    Type
REMARK                         _______ _______ _______ _____ _____    ______ ____
ROOT
ATOM      1  C   UNL     1      -3.292  15.808  24.954  0.00  0.00    +0.000 C 
ATOM      2  C   UNL     1      -2.711  15.071  23.733  0.00  0.00    +0.000 C 
ATOM      3  C   UNL     1      -3.875  14.728  22.781  0.00  0.00    +0.000 C 
ATOM      4  C   UNL     1      -1.986  13.795  24.186  0.00  0.00    +0.000 C 
ATOM      5  C   UNL     1      -1.180  13.139  23.078  0.00  0.00    +0.000 C 
ATOM      6  O   UNL     1      -0.949  11.932  23.102  0.00  0.00    +0.000 OA
ATOM      7  C   UNL     1      -0.587  13.998  22.018  0.00  0.00    +0.000 C 
ATOM      8  C   UNL     1      -0.811  15.316  22.049  0.00  0.00    +0.000 C 
ATOM      9  C   UNL     1      -1.704  16.003  23.043  0.00  0.00    +0.000 C 
ATOM     10  N   UNL     1      -0.213  16.170  21.179  0.00  0.00    +0.000 NA
ATOM     11  C   UNL     1       0.661  15.733  20.337  0.00  0.00    +0.000 C 
ATOM     12  S   UNL     1       1.473  17.022  19.522  0.00  0.00    +0.000 S 
ATOM     13  C   UNL     1       2.464  16.265  18.271  0.00  0.00    +0.000 C 
ATOM     14  C   UNL     1       2.737  14.795  18.361  0.00  0.00    +0.000 C 
ATOM     15  C   UNL     1       2.009  13.911  19.338  0.00  0.00    +0.000 C 
ATOM     16  O   UNL     1       2.370  12.728  19.386  0.00  0.00    +0.000 OA
ATOM     17  N   UNL     1       0.991  14.402  20.142  0.00  0.00    +0.000 N 
ATOM     18  C   UNL     1       0.282  13.381  20.959  0.00  0.00    +0.000 C 
ENDROOT
BRANCH  18  19
ATOM     19  C   UNL     1      -0.549  12.438  20.085  0.00  0.00    +0.000 A 
ATOM     20  C   UNL     1      -1.663  12.936  19.386  0.00  0.00    +0.000 A 
ATOM     21  C   UNL     1      -2.386  12.117  18.515  0.00  0.00    +0.000 A 
ATOM     22  C   UNL     1      -2.014  10.780  18.325  0.00  0.00    +0.000 A 
ATOM     23  C   UNL     1      -0.914  10.274  19.037  0.00  0.00    +0.000 A 
ATOM     24  C   UNL     1      -0.196  11.090  19.916  0.00  0.00    +0.000 A 
BRANCH  22  25
ATOM     25  C   UNL     1      -2.768   9.891  17.365  0.00  0.00    +0.000 C 
ATOM     26  F   UNL     1      -3.517   8.935  17.975  0.00  0.00    +0.000 F 
ATOM     27  F   UNL     1      -3.629  10.596  16.578  0.00  0.00    +0.000 F 
ATOM     28  F   UNL     1      -1.939   9.231  16.511  0.00  0.00    +0.000 F 
ENDBRANCH  22  25
ENDBRANCH  18  19
TORSDOF 2
ENDMDL
