MODEL 1
REMARK VINA RESULT:      -7.3      0.000      0.000
REMARK  Name = 
REMARK  4 active torsions:
REMARK  status: ('A' for Active; 'I' for Inactive)
REMARK    1  A    between atoms: C_1  and  N_2
REMARK    2  A    between atoms: C_6  and  C_7
REMARK    3  A    between atoms: C_22  and  C_23
REMARK    4  A    between atoms: C_22  and  C_24
REMARK                            x       y       z     vdW  Elec       q    Type
REMARK                         _______ _______ _______ _____ _____    ______ ____
ROOT
ATOM      1  C   UNL     1      -6.918  12.338  20.878  0.00  0.00    +0.000 A 
ATOM      2  C   UNL     1      -7.917  13.293  21.088  0.00  0.00    +0.000 A 
ATOM      3  C   UNL     1      -7.597  14.637  21.240  0.00  0.00    +0.000 A 
ATOM      4  C   UNL     1      -6.265  15.039  21.243  0.00  0.00    +0.000 A 
ATOM      5  C   UNL     1      -5.212  14.109  21.092  0.00  0.00    +0.000 A 
ATOM      6  C   UNL     1      -5.572  12.761  20.894  0.00  0.00    +0.000 A 
ATOM      7  N   UNL     1      -3.859  14.536  21.203  0.00  0.00    +0.000 N 
ATOM      8  C   UNL     1      -2.743  13.801  20.902  0.00  0.00    +0.000 A 
ATOM      9  N   UNL     1      -2.687  12.849  19.980  0.00  0.00    +0.000 NA
ATOM     10  C   UNL     1      -1.414  12.335  19.885  0.00  0.00    +0.000 A 
ATOM     11  C   UNL     1      -0.486  12.892  20.727  0.00  0.00    +0.000 A 
ATOM     12  S   UNL     1      -1.206  14.063  21.701  0.00  0.00    +0.000 S 
ATOM     13  C   UNL     1       0.904  12.525  20.778  0.00  0.00    +0.000 C 
ATOM     14  O   UNL     1       1.767  13.053  21.472  0.00  0.00    +0.000 OA
ATOM     15  N   UNL     1       1.242  11.482  19.929  0.00  0.00    +0.000 N 
ATOM     16  C   UNL     1       0.240  10.525  19.405  0.00  0.00    +0.000 C 
ATOM     17  C   UNL     1       0.855   9.756  18.228  0.00  0.00    +0.000 C 
ATOM     18  C   UNL     1      -0.108   9.523  20.524  0.00  0.00    +0.000 C 
ATOM     19  C   UNL     1      -1.046  11.265  18.915  0.00  0.00    +0.000 C 
ATOM     20  C   UNL     1      -3.756  15.810  21.919  0.00  0.00    +0.000 C 
ATOM     21  C   UNL     1      -4.736  16.806  21.314  0.00  0.00    +0.000 C 
ATOM     22  O   UNL     1      -6.090  16.384  21.463  0.00  0.00    +0.000 OA
ATOM     23  H   UNL     1       2.199  11.176  20.051  0.00  0.00    +0.000 HD
ENDROOT
BRANCH   1  29
ATOM     24  C   UNL     1      -6.159  10.518  18.427  0.00  0.00    +0.000 C 
ATOM     25  N   UNL     1      -6.902  10.130  19.601  0.00  0.00    +0.000 N 
ATOM     26  C   UNL     1      -7.354   8.854  19.831  0.00  0.00    +0.000 A 
ATOM     27  C   UNL     1      -7.916   8.895  21.079  0.00  0.00    +0.000 A 
ATOM     28  N   UNL     1      -7.825  10.156  21.606  0.00  0.00    +0.000 NA
ATOM     29  C   UNL     1      -7.223  10.907  20.700  0.00  0.00    +0.000 A 
ENDBRANCH   1  29
TORSDOF 1
ENDMDL
MODEL 2
REMARK VINA RESULT:      -6.8      2.591      5.693
REMARK  Name = 
REMARK  4 active torsions:
REMARK  status: ('A' for Active; 'I' for Inactive)
REMARK    1  A    between atoms: C_1  and  N_2
REMARK    2  A    between atoms: C_6  and  C_7
REMARK    3  A    between atoms: C_22  and  C_23
REMARK    4  A    between atoms: C_22  and  C_24
REMARK                            x       y       z     vdW  Elec       q    Type
REMARK                         _______ _______ _______ _____ _____    ______ ____
ROOT
ATOM      1  C   UNL     1      -4.146  11.420  17.860  0.00  0.00    +0.000 A 
ATOM      2  C   UNL     1      -3.814  10.390  16.976  0.00  0.00    +0.000 A 
ATOM      3  C   UNL     1      -2.553   9.806  17.005  0.00  0.00    +0.000 A 
ATOM      4  C   UNL     1      -1.584  10.285  17.881  0.00  0.00    +0.000 A 
ATOM      5  C   UNL     1      -1.848  11.361  18.757  0.00  0.00    +0.000 A 
ATOM      6  C   UNL     1      -3.149  11.900  18.735  0.00  0.00    +0.000 A 
ATOM      7  N   UNL     1      -0.807  11.895  19.567  0.00  0.00    +0.000 N 
ATOM      8  C   UNL     1      -0.947  12.801  20.585  0.00  0.00    +0.000 A 
ATOM      9  N   UNL     1      -2.021  12.918  21.354  0.00  0.00    +0.000 NA
ATOM     10  C   UNL     1      -1.832  13.886  22.315  0.00  0.00    +0.000 A 
ATOM     11  C   UNL     1      -0.611  14.510  22.293  0.00  0.00    +0.000 A 
ATOM     12  S   UNL     1       0.328  13.921  21.024  0.00  0.00    +0.000 S 
ATOM     13  C   UNL     1      -0.193  15.530  23.217  0.00  0.00    +0.000 C 
ATOM     14  O   UNL     1       0.915  16.056  23.262  0.00  0.00    +0.000 OA
ATOM     15  N   UNL     1      -1.170  15.899  24.128  0.00  0.00    +0.000 N 
ATOM     16  C   UNL     1      -2.612  15.661  23.890  0.00  0.00    +0.000 C 
ATOM     17  C   UNL     1      -3.370  15.829  25.214  0.00  0.00    +0.000 C 
ATOM     18  C   UNL     1      -3.121  16.718  22.890  0.00  0.00    +0.000 C 
ATOM     19  C   UNL     1      -2.863  14.221  23.337  0.00  0.00    +0.000 C 
ATOM     20  C   UNL     1       0.515  11.549  19.039  0.00  0.00    +0.000 C 
ATOM     21  C   UNL     1       0.569  10.053  18.763  0.00  0.00    +0.000 C 
ATOM     22  O   UNL     1      -0.366   9.658  17.761  0.00  0.00    +0.000 OA
ATOM     23  H   UNL     1      -0.888  16.683  24.705  0.00  0.00    +0.000 HD
ENDROOT
BRANCH   1  29
ATOM     24  C   UNL     1      -6.380  11.140  20.058  0.00  0.00    +0.000 C 
ATOM     25  N   UNL     1      -6.457  11.895  18.831  0.00  0.00    +0.000 N 
ATOM     26  C   UNL     1      -7.541  12.656  18.471  0.00  0.00    +0.000 A 
ATOM     27  C   UNL     1      -7.172  13.271  17.304  0.00  0.00    +0.000 A 
ATOM     28  N   UNL     1      -5.903  12.899  16.945  0.00  0.00    +0.000 NA
ATOM     29  C   UNL     1      -5.478  12.052  17.866  0.00  0.00    +0.000 A 
ENDBRANCH   1  29
TORSDOF 1
ENDMDL
MODEL 3
REMARK VINA RESULT:      -6.8      2.953      6.857
REMARK  Name = 
REMARK  4 active torsions:
REMARK  status: ('A' for Active; 'I' for Inactive)
REMARK    1  A    between atoms: C_1  and  N_2
REMARK    2  A    between atoms: C_6  and  C_7
REMARK    3  A    between atoms: C_22  and  C_23
REMARK    4  A    between atoms: C_22  and  C_24
REMARK                            x       y       z     vdW  Elec       q    Type
REMARK                         _______ _______ _______ _____ _____    ______ ____
ROOT
ATOM      1  C   UNL     1      -1.909  11.191  18.483  0.00  0.00    +0.000 A 
ATOM      2  C   UNL     1      -2.151  10.661  17.213  0.00  0.00    +0.000 A 
ATOM      3  C   UNL     1      -3.387  10.823  16.597  0.00  0.00    +0.000 A 
ATOM      4  C   UNL     1      -4.420  11.469  17.269  0.00  0.00    +0.000 A 
ATOM      5  C   UNL     1      -4.247  11.975  18.577  0.00  0.00    +0.000 A 
ATOM      6  C   UNL     1      -2.970  11.834  19.155  0.00  0.00    +0.000 A 
ATOM      7  N   UNL     1      -5.351  12.538  19.278  0.00  0.00    +0.000 N 
ATOM      8  C   UNL     1      -5.302  13.227  20.460  0.00  0.00    +0.000 A 
ATOM      9  N   UNL     1      -4.276  13.960  20.870  0.00  0.00    +0.000 NA
ATOM     10  C   UNL     1      -4.556  14.563  22.076  0.00  0.00    +0.000 A 
ATOM     11  C   UNL     1      -5.798  14.302  22.593  0.00  0.00    +0.000 A 
ATOM     12  S   UNL     1      -6.644  13.246  21.588  0.00  0.00    +0.000 S 
ATOM     13  C   UNL     1      -6.307  14.845  23.825  0.00  0.00    +0.000 C 
ATOM     14  O   UNL     1      -7.436  14.682  24.276  0.00  0.00    +0.000 OA
ATOM     15  N   UNL     1      -5.395  15.631  24.512  0.00  0.00    +0.000 N 
ATOM     16  C   UNL     1      -3.934  15.533  24.292  0.00  0.00    +0.000 C 
ATOM     17  C   UNL     1      -3.254  16.765  24.905  0.00  0.00    +0.000 C 
ATOM     18  C   UNL     1      -3.417  14.272  25.014  0.00  0.00    +0.000 C 
ATOM     19  C   UNL     1      -3.594  15.467  22.769  0.00  0.00    +0.000 C 
ATOM     20  C   UNL     1      -6.628  12.096  18.711  0.00  0.00    +0.000 C 
ATOM     21  C   UNL     1      -6.604  12.299  17.203  0.00  0.00    +0.000 C 
ATOM     22  O   UNL     1      -5.602  11.506  16.570  0.00  0.00    +0.000 OA
ATOM     23  H   UNL     1      -5.739  15.923  25.419  0.00  0.00    +0.000 HD
ENDROOT
BRANCH   1  29
ATOM     24  C   UNL     1       0.430  13.293  18.576  0.00  0.00    +0.000 C 
ATOM     25  N   UNL     1       0.420  11.977  19.166  0.00  0.00    +0.000 N 
ATOM     26  C   UNL     1       1.453  11.467  19.913  0.00  0.00    +0.000 A 
ATOM     27  C   UNL     1       1.007  10.250  20.356  0.00  0.00    +0.000 A 
ATOM     28  N   UNL     1      -0.259  10.006  19.893  0.00  0.00    +0.000 NA
ATOM     29  C   UNL     1      -0.606  11.049  19.159  0.00  0.00    +0.000 A 
ENDBRANCH   1  29
TORSDOF 1
ENDMDL
MODEL 4
REMARK VINA RESULT:      -6.7      2.779      4.092
REMARK  Name = 
REMARK  4 active torsions:
REMARK  status: ('A' for Active; 'I' for Inactive)
REMARK    1  A    between atoms: C_1  and  N_2
REMARK    2  A    between atoms: C_6  and  C_7
REMARK    3  A    between atoms: C_22  and  C_23
REMARK    4  A    between atoms: C_22  and  C_24
REMARK                            x       y       z     vdW  Elec       q    Type
REMARK                         _______ _______ _______ _____ _____    ______ ____
ROOT
ATOM      1  C   UNL     1      -4.264  11.611  18.473  0.00  0.00    +0.000 A 
ATOM      2  C   UNL     1      -5.568  11.406  18.931  0.00  0.00    +0.000 A 
ATOM      3  C   UNL     1      -5.989  11.938  20.144  0.00  0.00    +0.000 A 
ATOM      4  C   UNL     1      -5.092  12.635  20.947  0.00  0.00    +0.000 A 
ATOM      5  C   UNL     1      -3.747  12.823  20.560  0.00  0.00    +0.000 A 
ATOM      6  C   UNL     1      -3.364  12.312  19.304  0.00  0.00    +0.000 A 
ATOM      7  N   UNL     1      -2.828  13.450  21.448  0.00  0.00    +0.000 N 
ATOM      8  C   UNL     1      -1.557  13.864  21.150  0.00  0.00    +0.000 A 
ATOM      9  N   UNL     1      -1.153  14.274  19.955  0.00  0.00    +0.000 NA
ATOM     10  C   UNL     1       0.165  14.669  19.993  0.00  0.00    +0.000 A 
ATOM     11  C   UNL     1       0.777  14.571  21.217  0.00  0.00    +0.000 A 
ATOM     12  S   UNL     1      -0.288  13.933  22.356  0.00  0.00    +0.000 S 
ATOM     13  C   UNL     1       2.138  14.950  21.488  0.00  0.00    +0.000 C 
ATOM     14  O   UNL     1       2.688  14.936  22.585  0.00  0.00    +0.000 OA
ATOM     15  N   UNL     1       2.836  15.379  20.370  0.00  0.00    +0.000 N 
ATOM     16  C   UNL     1       2.425  15.029  18.991  0.00  0.00    +0.000 C 
ATOM     17  C   UNL     1       3.158  15.949  18.005  0.00  0.00    +0.000 C 
ATOM     18  C   UNL     1       2.844  13.572  18.714  0.00  0.00    +0.000 C 
ATOM     19  C   UNL     1       0.884  15.200  18.800  0.00  0.00    +0.000 C 
ATOM     20  C   UNL     1      -3.303  13.401  22.833  0.00  0.00    +0.000 C 
ATOM     21  C   UNL     1      -4.743  13.891  22.887  0.00  0.00    +0.000 C 
ATOM     22  O   UNL     1      -5.624  13.052  22.144  0.00  0.00    +0.000 OA
ATOM     23  H   UNL     1       3.815  15.549  20.565  0.00  0.00    +0.000 HD
ENDROOT
BRANCH   1  29
ATOM     24  C   UNL     1      -1.634   9.967  17.947  0.00  0.00    +0.000 C 
ATOM     25  N   UNL     1      -2.615  10.373  16.971  0.00  0.00    +0.000 N 
ATOM     26  C   UNL     1      -2.548  10.045  15.640  0.00  0.00    +0.000 A 
ATOM     27  C   UNL     1      -3.702  10.538  15.093  0.00  0.00    +0.000 A 
ATOM     28  N   UNL     1      -4.459  11.161  16.049  0.00  0.00    +0.000 NA
ATOM     29  C   UNL     1      -3.789  11.073  17.185  0.00  0.00    +0.000 A 
ENDBRANCH   1  29
TORSDOF 1
ENDMDL
MODEL 5
REMARK VINA RESULT:      -6.6      3.484      8.321
REMARK  Name = 
REMARK  4 active torsions:
REMARK  status: ('A' for Active; 'I' for Inactive)
REMARK    1  A    between atoms: C_1  and  N_2
REMARK    2  A    between atoms: C_6  and  C_7
REMARK    3  A    between atoms: C_22  and  C_23
REMARK    4  A    between atoms: C_22  and  C_24
REMARK                            x       y       z     vdW  Elec       q    Type
REMARK                         _______ _______ _______ _____ _____    ______ ____
ROOT
ATOM      1  C   UNL     1       1.335  14.987  19.411  0.00  0.00    +0.000 A 
ATOM      2  C   UNL     1       2.244  14.297  18.605  0.00  0.00    +0.000 A 
ATOM      3  C   UNL     1       2.169  12.916  18.468  0.00  0.00    +0.000 A 
ATOM      4  C   UNL     1       1.218  12.196  19.184  0.00  0.00    +0.000 A 
ATOM      5  C   UNL     1       0.311  12.837  20.057  0.00  0.00    +0.000 A 
ATOM      6  C   UNL     1       0.383  14.241  20.138  0.00  0.00    +0.000 A 
ATOM      7  N   UNL     1      -0.581  12.066  20.854  0.00  0.00    +0.000 N 
ATOM      8  C   UNL     1      -1.629  12.539  21.598  0.00  0.00    +0.000 A 
ATOM      9  N   UNL     1      -2.339  13.621  21.308  0.00  0.00    +0.000 NA
ATOM     10  C   UNL     1      -3.352  13.802  22.223  0.00  0.00    +0.000 A 
ATOM     11  C   UNL     1      -3.429  12.857  23.214  0.00  0.00    +0.000 A 
ATOM     12  S   UNL     1      -2.191  11.727  23.046  0.00  0.00    +0.000 S 
ATOM     13  C   UNL     1      -4.421  12.838  24.256  0.00  0.00    +0.000 C 
ATOM     14  O   UNL     1      -4.553  11.971  25.114  0.00  0.00    +0.000 OA
ATOM     15  N   UNL     1      -5.289  13.919  24.226  0.00  0.00    +0.000 N 
ATOM     16  C   UNL     1      -4.958  15.189  23.541  0.00  0.00    +0.000 C 
ATOM     17  C   UNL     1      -6.242  16.012  23.368  0.00  0.00    +0.000 C 
ATOM     18  C   UNL     1      -3.978  15.980  24.431  0.00  0.00    +0.000 C 
ATOM     19  C   UNL     1      -4.327  14.926  22.136  0.00  0.00    +0.000 C 
ATOM     20  C   UNL     1      -0.116  10.684  20.996  0.00  0.00    +0.000 C 
ATOM     21  C   UNL     1       0.224  10.126  19.621  0.00  0.00    +0.000 C 
ATOM     22  O   UNL     1       1.295  10.836  19.003  0.00  0.00    +0.000 OA
ATOM     23  H   UNL     1      -5.916  13.936  25.021  0.00  0.00    +0.000 HD
ENDROOT
BRANCH   1  29
ATOM     24  C   UNL     1      -0.361  17.123  17.842  0.00  0.00    +0.000 C 
ATOM     25  N   UNL     1       0.641  17.377  18.848  0.00  0.00    +0.000 N 
ATOM     26  C   UNL     1       0.965  18.631  19.302  0.00  0.00    +0.000 A 
ATOM     27  C   UNL     1       1.876  18.423  20.304  0.00  0.00    +0.000 A 
ATOM     28  N   UNL     1       2.118  17.084  20.463  0.00  0.00    +0.000 NA
ATOM     29  C   UNL     1       1.378  16.453  19.567  0.00  0.00    +0.000 A 
ENDBRANCH   1  29
TORSDOF 1
ENDMDL
MODEL 6
REMARK VINA RESULT:      -6.6      2.836      7.096
REMARK  Name = 
REMARK  4 active torsions:
REMARK  status: ('A' for Active; 'I' for Inactive)
REMARK    1  A    between atoms: C_1  and  N_2
REMARK    2  A    between atoms: C_6  and  C_7
REMARK    3  A    between atoms: C_22  and  C_23
REMARK    4  A    between atoms: C_22  and  C_24
REMARK                            x       y       z     vdW  Elec       q    Type
REMARK                         _______ _______ _______ _____ _____    ______ ____
ROOT
ATOM      1  C   UNL     1      -1.593  11.705  18.628  0.00  0.00    +0.000 A 
ATOM      2  C   UNL     1      -1.773  11.024  17.422  0.00  0.00    +0.000 A 
ATOM      3  C   UNL     1      -3.038  10.886  16.863  0.00  0.00    +0.000 A 
ATOM      4  C   UNL     1      -4.153  11.378  17.535  0.00  0.00    +0.000 A 
ATOM      5  C   UNL     1      -4.036  12.025  18.785  0.00  0.00    +0.000 A 
ATOM      6  C   UNL     1      -2.736  12.189  19.302  0.00  0.00    +0.000 A 
ATOM      7  N   UNL     1      -5.202  12.424  19.496  0.00  0.00    +0.000 N 
ATOM      8  C   UNL     1      -5.247  13.214  20.614  0.00  0.00    +0.000 A 
ATOM      9  N   UNL     1      -4.372  14.167  20.905  0.00  0.00    +0.000 NA
ATOM     10  C   UNL     1      -4.721  14.811  22.071  0.00  0.00    +0.000 A 
ATOM     11  C   UNL     1      -5.867  14.362  22.675  0.00  0.00    +0.000 A 
ATOM     12  S   UNL     1      -6.523  13.075  21.808  0.00  0.00    +0.000 S 
ATOM     13  C   UNL     1      -6.427  14.906  23.883  0.00  0.00    +0.000 C 
ATOM     14  O   UNL     1      -7.484  14.568  24.407  0.00  0.00    +0.000 OA
ATOM     15  N   UNL     1      -5.664  15.914  24.453  0.00  0.00    +0.000 N 
ATOM     16  C   UNL     1      -4.222  16.082  24.163  0.00  0.00    +0.000 C 
ATOM     17  C   UNL     1      -3.779  17.474  24.634  0.00  0.00    +0.000 C 
ATOM     18  C   UNL     1      -3.438  15.018  24.957  0.00  0.00    +0.000 C 
ATOM     19  C   UNL     1      -3.933  15.945  22.634  0.00  0.00    +0.000 C 
ATOM     20  C   UNL     1      -6.386  11.692  19.039  0.00  0.00    +0.000 C 
ATOM     21  C   UNL     1      -6.460  11.757  17.519  0.00  0.00    +0.000 C 
ATOM     22  O   UNL     1      -5.345  11.120  16.900  0.00  0.00    +0.000 OA
ATOM     23  H   UNL     1      -6.026  16.215  25.350  0.00  0.00    +0.000 HD
ENDROOT
BRANCH   1  29
ATOM     24  C   UNL     1      -0.247   9.890  20.818  0.00  0.00    +0.000 C 
ATOM     25  N   UNL     1       0.299  11.086  20.223  0.00  0.00    +0.000 N 
ATOM     26  C   UNL     1       1.546  11.581  20.514  0.00  0.00    +0.000 A 
ATOM     27  C   UNL     1       1.707  12.654  19.677  0.00  0.00    +0.000 A 
ATOM     28  N   UNL     1       0.594  12.826  18.897  0.00  0.00    +0.000 NA
ATOM     29  C   UNL     1      -0.264  11.882  19.242  0.00  0.00    +0.000 A 
ENDBRANCH   1  29
TORSDOF 1
ENDMDL
MODEL 7
REMARK VINA RESULT:      -6.5      3.053      6.777
REMARK  Name = 
REMARK  4 active torsions:
REMARK  status: ('A' for Active; 'I' for Inactive)
REMARK    1  A    between atoms: C_1  and  N_2
REMARK    2  A    between atoms: C_6  and  C_7
REMARK    3  A    between atoms: C_22  and  C_23
REMARK    4  A    between atoms: C_22  and  C_24
REMARK                            x       y       z     vdW  Elec       q    Type
REMARK                         _______ _______ _______ _____ _____    ______ ____
ROOT
ATOM      1  C   UNL     1      -1.526  10.382  18.745  0.00  0.00    +0.000 A 
ATOM      2  C   UNL     1      -1.644   9.945  17.423  0.00  0.00    +0.000 A 
ATOM      3  C   UNL     1      -2.703  10.364  16.626  0.00  0.00    +0.000 A 
ATOM      4  C   UNL     1      -3.694  11.182  17.160  0.00  0.00    +0.000 A 
ATOM      5  C   UNL     1      -3.656  11.606  18.506  0.00  0.00    +0.000 A 
ATOM      6  C   UNL     1      -2.546  11.202  19.274  0.00  0.00    +0.000 A 
ATOM      7  N   UNL     1      -4.736  12.355  19.052  0.00  0.00    +0.000 N 
ATOM      8  C   UNL     1      -4.761  12.988  20.266  0.00  0.00    +0.000 A 
ATOM      9  N   UNL     1      -3.700  13.493  20.880  0.00  0.00    +0.000 NA
ATOM     10  C   UNL     1      -4.063  14.105  22.059  0.00  0.00    +0.000 A 
ATOM     11  C   UNL     1      -5.402  14.078  22.352  0.00  0.00    +0.000 A 
ATOM     12  S   UNL     1      -6.247  13.238  21.161  0.00  0.00    +0.000 S 
ATOM     13  C   UNL     1      -6.002  14.676  23.515  0.00  0.00    +0.000 C 
ATOM     14  O   UNL     1      -7.202  14.725  23.767  0.00  0.00    +0.000 OA
ATOM     15  N   UNL     1      -5.089  15.248  24.388  0.00  0.00    +0.000 N 
ATOM     16  C   UNL     1      -3.657  14.871  24.402  0.00  0.00    +0.000 C 
ATOM     17  C   UNL     1      -2.872  15.929  25.190  0.00  0.00    +0.000 C 
ATOM     18  C   UNL     1      -3.518  13.514  25.120  0.00  0.00    +0.000 C 
ATOM     19  C   UNL     1      -3.081  14.783  22.953  0.00  0.00    +0.000 C 
ATOM     20  C   UNL     1      -5.958  12.188  18.260  0.00  0.00    +0.000 C 
ATOM     21  C   UNL     1      -5.639  12.425  16.790  0.00  0.00    +0.000 C 
ATOM     22  O   UNL     1      -4.712  11.469  16.281  0.00  0.00    +0.000 OA
ATOM     23  H   UNL     1      -5.522  15.576  25.243  0.00  0.00    +0.000 HD
ENDROOT
BRANCH   1  29
ATOM     24  C   UNL     1       1.338   9.436  17.848  0.00  0.00    +0.000 C 
ATOM     25  N   UNL     1       0.836   9.531  19.197  0.00  0.00    +0.000 N 
ATOM     26  C   UNL     1       1.588   9.252  20.311  0.00  0.00    +0.000 A 
ATOM     27  C   UNL     1       0.777   9.554  21.373  0.00  0.00    +0.000 A 
ATOM     28  N   UNL     1      -0.443   9.998  20.935  0.00  0.00    +0.000 NA
ATOM     29  C   UNL     1      -0.408   9.968  19.614  0.00  0.00    +0.000 A 
ENDBRANCH   1  29
TORSDOF 1
ENDMDL
MODEL 8
REMARK VINA RESULT:      -6.5      3.365      8.333
REMARK  Name = 
REMARK  4 active torsions:
REMARK  status: ('A' for Active; 'I' for Inactive)
REMARK    1  A    between atoms: C_1  and  N_2
REMARK    2  A    between atoms: C_6  and  C_7
REMARK    3  A    between atoms: C_22  and  C_23
REMARK    4  A    between atoms: C_22  and  C_24
REMARK                            x       y       z     vdW  Elec       q    Type
REMARK                         _______ _______ _______ _____ _____    ______ ____
ROOT
ATOM      1  C   UNL     1       1.089  14.894  19.107  0.00  0.00    +0.000 A 
ATOM      2  C   UNL     1       2.041  14.196  18.359  0.00  0.00    +0.000 A 
ATOM      3  C   UNL     1       2.061  12.807  18.350  0.00  0.00    +0.000 A 
ATOM      4  C   UNL     1       1.164  12.092  19.138  0.00  0.00    +0.000 A 
ATOM      5  C   UNL     1       0.217  12.747  19.958  0.00  0.00    +0.000 A 
ATOM      6  C   UNL     1       0.193  14.155  19.909  0.00  0.00    +0.000 A 
ATOM      7  N   UNL     1      -0.616  11.993  20.830  0.00  0.00    +0.000 N 
ATOM      8  C   UNL     1      -1.692  12.460  21.538  0.00  0.00    +0.000 A 
ATOM      9  N   UNL     1      -2.476  13.459  21.157  0.00  0.00    +0.000 NA
ATOM     10  C   UNL     1      -3.495  13.653  22.061  0.00  0.00    +0.000 A 
ATOM     11  C   UNL     1      -3.504  12.802  23.136  0.00  0.00    +0.000 A 
ATOM     12  S   UNL     1      -2.191  11.748  23.060  0.00  0.00    +0.000 S 
ATOM     13  C   UNL     1      -4.488  12.811  24.184  0.00  0.00    +0.000 C 
ATOM     14  O   UNL     1      -4.558  12.018  25.119  0.00  0.00    +0.000 OA
ATOM     15  N   UNL     1      -5.430  13.821  24.064  0.00  0.00    +0.000 N 
ATOM     16  C   UNL     1      -5.189  15.043  23.263  0.00  0.00    +0.000 C 
ATOM     17  C   UNL     1      -6.527  15.756  23.028  0.00  0.00    +0.000 C 
ATOM     18  C   UNL     1      -4.264  15.978  24.067  0.00  0.00    +0.000 C 
ATOM     19  C   UNL     1      -4.546  14.696  21.882  0.00  0.00    +0.000 C 
ATOM     20  C   UNL     1      -0.056  10.665  21.093  0.00  0.00    +0.000 C 
ATOM     21  C   UNL     1       0.317  10.008  19.772  0.00  0.00    +0.000 C 
ATOM     22  O   UNL     1       1.334  10.730  19.081  0.00  0.00    +0.000 OA
ATOM     23  H   UNL     1      -6.053  13.869  24.861  0.00  0.00    +0.000 HD
ENDROOT
BRANCH   1  29
ATOM     24  C   UNL     1       2.632  16.836  21.043  0.00  0.00    +0.000 C 
ATOM     25  N   UNL     1       1.698  17.203  20.006  0.00  0.00    +0.000 N 
ATOM     26  C   UNL     1       1.384  18.500  19.687  0.00  0.00    +0.000 A 
ATOM     27  C   UNL     1       0.549  18.408  18.604  0.00  0.00    +0.000 A 
ATOM     28  N   UNL     1       0.344  17.097  18.266  0.00  0.00    +0.000 NA
ATOM     29  C   UNL     1       1.031  16.367  19.128  0.00  0.00    +0.000 A 
ENDBRANCH   1  29
TORSDOF 1
ENDMDL
MODEL 9
REMARK VINA RESULT:      -6.4      2.930      4.417
REMARK  Name = 
REMARK  4 active torsions:
REMARK  status: ('A' for Active; 'I' for Inactive)
REMARK    1  A    between atoms: C_1  and  N_2
REMARK    2  A    between atoms: C_6  and  C_7
REMARK    3  A    between atoms: C_22  and  C_23
REMARK    4  A    between atoms: C_22  and  C_24
REMARK                            x       y       z     vdW  Elec       q    Type
REMARK                         _______ _______ _______ _____ _____    ______ ____
ROOT
ATOM      1  C   UNL     1      -4.752  11.485  18.603  0.00  0.00    +0.000 A 
ATOM      2  C   UNL     1      -6.010  10.941  18.875  0.00  0.00    +0.000 A 
ATOM      3  C   UNL     1      -6.686  11.260  20.047  0.00  0.00    +0.000 A 
ATOM      4  C   UNL     1      -6.086  12.085  20.994  0.00  0.00    +0.000 A 
ATOM      5  C   UNL     1      -4.792  12.617  20.796  0.00  0.00    +0.000 A 
ATOM      6  C   UNL     1      -4.153  12.311  19.578  0.00  0.00    +0.000 A 
ATOM      7  N   UNL     1      -4.164  13.371  21.826  0.00  0.00    +0.000 N 
ATOM      8  C   UNL     1      -3.008  14.098  21.717  0.00  0.00    +0.000 A 
ATOM      9  N   UNL     1      -2.582  14.685  20.607  0.00  0.00    +0.000 NA
ATOM     10  C   UNL     1      -1.414  15.377  20.837  0.00  0.00    +0.000 A 
ATOM     11  C   UNL     1      -0.942  15.330  22.124  0.00  0.00    +0.000 A 
ATOM     12  S   UNL     1      -1.942  14.370  23.082  0.00  0.00    +0.000 S 
ATOM     13  C   UNL     1       0.243  15.999  22.590  0.00  0.00    +0.000 C 
ATOM     14  O   UNL     1       0.650  16.029  23.747  0.00  0.00    +0.000 OA
ATOM     15  N   UNL     1       0.939  16.668  21.595  0.00  0.00    +0.000 N 
ATOM     16  C   UNL     1       0.788  16.341  20.159  0.00  0.00    +0.000 C 
ATOM     17  C   UNL     1       1.382  17.483  19.323  0.00  0.00    +0.000 C 
ATOM     18  C   UNL     1       1.581  15.051  19.868  0.00  0.00    +0.000 C 
ATOM     19  C   UNL     1      -0.715  16.155  19.776  0.00  0.00    +0.000 C 
ATOM     20  C   UNL     1      -4.768  13.102  23.133  0.00  0.00    +0.000 C 
ATOM     21  C   UNL     1      -6.281  13.231  23.022  0.00  0.00    +0.000 C 
ATOM     22  O   UNL     1      -6.838  12.268  22.129  0.00  0.00    +0.000 OA
ATOM     23  H   UNL     1       1.818  17.050  21.925  0.00  0.00    +0.000 HD
ENDROOT
BRANCH   1  29
ATOM     24  C   UNL     1      -1.896  10.189  18.356  0.00  0.00    +0.000 C 
ATOM     25  N   UNL     1      -2.746  10.631  17.278  0.00  0.00    +0.000 N 
ATOM     26  C   UNL     1      -2.426  10.497  15.950  0.00  0.00    +0.000 A 
ATOM     27  C   UNL     1      -3.527  10.949  15.271  0.00  0.00    +0.000 A 
ATOM     28  N   UNL     1      -4.497  11.358  16.147  0.00  0.00    +0.000 NA
ATOM     29  C   UNL     1      -4.014  11.178  17.364  0.00  0.00    +0.000 A 
ENDBRANCH   1  29
TORSDOF 1
ENDMDL
