MODEL 1
REMARK VINA RESULT:      -8.3      0.000      0.000
REMARK  Name = 
REMARK  7 active torsions:
REMARK  status: ('A' for Active; 'I' for Inactive)
REMARK    1  A    between atoms: C_2  and  O_3
REMARK    2  A    between atoms: C_2  and  C_4
REMARK    3  A    between atoms: C_4  and  C_5
REMARK    4  A    between atoms: C_4  and  C_23
REMARK    5  A    between atoms: C_8  and  O_9
REMARK    6  A    between atoms: O_9  and  C_10
REMARK    7  A    between atoms: C_10  and  C_11
REMARK                            x       y       z     vdW  Elec       q    Type
REMARK                         _______ _______ _______ _____ _____    ______ ____
ROOT
ATOM      1  C   UNL     1       4.068   5.904  18.876  0.00  0.00    +0.000 A 
ATOM      2  C   UNL     1       4.462   6.584  17.720  0.00  0.00    +0.000 A 
ATOM      3  C   UNL     1       3.766   7.715  17.259  0.00  0.00    +0.000 A 
ATOM      4  C   UNL     1       2.645   8.207  17.925  0.00  0.00    +0.000 A 
ATOM      5  C   UNL     1       2.249   7.538  19.094  0.00  0.00    +0.000 A 
ATOM      6  C   UNL     1       2.942   6.395  19.561  0.00  0.00    +0.000 A 
ENDROOT
BRANCH   1   7
ATOM      7  C   UNL     1       4.871   4.690  19.390  0.00  0.00    +0.000 C 
BRANCH   7   8
ATOM      8  C   UNL     1       4.249   3.334  18.939  0.00  0.00    +0.000 C 
ATOM      9  C   UNL     1       3.137   2.812  19.866  0.00  0.00    +0.000 C 
ATOM     10  C   UNL     1       2.312   1.852  19.018  0.00  0.00    +0.000 C 
ATOM     11  C   UNL     1       2.516   2.274  17.570  0.00  0.00    +0.000 C 
ATOM     12  C   UNL     1       3.531   3.414  17.588  0.00  0.00    +0.000 C 
ENDBRANCH   7   8
BRANCH   7  14
ATOM     13  O   UNL     1       6.866   4.253  18.021  0.00  0.00    +0.000 OA
ATOM     14  C   UNL     1       6.365   4.764  19.004  0.00  0.00    +0.000 C 
BRANCH  14  15
ATOM     15  O   UNL     1       7.147   5.407  19.913  0.00  0.00    +0.000 OA
ATOM     16  H   UNL     1       8.065   5.569  19.617  0.00  0.00    +0.000 HD
ENDBRANCH  14  15
ENDBRANCH   7  14
ENDBRANCH   1   7
BRANCH   4  17
ATOM     17  O   UNL     1       1.928   9.326  17.546  0.00  0.00    +0.000 OA
BRANCH  17  18
ATOM     18  C   UNL     1       1.378  10.143  18.616  0.00  0.00    +0.000 C 
BRANCH  18  19
ATOM     19  C   UNL     1      -0.122  10.459  18.518  0.00  0.00    +0.000 A 
ATOM     20  C   UNL     1      -0.705  11.359  19.397  0.00  0.00    +0.000 A 
ATOM     21  C   UNL     1      -2.066  11.630  19.288  0.00  0.00    +0.000 A 
ATOM     22  C   UNL     1      -2.775  11.196  18.172  0.00  0.00    +0.000 A 
ATOM     23  C   UNL     1      -4.079  11.672  17.942  0.00  0.00    +0.000 A 
ATOM     24  C   UNL     1      -4.718  11.423  16.733  0.00  0.00    +0.000 A 
ATOM     25  C   UNL     1      -4.083  10.631  15.787  0.00  0.00    +0.000 A 
ATOM     26  C   UNL     1      -2.810  10.090  16.063  0.00  0.00    +0.000 A 
ATOM     27  C   UNL     1      -2.109  10.376  17.243  0.00  0.00    +0.000 A 
ATOM     28  N   UNL     1      -0.826   9.961  17.452  0.00  0.00    +0.000 NA
ENDBRANCH  18  19
ENDBRANCH  17  18
ENDBRANCH   4  17
TORSDOF 7
ENDMDL
MODEL 2
REMARK VINA RESULT:      -8.1      1.679      2.757
REMARK  Name = 
REMARK  7 active torsions:
REMARK  status: ('A' for Active; 'I' for Inactive)
REMARK    1  A    between atoms: C_2  and  O_3
REMARK    2  A    between atoms: C_2  and  C_4
REMARK    3  A    between atoms: C_4  and  C_5
REMARK    4  A    between atoms: C_4  and  C_23
REMARK    5  A    between atoms: C_8  and  O_9
REMARK    6  A    between atoms: O_9  and  C_10
REMARK    7  A    between atoms: C_10  and  C_11
REMARK                            x       y       z     vdW  Elec       q    Type
REMARK                         _______ _______ _______ _____ _____    ______ ____
ROOT
ATOM      1  C   UNL     1       3.326   5.131  18.359  0.00  0.00    +0.000 A 
ATOM      2  C   UNL     1       2.723   5.127  19.619  0.00  0.00    +0.000 A 
ATOM      3  C   UNL     1       2.135   6.285  20.157  0.00  0.00    +0.000 A 
ATOM      4  C   UNL     1       2.133   7.495  19.465  0.00  0.00    +0.000 A 
ATOM      5  C   UNL     1       2.725   7.505  18.192  0.00  0.00    +0.000 A 
ATOM      6  C   UNL     1       3.324   6.344  17.647  0.00  0.00    +0.000 A 
ENDROOT
BRANCH   1   7
ATOM      7  C   UNL     1       3.928   3.838  17.768  0.00  0.00    +0.000 C 
BRANCH   7   8
ATOM      8  C   UNL     1       5.392   4.039  17.272  0.00  0.00    +0.000 C 
ATOM      9  C   UNL     1       5.505   4.453  15.794  0.00  0.00    +0.000 C 
ATOM     10  C   UNL     1       6.868   5.120  15.657  0.00  0.00    +0.000 C 
ATOM     11  C   UNL     1       7.235   5.636  17.041  0.00  0.00    +0.000 C 
ATOM     12  C   UNL     1       6.124   5.181  17.984  0.00  0.00    +0.000 C 
ENDBRANCH   7   8
BRANCH   7  14
ATOM     13  O   UNL     1       2.889   1.893  18.855  0.00  0.00    +0.000 OA
ATOM     14  C   UNL     1       3.838   2.644  18.744  0.00  0.00    +0.000 C 
BRANCH  14  15
ATOM     15  O   UNL     1       4.911   2.515  19.570  0.00  0.00    +0.000 OA
ATOM     16  H   UNL     1       4.734   2.737  20.505  0.00  0.00    +0.000 HD
ENDBRANCH  14  15
ENDBRANCH   7  14
ENDBRANCH   1   7
BRANCH   4  17
ATOM     17  O   UNL     1       1.553   8.665  19.917  0.00  0.00    +0.000 OA
BRANCH  17  18
ATOM     18  C   UNL     1       1.345   9.715  18.933  0.00  0.00    +0.000 C 
BRANCH  18  19
ATOM     19  C   UNL     1      -0.111  10.151  18.711  0.00  0.00    +0.000 A 
ATOM     20  C   UNL     1      -0.680  11.123  19.520  0.00  0.00    +0.000 A 
ATOM     21  C   UNL     1      -2.000  11.502  19.298  0.00  0.00    +0.000 A 
ATOM     22  C   UNL     1      -2.657  11.095  18.141  0.00  0.00    +0.000 A 
ATOM     23  C   UNL     1      -3.895  11.670  17.798  0.00  0.00    +0.000 A 
ATOM     24  C   UNL     1      -4.459  11.438  16.549  0.00  0.00    +0.000 A 
ATOM     25  C   UNL     1      -3.824  10.567  15.675  0.00  0.00    +0.000 A 
ATOM     26  C   UNL     1      -2.626   9.931  16.063  0.00  0.00    +0.000 A 
ATOM     27  C   UNL     1      -1.995  10.194  17.286  0.00  0.00    +0.000 A 
ATOM     28  N   UNL     1      -0.772   9.681  17.605  0.00  0.00    +0.000 NA
ENDBRANCH  18  19
ENDBRANCH  17  18
ENDBRANCH   4  17
TORSDOF 7
ENDMDL
MODEL 3
REMARK VINA RESULT:      -8.1      1.242      1.939
REMARK  Name = 
REMARK  7 active torsions:
REMARK  status: ('A' for Active; 'I' for Inactive)
REMARK    1  A    between atoms: C_2  and  O_3
REMARK    2  A    between atoms: C_2  and  C_4
REMARK    3  A    between atoms: C_4  and  C_5
REMARK    4  A    between atoms: C_4  and  C_23
REMARK    5  A    between atoms: C_8  and  O_9
REMARK    6  A    between atoms: O_9  and  C_10
REMARK    7  A    between atoms: C_10  and  C_11
REMARK                            x       y       z     vdW  Elec       q    Type
REMARK                         _______ _______ _______ _____ _____    ______ ____
ROOT
ATOM      1  C   UNL     1       3.510   5.853  18.774  0.00  0.00    +0.000 A 
ATOM      2  C   UNL     1       3.848   6.584  17.632  0.00  0.00    +0.000 A 
ATOM      3  C   UNL     1       3.297   7.853  17.381  0.00  0.00    +0.000 A 
ATOM      4  C   UNL     1       2.381   8.439  18.251  0.00  0.00    +0.000 A 
ATOM      5  C   UNL     1       2.045   7.718  19.408  0.00  0.00    +0.000 A 
ATOM      6  C   UNL     1       2.592   6.438  19.665  0.00  0.00    +0.000 A 
ENDROOT
BRANCH   1   7
ATOM      7  C   UNL     1       4.160   4.481  19.055  0.00  0.00    +0.000 C 
BRANCH   7   8
ATOM      8  C   UNL     1       3.101   3.368  19.317  0.00  0.00    +0.000 C 
ATOM      9  C   UNL     1       2.520   3.375  20.742  0.00  0.00    +0.000 C 
ATOM     10  C   UNL     1       1.184   2.649  20.645  0.00  0.00    +0.000 C 
ATOM     11  C   UNL     1       0.725   2.786  19.201  0.00  0.00    +0.000 C 
ATOM     12  C   UNL     1       1.843   3.510  18.455  0.00  0.00    +0.000 C 
ENDBRANCH   7   8
BRANCH   7  14
ATOM     13  O   UNL     1       4.828   3.698  16.822  0.00  0.00    +0.000 OA
ATOM     14  C   UNL     1       5.141   4.054  17.941  0.00  0.00    +0.000 C 
BRANCH  14  15
ATOM     15  O   UNL     1       6.446   4.027  18.325  0.00  0.00    +0.000 OA
ATOM     16  H   UNL     1       7.058   4.491  17.718  0.00  0.00    +0.000 HD
ENDBRANCH  14  15
ENDBRANCH   7  14
ENDBRANCH   1   7
BRANCH   4  17
ATOM     17  O   UNL     1       1.818   9.690  18.083  0.00  0.00    +0.000 OA
BRANCH  17  18
ATOM     18  C   UNL     1       0.885  10.130  19.108  0.00  0.00    +0.000 C 
BRANCH  18  19
ATOM     19  C   UNL     1      -0.520  10.513  18.621  0.00  0.00    +0.000 A 
ATOM     20  C   UNL     1      -1.119   9.805  17.591  0.00  0.00    +0.000 A 
ATOM     21  C   UNL     1      -2.394  10.170  17.167  0.00  0.00    +0.000 A 
ATOM     22  C   UNL     1      -3.148  11.066  17.920  0.00  0.00    +0.000 A 
ATOM     23  C   UNL     1      -4.513  11.248  17.632  0.00  0.00    +0.000 A 
ATOM     24  C   UNL     1      -5.327  11.967  18.498  0.00  0.00    +0.000 A 
ATOM     25  C   UNL     1      -4.759  12.571  19.612  0.00  0.00    +0.000 A 
ATOM     26  C   UNL     1      -3.373  12.450  19.845  0.00  0.00    +0.000 A 
ATOM     27  C   UNL     1      -2.535  11.677  19.030  0.00  0.00    +0.000 A 
ATOM     28  N   UNL     1      -1.223  11.454  19.329  0.00  0.00    +0.000 NA
ENDBRANCH  18  19
ENDBRANCH  17  18
ENDBRANCH   4  17
TORSDOF 7
ENDMDL
MODEL 4
REMARK VINA RESULT:      -8.0      1.674      2.855
REMARK  Name = 
REMARK  7 active torsions:
REMARK  status: ('A' for Active; 'I' for Inactive)
REMARK    1  A    between atoms: C_2  and  O_3
REMARK    2  A    between atoms: C_2  and  C_4
REMARK    3  A    between atoms: C_4  and  C_5
REMARK    4  A    between atoms: C_4  and  C_23
REMARK    5  A    between atoms: C_8  and  O_9
REMARK    6  A    between atoms: O_9  and  C_10
REMARK    7  A    between atoms: C_10  and  C_11
REMARK                            x       y       z     vdW  Elec       q    Type
REMARK                         _______ _______ _______ _____ _____    ______ ____
ROOT
ATOM      1  C   UNL     1       3.033   5.803  18.203  0.00  0.00    +0.000 A 
ATOM      2  C   UNL     1       2.916   7.105  17.710  0.00  0.00    +0.000 A 
ATOM      3  C   UNL     1       2.298   8.122  18.458  0.00  0.00    +0.000 A 
ATOM      4  C   UNL     1       1.763   7.880  19.722  0.00  0.00    +0.000 A 
ATOM      5  C   UNL     1       1.888   6.578  20.232  0.00  0.00    +0.000 A 
ATOM      6  C   UNL     1       2.505   5.548  19.481  0.00  0.00    +0.000 A 
ENDROOT
BRANCH   1   7
ATOM      7  C   UNL     1       3.755   4.711  17.385  0.00  0.00    +0.000 C 
BRANCH   7   8
ATOM      8  C   UNL     1       5.305   4.803  17.512  0.00  0.00    +0.000 C 
ATOM      9  C   UNL     1       5.965   5.756  16.498  0.00  0.00    +0.000 C 
ATOM     10  C   UNL     1       7.309   6.136  17.106  0.00  0.00    +0.000 C 
ATOM     11  C   UNL     1       7.167   5.956  18.610  0.00  0.00    +0.000 C 
ATOM     12  C   UNL     1       5.772   5.385  18.851  0.00  0.00    +0.000 C 
ENDBRANCH   7   8
BRANCH   7  14
ATOM     13  O   UNL     1       2.176   2.826  17.432  0.00  0.00    +0.000 OA
ATOM     14  C   UNL     1       3.260   3.289  17.731  0.00  0.00    +0.000 C 
BRANCH  14  15
ATOM     15  O   UNL     1       4.125   2.565  18.492  0.00  0.00    +0.000 OA
ATOM     16  H   UNL     1       4.796   2.068  17.984  0.00  0.00    +0.000 HD
ENDBRANCH  14  15
ENDBRANCH   7  14
ENDBRANCH   1   7
BRANCH   4  17
ATOM     17  O   UNL     1       1.166   8.834  20.524  0.00  0.00    +0.000 OA
BRANCH  17  18
ATOM     18  C   UNL     1       0.998  10.159  19.950  0.00  0.00    +0.000 C 
BRANCH  18  19
ATOM     19  C   UNL     1      -0.412  10.502  19.446  0.00  0.00    +0.000 A 
ATOM     20  C   UNL     1      -1.148  11.504  20.058  0.00  0.00    +0.000 A 
ATOM     21  C   UNL     1      -2.423  11.796  19.582  0.00  0.00    +0.000 A 
ATOM     22  C   UNL     1      -2.853  11.265  18.370  0.00  0.00    +0.000 A 
ATOM     23  C   UNL     1      -4.033  11.746  17.772  0.00  0.00    +0.000 A 
ATOM     24  C   UNL     1      -4.362  11.387  16.471  0.00  0.00    +0.000 A 
ATOM     25  C   UNL     1      -3.553  10.482  15.797  0.00  0.00    +0.000 A 
ATOM     26  C   UNL     1      -2.418   9.942  16.437  0.00  0.00    +0.000 A 
ATOM     27  C   UNL     1      -2.019  10.334  17.723  0.00  0.00    +0.000 A 
ATOM     28  N   UNL     1      -0.853   9.911  18.289  0.00  0.00    +0.000 NA
ENDBRANCH  18  19
ENDBRANCH  17  18
ENDBRANCH   4  17
TORSDOF 7
ENDMDL
MODEL 5
REMARK VINA RESULT:      -8.0      1.933      2.739
REMARK  Name = 
REMARK  7 active torsions:
REMARK  status: ('A' for Active; 'I' for Inactive)
REMARK    1  A    between atoms: C_2  and  O_3
REMARK    2  A    between atoms: C_2  and  C_4
REMARK    3  A    between atoms: C_4  and  C_5
REMARK    4  A    between atoms: C_4  and  C_23
REMARK    5  A    between atoms: C_8  and  O_9
REMARK    6  A    between atoms: O_9  and  C_10
REMARK    7  A    between atoms: C_10  and  C_11
REMARK                            x       y       z     vdW  Elec       q    Type
REMARK                         _______ _______ _______ _____ _____    ______ ____
ROOT
ATOM      1  C   UNL     1       4.645   5.902  17.894  0.00  0.00    +0.000 A 
ATOM      2  C   UNL     1       4.017   5.532  19.086  0.00  0.00    +0.000 A 
ATOM      3  C   UNL     1       2.972   6.296  19.634  0.00  0.00    +0.000 A 
ATOM      4  C   UNL     1       2.519   7.462  19.022  0.00  0.00    +0.000 A 
ATOM      5  C   UNL     1       3.134   7.835  17.817  0.00  0.00    +0.000 A 
ATOM      6  C   UNL     1       4.191   7.073  17.262  0.00  0.00    +0.000 A 
ENDROOT
BRANCH   1   7
ATOM      7  C   UNL     1       5.761   5.026  17.285  0.00  0.00    +0.000 C 
BRANCH   7   8
ATOM      8  C   UNL     1       5.852   5.174  15.736  0.00  0.00    +0.000 C 
ATOM      9  C   UNL     1       7.277   5.033  15.172  0.00  0.00    +0.000 C 
ATOM     10  C   UNL     1       7.104   4.653  13.707  0.00  0.00    +0.000 C 
ATOM     11  C   UNL     1       5.738   3.992  13.593  0.00  0.00    +0.000 C 
ATOM     12  C   UNL     1       5.095   4.080  14.975  0.00  0.00    +0.000 C 
ENDBRANCH   7   8
BRANCH   7  14
ATOM     13  O   UNL     1       7.865   4.426  18.408  0.00  0.00    +0.000 OA
ATOM     14  C   UNL     1       7.137   5.280  17.941  0.00  0.00    +0.000 C 
BRANCH  14  15
ATOM     15  O   UNL     1       7.476   6.593  18.038  0.00  0.00    +0.000 OA
ATOM     16  H   UNL     1       7.301   7.119  17.233  0.00  0.00    +0.000 HD
ENDBRANCH  14  15
ENDBRANCH   7  14
ENDBRANCH   1   7
BRANCH   4  17
ATOM     17  O   UNL     1       1.481   8.249  19.488  0.00  0.00    +0.000 OA
BRANCH  17  18
ATOM     18  C   UNL     1       1.337   9.564  18.885  0.00  0.00    +0.000 C 
BRANCH  18  19
ATOM     19  C   UNL     1      -0.104  10.052  18.672  0.00  0.00    +0.000 A 
ATOM     20  C   UNL     1      -0.632  11.046  19.480  0.00  0.00    +0.000 A 
ATOM     21  C   UNL     1      -1.940  11.472  19.266  0.00  0.00    +0.000 A 
ATOM     22  C   UNL     1      -2.619  11.085  18.115  0.00  0.00    +0.000 A 
ATOM     23  C   UNL     1      -3.838  11.703  17.779  0.00  0.00    +0.000 A 
ATOM     24  C   UNL     1      -4.419  11.487  16.535  0.00  0.00    +0.000 A 
ATOM     25  C   UNL     1      -3.821  10.590  15.659  0.00  0.00    +0.000 A 
ATOM     26  C   UNL     1      -2.644   9.914  16.041  0.00  0.00    +0.000 A 
ATOM     27  C   UNL     1      -1.995  10.157  17.260  0.00  0.00    +0.000 A 
ATOM     28  N   UNL     1      -0.789   9.602  17.572  0.00  0.00    +0.000 NA
ENDBRANCH  18  19
ENDBRANCH  17  18
ENDBRANCH   4  17
TORSDOF 7
ENDMDL
MODEL 6
REMARK VINA RESULT:      -8.0      1.856      2.971
REMARK  Name = 
REMARK  7 active torsions:
REMARK  status: ('A' for Active; 'I' for Inactive)
REMARK    1  A    between atoms: C_2  and  O_3
REMARK    2  A    between atoms: C_2  and  C_4
REMARK    3  A    between atoms: C_4  and  C_5
REMARK    4  A    between atoms: C_4  and  C_23
REMARK    5  A    between atoms: C_8  and  O_9
REMARK    6  A    between atoms: O_9  and  C_10
REMARK    7  A    between atoms: C_10  and  C_11
REMARK                            x       y       z     vdW  Elec       q    Type
REMARK                         _______ _______ _______ _____ _____    ______ ____
ROOT
ATOM      1  C   UNL     1       2.835   6.245  18.338  0.00  0.00    +0.000 A 
ATOM      2  C   UNL     1       2.465   6.066  19.674  0.00  0.00    +0.000 A 
ATOM      3  C   UNL     1       1.891   7.107  20.423  0.00  0.00    +0.000 A 
ATOM      4  C   UNL     1       1.671   8.369  19.876  0.00  0.00    +0.000 A 
ATOM      5  C   UNL     1       2.027   8.555  18.531  0.00  0.00    +0.000 A 
ATOM      6  C   UNL     1       2.611   7.513  17.772  0.00  0.00    +0.000 A 
ENDROOT
BRANCH   1   7
ATOM      7  C   UNL     1       3.423   5.076  17.519  0.00  0.00    +0.000 C 
BRANCH   7   8
ATOM      8  C   UNL     1       4.962   4.928  17.720  0.00  0.00    +0.000 C 
ATOM      9  C   UNL     1       5.677   4.181  16.580  0.00  0.00    +0.000 C 
ATOM     10  C   UNL     1       7.136   4.612  16.658  0.00  0.00    +0.000 C 
ATOM     11  C   UNL     1       7.148   5.969  17.345  0.00  0.00    +0.000 C 
ATOM     12  C   UNL     1       5.704   6.269  17.742  0.00  0.00    +0.000 C 
ENDBRANCH   7   8
BRANCH   7  14
ATOM     13  O   UNL     1       3.183   2.785  18.378  0.00  0.00    +0.000 OA
ATOM     14  C   UNL     1       2.703   3.738  17.796  0.00  0.00    +0.000 C 
BRANCH  14  15
ATOM     15  O   UNL     1       1.455   3.653  17.261  0.00  0.00    +0.000 OA
ATOM     16  H   UNL     1       1.073   2.753  17.261  0.00  0.00    +0.000 HD
ENDBRANCH  14  15
ENDBRANCH   7  14
ENDBRANCH   1   7
BRANCH   4  17
ATOM     17  O   UNL     1       1.089   9.431  20.543  0.00  0.00    +0.000 OA
BRANCH  17  18
ATOM     18  C   UNL     1       0.862  10.643  19.771  0.00  0.00    +0.000 C 
BRANCH  18  19
ATOM     19  C   UNL     1      -0.580  10.882  19.300  0.00  0.00    +0.000 A 
ATOM     20  C   UNL     1      -1.363  11.849  19.910  0.00  0.00    +0.000 A 
ATOM     21  C   UNL     1      -2.667  12.047  19.465  0.00  0.00    +0.000 A 
ATOM     22  C   UNL     1      -3.094  11.460  18.278  0.00  0.00    +0.000 A 
ATOM     23  C   UNL     1      -4.318  11.850  17.703  0.00  0.00    +0.000 A 
ATOM     24  C   UNL     1      -4.659  11.438  16.420  0.00  0.00    +0.000 A 
ATOM     25  C   UNL     1      -3.811  10.571  15.744  0.00  0.00    +0.000 A 
ATOM     26  C   UNL     1      -2.627  10.121  16.364  0.00  0.00    +0.000 A 
ATOM     27  C   UNL     1      -2.220  10.569  17.628  0.00  0.00    +0.000 A 
ATOM     28  N   UNL     1      -1.013  10.236  18.170  0.00  0.00    +0.000 NA
ENDBRANCH  18  19
ENDBRANCH  17  18
ENDBRANCH   4  17
TORSDOF 7
ENDMDL
MODEL 7
REMARK VINA RESULT:      -8.0      2.976      4.236
REMARK  Name = 
REMARK  7 active torsions:
REMARK  status: ('A' for Active; 'I' for Inactive)
REMARK    1  A    between atoms: C_2  and  O_3
REMARK    2  A    between atoms: C_2  and  C_4
REMARK    3  A    between atoms: C_4  and  C_5
REMARK    4  A    between atoms: C_4  and  C_23
REMARK    5  A    between atoms: C_8  and  O_9
REMARK    6  A    between atoms: O_9  and  C_10
REMARK    7  A    between atoms: C_10  and  C_11
REMARK                            x       y       z     vdW  Elec       q    Type
REMARK                         _______ _______ _______ _____ _____    ______ ____
ROOT
ATOM      1  C   UNL     1       3.008   4.923  18.248  0.00  0.00    +0.000 A 
ATOM      2  C   UNL     1       2.557   4.682  19.548  0.00  0.00    +0.000 A 
ATOM      3  C   UNL     1       2.138   5.729  20.387  0.00  0.00    +0.000 A 
ATOM      4  C   UNL     1       2.160   7.057  19.968  0.00  0.00    +0.000 A 
ATOM      5  C   UNL     1       2.599   7.309  18.658  0.00  0.00    +0.000 A 
ATOM      6  C   UNL     1       3.028   6.260  17.810  0.00  0.00    +0.000 A 
ENDROOT
BRANCH   1   7
ATOM      7  C   UNL     1       3.423   3.756  17.327  0.00  0.00    +0.000 C 
BRANCH   7   8
ATOM      8  C   UNL     1       4.946   3.776  16.995  0.00  0.00    +0.000 C 
ATOM      9  C   UNL     1       5.310   4.616  15.757  0.00  0.00    +0.000 C 
ATOM     10  C   UNL     1       6.783   4.968  15.918  0.00  0.00    +0.000 C 
ATOM     11  C   UNL     1       7.079   4.907  17.410  0.00  0.00    +0.000 C 
ATOM     12  C   UNL     1       5.798   4.429  18.089  0.00  0.00    +0.000 C 
ENDBRANCH   7   8
BRANCH   7  14
ATOM     13  O   UNL     1       3.730   1.608  18.483  0.00  0.00    +0.000 OA
ATOM     14  C   UNL     1       3.002   2.380  17.890  0.00  0.00    +0.000 C 
BRANCH  14  15
ATOM     15  O   UNL     1       1.719   2.029  17.609  0.00  0.00    +0.000 OA
ATOM     16  H   UNL     1       1.399   2.324  16.733  0.00  0.00    +0.000 HD
ENDBRANCH  14  15
ENDBRANCH   7  14
ENDBRANCH   1   7
BRANCH   4  17
ATOM     17  O   UNL     1       1.739   8.134  20.726  0.00  0.00    +0.000 OA
BRANCH  17  18
ATOM     18  C   UNL     1       0.940   9.140  20.046  0.00  0.00    +0.000 C 
BRANCH  18  19
ATOM     19  C   UNL     1      -0.023   9.947  20.930  0.00  0.00    +0.000 A 
ATOM     20  C   UNL     1      -0.058   9.734  22.300  0.00  0.00    +0.000 A 
ATOM     21  C   UNL     1      -0.938  10.478  23.079  0.00  0.00    +0.000 A 
ATOM     22  C   UNL     1      -1.592  11.579  22.535  0.00  0.00    +0.000 A 
ATOM     23  C   UNL     1      -2.286  12.469  23.375  0.00  0.00    +0.000 A 
ATOM     24  C   UNL     1      -2.759  13.680  22.883  0.00  0.00    +0.000 A 
ATOM     25  C   UNL     1      -2.607  13.964  21.533  0.00  0.00    +0.000 A 
ATOM     26  C   UNL     1      -1.984  13.026  20.683  0.00  0.00    +0.000 A 
ATOM     27  C   UNL     1      -1.436  11.826  21.158  0.00  0.00    +0.000 A 
ATOM     28  N   UNL     1      -0.719  10.983  20.361  0.00  0.00    +0.000 NA
ENDBRANCH  18  19
ENDBRANCH  17  18
ENDBRANCH   4  17
TORSDOF 7
ENDMDL
MODEL 8
REMARK VINA RESULT:      -8.0      1.727      2.583
REMARK  Name = 
REMARK  7 active torsions:
REMARK  status: ('A' for Active; 'I' for Inactive)
REMARK    1  A    between atoms: C_2  and  O_3
REMARK    2  A    between atoms: C_2  and  C_4
REMARK    3  A    between atoms: C_4  and  C_5
REMARK    4  A    between atoms: C_4  and  C_23
REMARK    5  A    between atoms: C_8  and  O_9
REMARK    6  A    between atoms: O_9  and  C_10
REMARK    7  A    between atoms: C_10  and  C_11
REMARK                            x       y       z     vdW  Elec       q    Type
REMARK                         _______ _______ _______ _____ _____    ______ ____
ROOT
ATOM      1  C   UNL     1       2.640   6.956  18.856  0.00  0.00    +0.000 A 
ATOM      2  C   UNL     1       2.347   7.892  17.860  0.00  0.00    +0.000 A 
ATOM      3  C   UNL     1       1.607   9.054  18.138  0.00  0.00    +0.000 A 
ATOM      4  C   UNL     1       1.122   9.326  19.416  0.00  0.00    +0.000 A 
ATOM      5  C   UNL     1       1.423   8.398  20.426  0.00  0.00    +0.000 A 
ATOM      6  C   UNL     1       2.163   7.223  20.151  0.00  0.00    +0.000 A 
ENDROOT
BRANCH   1   7
ATOM      7  C   UNL     1       3.492   5.708  18.539  0.00  0.00    +0.000 C 
BRANCH   7   8
ATOM      8  C   UNL     1       2.638   4.542  17.955  0.00  0.00    +0.000 C 
ATOM      9  C   UNL     1       3.417   3.229  17.757  0.00  0.00    +0.000 C 
ATOM     10  C   UNL     1       2.366   2.127  17.732  0.00  0.00    +0.000 C 
ATOM     11  C   UNL     1       1.165   2.661  18.498  0.00  0.00    +0.000 C 
ATOM     12  C   UNL     1       1.497   4.102  18.878  0.00  0.00    +0.000 C 
ENDBRANCH   7   8
BRANCH   7  14
ATOM     13  O   UNL     1       4.640   6.122  16.405  0.00  0.00    +0.000 OA
ATOM     14  C   UNL     1       4.688   6.027  17.616  0.00  0.00    +0.000 C 
BRANCH  14  15
ATOM     15  O   UNL     1       5.881   6.132  18.262  0.00  0.00    +0.000 OA
ATOM     16  H   UNL     1       6.660   5.906  17.716  0.00  0.00    +0.000 HD
ENDBRANCH  14  15
ENDBRANCH   7  14
ENDBRANCH   1   7
BRANCH   4  17
ATOM     17  O   UNL     1       0.412  10.458  19.769  0.00  0.00    +0.000 OA
BRANCH  17  18
ATOM     18  C   UNL     1      -0.073  11.291  18.680  0.00  0.00    +0.000 C 
BRANCH  18  19
ATOM     19  C   UNL     1      -1.578  11.209  18.387  0.00  0.00    +0.000 A 
ATOM     20  C   UNL     1      -2.083  10.183  17.604  0.00  0.00    +0.000 A 
ATOM     21  C   UNL     1      -3.450  10.130  17.353  0.00  0.00    +0.000 A 
ATOM     22  C   UNL     1      -4.322  10.943  18.070  0.00  0.00    +0.000 A 
ATOM     23  C   UNL     1      -5.710  10.721  17.996  0.00  0.00    +0.000 A 
ATOM     24  C   UNL     1      -6.577  11.376  18.863  0.00  0.00    +0.000 A 
ATOM     25  C   UNL     1      -6.062  12.312  19.750  0.00  0.00    +0.000 A 
ATOM     26  C   UNL     1      -4.679  12.587  19.757  0.00  0.00    +0.000 A 
ATOM     27  C   UNL     1      -3.768  11.897  18.945  0.00  0.00    +0.000 A 
ATOM     28  N   UNL     1      -2.419  12.070  19.046  0.00  0.00    +0.000 NA
ENDBRANCH  18  19
ENDBRANCH  17  18
ENDBRANCH   4  17
TORSDOF 7
ENDMDL
MODEL 9
REMARK VINA RESULT:      -7.8      2.820      4.110
REMARK  Name = 
REMARK  7 active torsions:
REMARK  status: ('A' for Active; 'I' for Inactive)
REMARK    1  A    between atoms: C_2  and  O_3
REMARK    2  A    between atoms: C_2  and  C_4
REMARK    3  A    between atoms: C_4  and  C_5
REMARK    4  A    between atoms: C_4  and  C_23
REMARK    5  A    between atoms: C_8  and  O_9
REMARK    6  A    between atoms: O_9  and  C_10
REMARK    7  A    between atoms: C_10  and  C_11
REMARK                            x       y       z     vdW  Elec       q    Type
REMARK                         _______ _______ _______ _____ _____    ______ ____
ROOT
ATOM      1  C   UNL     1       4.729   5.789  17.762  0.00  0.00    +0.000 A 
ATOM      2  C   UNL     1       4.120   5.425  18.966  0.00  0.00    +0.000 A 
ATOM      3  C   UNL     1       3.094   6.200  19.534  0.00  0.00    +0.000 A 
ATOM      4  C   UNL     1       2.641   7.371  18.931  0.00  0.00    +0.000 A 
ATOM      5  C   UNL     1       3.238   7.738  17.714  0.00  0.00    +0.000 A 
ATOM      6  C   UNL     1       4.276   6.965  17.140  0.00  0.00    +0.000 A 
ENDROOT
BRANCH   1   7
ATOM      7  C   UNL     1       5.824   4.901  17.132  0.00  0.00    +0.000 C 
BRANCH   7   8
ATOM      8  C   UNL     1       5.878   5.039  15.581  0.00  0.00    +0.000 C 
ATOM      9  C   UNL     1       7.303   5.055  14.999  0.00  0.00    +0.000 C 
ATOM     10  C   UNL     1       7.157   4.639  13.541  0.00  0.00    +0.000 C 
ATOM     11  C   UNL     1       5.875   3.824  13.453  0.00  0.00    +0.000 C 
ATOM     12  C   UNL     1       5.243   3.855  14.842  0.00  0.00    +0.000 C 
ENDBRANCH   7   8
BRANCH   7  14
ATOM     13  O   UNL     1       7.679   6.238  18.036  0.00  0.00    +0.000 OA
ATOM     14  C   UNL     1       7.217   5.150  17.753  0.00  0.00    +0.000 C 
BRANCH  14  15
ATOM     15  O   UNL     1       7.969   4.027  17.909  0.00  0.00    +0.000 OA
ATOM     16  H   UNL     1       8.036   3.468  17.110  0.00  0.00    +0.000 HD
ENDBRANCH  14  15
ENDBRANCH   7  14
ENDBRANCH   1   7
BRANCH   4  17
ATOM     17  O   UNL     1       1.621   8.168  19.416  0.00  0.00    +0.000 OA
BRANCH  17  18
ATOM     18  C   UNL     1       1.303   8.035  20.829  0.00  0.00    +0.000 C 
BRANCH  18  19
ATOM     19  C   UNL     1       0.371   9.107  21.414  0.00  0.00    +0.000 A 
ATOM     20  C   UNL     1       0.207   9.217  22.785  0.00  0.00    +0.000 A 
ATOM     21  C   UNL     1      -0.642  10.197  23.291  0.00  0.00    +0.000 A 
ATOM     22  C   UNL     1      -1.124  11.200  22.455  0.00  0.00    +0.000 A 
ATOM     23  C   UNL     1      -1.776  12.319  23.006  0.00  0.00    +0.000 A 
ATOM     24  C   UNL     1      -2.071  13.423  22.215  0.00  0.00    +0.000 A 
ATOM     25  C   UNL     1      -1.786  13.375  20.858  0.00  0.00    +0.000 A 
ATOM     26  C   UNL     1      -1.208  12.215  20.302  0.00  0.00    +0.000 A 
ATOM     27  C   UNL     1      -0.836  11.110  21.080  0.00  0.00    +0.000 A 
ATOM     28  N   UNL     1      -0.159  10.044  20.564  0.00  0.00    +0.000 NA
ENDBRANCH  18  19
ENDBRANCH  17  18
ENDBRANCH   4  17
TORSDOF 7
ENDMDL
