MODEL 1
REMARK VINA RESULT:      -6.6      0.000      0.000
REMARK  Name = 
REMARK  5 active torsions:
REMARK  status: ('A' for Active; 'I' for Inactive)
REMARK    1  A    between atoms: N_1  and  C_2
REMARK    2  A    between atoms: C_2  and  C_3
REMARK    3  A    between atoms: C_6  and  N_7
REMARK    4  A    between atoms: C_14  and  C_15
REMARK    5  A    between atoms: C_15  and  O_17
REMARK                            x       y       z     vdW  Elec       q    Type
REMARK                         _______ _______ _______ _____ _____    ______ ____
ROOT
ATOM      1  N   UNL     1       2.858   6.447  19.662  0.00  0.00    +0.000 N 
ATOM      2  C   UNL     1       2.313   5.233  19.954  0.00  0.00    +0.000 C 
ATOM      3  O   UNL     1       1.127   4.990  20.154  0.00  0.00    +0.000 OA
ATOM      4  N   UNL     1       3.245   4.225  19.970  0.00  0.00    +0.000 N 
ATOM      5  C   UNL     1       4.550   4.268  19.585  0.00  0.00    +0.000 C 
ATOM      6  O   UNL     1       5.368   5.156  19.663  0.00  0.00    +0.000 OA
ATOM      7  C   UNL     1       4.521   2.805  19.160  0.00  0.00    +0.000 C 
ATOM      8  C   UNL     1       3.022   2.824  19.597  0.00  0.00    +0.000 C 
ATOM      9  H   UNL     1       3.850   6.534  19.870  0.00  0.00    +0.000 HD
ENDROOT
BRANCH   1  13
ATOM     10  C   UNL     1       0.773   9.986  19.111  0.00  0.00    +0.000 A 
ATOM     11  C   UNL     1       1.432   9.357  18.055  0.00  0.00    +0.000 A 
ATOM     12  C   UNL     1       2.103   8.167  18.272  0.00  0.00    +0.000 A 
ATOM     13  C   UNL     1       2.143   7.631  19.550  0.00  0.00    +0.000 A 
ATOM     14  C   UNL     1       1.492   8.233  20.623  0.00  0.00    +0.000 A 
ATOM     15  C   UNL     1       0.783   9.411  20.397  0.00  0.00    +0.000 A 
BRANCH  10  16
ATOM     16  C   UNL     1       0.102  11.295  18.857  0.00  0.00    +0.000 C 
BRANCH  16  17
ATOM     17  N   UNL     1      -0.919  11.196  17.826  0.00  0.00    +0.000 NA
ATOM     18  H   UNL     1      -1.850  11.216  18.243  0.00  0.00    +0.000 HD
ATOM     19  H   UNL     1      -0.831  10.298  17.349  0.00  0.00    +0.000 HD
ENDBRANCH  16  17
ENDBRANCH  10  16
ENDBRANCH   1  13
BRANCH   8  20
ATOM     20  C   UNL     1       1.961   2.565  18.483  0.00  0.00    +0.000 C 
ATOM     21  O   UNL     1       2.200   2.582  17.278  0.00  0.00    +0.000 OA
BRANCH  20  22
ATOM     22  O   UNL     1       0.698   2.287  18.915  0.00  0.00    +0.000 OA
ATOM     23  H   UNL     1       0.246   3.025  19.396  0.00  0.00    +0.000 HD
ENDBRANCH  20  22
ENDBRANCH   8  20
TORSDOF 5
ENDMDL
MODEL 2
REMARK VINA RESULT:      -6.5      4.064      5.137
REMARK  Name = 
REMARK  5 active torsions:
REMARK  status: ('A' for Active; 'I' for Inactive)
REMARK    1  A    between atoms: N_1  and  C_2
REMARK    2  A    between atoms: C_2  and  C_3
REMARK    3  A    between atoms: C_6  and  N_7
REMARK    4  A    between atoms: C_14  and  C_15
REMARK    5  A    between atoms: C_15  and  O_17
REMARK                            x       y       z     vdW  Elec       q    Type
REMARK                         _______ _______ _______ _____ _____    ______ ____
ROOT
ATOM      1  N   UNL     1       4.388   4.319  17.956  0.00  0.00    +0.000 N 
ATOM      2  C   UNL     1       4.173   3.391  18.929  0.00  0.00    +0.000 C 
ATOM      3  O   UNL     1       4.843   3.221  19.942  0.00  0.00    +0.000 OA
ATOM      4  N   UNL     1       3.051   2.633  18.698  0.00  0.00    +0.000 N 
ATOM      5  C   UNL     1       2.090   2.805  17.749  0.00  0.00    +0.000 C 
ATOM      6  O   UNL     1       2.166   3.211  16.613  0.00  0.00    +0.000 OA
ATOM      7  C   UNL     1       1.022   2.208  18.658  0.00  0.00    +0.000 C 
ATOM      8  C   UNL     1       2.162   2.058  19.714  0.00  0.00    +0.000 C 
ATOM      9  H   UNL     1       3.973   4.101  17.053  0.00  0.00    +0.000 HD
ENDROOT
BRANCH   1  13
ATOM     10  C   UNL     1       7.362   7.203  17.841  0.00  0.00    +0.000 A 
ATOM     11  C   UNL     1       6.095   7.443  17.312  0.00  0.00    +0.000 A 
ATOM     12  C   UNL     1       5.121   6.463  17.384  0.00  0.00    +0.000 A 
ATOM     13  C   UNL     1       5.430   5.237  17.951  0.00  0.00    +0.000 A 
ATOM     14  C   UNL     1       6.685   4.968  18.489  0.00  0.00    +0.000 A 
ATOM     15  C   UNL     1       7.654   5.968  18.453  0.00  0.00    +0.000 A 
BRANCH  10  16
ATOM     16  C   UNL     1       8.408   8.259  17.700  0.00  0.00    +0.000 C 
BRANCH  16  17
ATOM     17  N   UNL     1       7.857   9.597  17.853  0.00  0.00    +0.000 NA
ATOM     18  H   UNL     1       8.569  10.301  17.656  0.00  0.00    +0.000 HD
ATOM     19  H   UNL     1       7.570   9.735  18.823  0.00  0.00    +0.000 HD
ENDBRANCH  16  17
ENDBRANCH  10  16
ENDBRANCH   1  13
BRANCH   8  20
ATOM     20  C   UNL     1       2.008   2.871  21.037  0.00  0.00    +0.000 C 
ATOM     21  O   UNL     1       1.261   3.837  21.176  0.00  0.00    +0.000 OA
BRANCH  20  22
ATOM     22  O   UNL     1       2.752   2.439  22.094  0.00  0.00    +0.000 OA
ATOM     23  H   UNL     1       2.271   2.403  22.959  0.00  0.00    +0.000 HD
ENDBRANCH  20  22
ENDBRANCH   8  20
TORSDOF 5
ENDMDL
MODEL 3
REMARK VINA RESULT:      -6.4      0.155      1.123
REMARK  Name = 
REMARK  5 active torsions:
REMARK  status: ('A' for Active; 'I' for Inactive)
REMARK    1  A    between atoms: N_1  and  C_2
REMARK    2  A    between atoms: C_2  and  C_3
REMARK    3  A    between atoms: C_6  and  N_7
REMARK    4  A    between atoms: C_14  and  C_15
REMARK    5  A    between atoms: C_15  and  O_17
REMARK                            x       y       z     vdW  Elec       q    Type
REMARK                         _______ _______ _______ _____ _____    ______ ____
ROOT
ATOM      1  N   UNL     1       2.877   6.409  19.574  0.00  0.00    +0.000 N 
ATOM      2  C   UNL     1       2.315   5.214  19.910  0.00  0.00    +0.000 C 
ATOM      3  O   UNL     1       1.123   4.992  20.100  0.00  0.00    +0.000 OA
ATOM      4  N   UNL     1       3.236   4.199  19.988  0.00  0.00    +0.000 N 
ATOM      5  C   UNL     1       4.548   4.213  19.624  0.00  0.00    +0.000 C 
ATOM      6  O   UNL     1       5.374   5.095  19.678  0.00  0.00    +0.000 OA
ATOM      7  C   UNL     1       4.511   2.733  19.264  0.00  0.00    +0.000 C 
ATOM      8  C   UNL     1       3.005   2.785  19.673  0.00  0.00    +0.000 C 
ATOM      9  H   UNL     1       3.867   6.496  19.796  0.00  0.00    +0.000 HD
ENDROOT
BRANCH   1  13
ATOM     10  C   UNL     1       0.736   9.944  19.263  0.00  0.00    +0.000 A 
ATOM     11  C   UNL     1       0.857   9.271  20.477  0.00  0.00    +0.000 A 
ATOM     12  C   UNL     1       1.594   8.103  20.548  0.00  0.00    +0.000 A 
ATOM     13  C   UNL     1       2.176   7.594  19.398  0.00  0.00    +0.000 A 
ATOM     14  C   UNL     1       2.076   8.244  18.171  0.00  0.00    +0.000 A 
ATOM     15  C   UNL     1       1.366   9.442  18.107  0.00  0.00    +0.000 A 
BRANCH  10  16
ATOM     16  C   UNL     1      -0.110  11.172  19.206  0.00  0.00    +0.000 C 
BRANCH  16  17
ATOM     17  N   UNL     1      -0.810  11.296  17.937  0.00  0.00    +0.000 NA
ATOM     18  H   UNL     1      -1.808  11.119  18.061  0.00  0.00    +0.000 HD
ATOM     19  H   UNL     1      -0.465  10.585  17.291  0.00  0.00    +0.000 HD
ENDBRANCH  16  17
ENDBRANCH  10  16
ENDBRANCH   1  13
BRANCH   8  20
ATOM     20  C   UNL     1       1.960   2.488  18.553  0.00  0.00    +0.000 C 
ATOM     21  O   UNL     1       2.227   2.417  17.355  0.00  0.00    +0.000 OA
BRANCH  20  22
ATOM     22  O   UNL     1       0.680   2.279  18.971  0.00  0.00    +0.000 OA
ATOM     23  H   UNL     1       0.195   1.558  18.495  0.00  0.00    +0.000 HD
ENDBRANCH  20  22
ENDBRANCH   8  20
TORSDOF 5
ENDMDL
MODEL 4
REMARK VINA RESULT:      -6.4      4.284      6.074
REMARK  Name = 
REMARK  5 active torsions:
REMARK  status: ('A' for Active; 'I' for Inactive)
REMARK    1  A    between atoms: N_1  and  C_2
REMARK    2  A    between atoms: C_2  and  C_3
REMARK    3  A    between atoms: C_6  and  N_7
REMARK    4  A    between atoms: C_14  and  C_15
REMARK    5  A    between atoms: C_15  and  O_17
REMARK                            x       y       z     vdW  Elec       q    Type
REMARK                         _______ _______ _______ _____ _____    ______ ____
ROOT
ATOM      1  N   UNL     1       5.074   3.777  17.856  0.00  0.00    +0.000 N 
ATOM      2  C   UNL     1       3.863   4.278  18.227  0.00  0.00    +0.000 C 
ATOM      3  O   UNL     1       3.199   5.116  17.624  0.00  0.00    +0.000 OA
ATOM      4  N   UNL     1       3.388   3.711  19.384  0.00  0.00    +0.000 N 
ATOM      5  C   UNL     1       3.881   2.645  20.072  0.00  0.00    +0.000 C 
ATOM      6  O   UNL     1       5.019   2.274  20.245  0.00  0.00    +0.000 OA
ATOM      7  C   UNL     1       2.489   2.254  20.554  0.00  0.00    +0.000 C 
ATOM      8  C   UNL     1       1.981   3.476  19.727  0.00  0.00    +0.000 C 
ATOM      9  H   UNL     1       5.624   3.377  18.612  0.00  0.00    +0.000 HD
ENDROOT
BRANCH   1  13
ATOM     10  C   UNL     1       6.997   4.782  14.325  0.00  0.00    +0.000 A 
ATOM     11  C   UNL     1       5.818   4.038  14.325  0.00  0.00    +0.000 A 
ATOM     12  C   UNL     1       5.194   3.736  15.522  0.00  0.00    +0.000 A 
ATOM     13  C   UNL     1       5.770   4.148  16.714  0.00  0.00    +0.000 A 
ATOM     14  C   UNL     1       6.944   4.895  16.746  0.00  0.00    +0.000 A 
ATOM     15  C   UNL     1       7.552   5.233  15.539  0.00  0.00    +0.000 A 
BRANCH  10  16
ATOM     16  C   UNL     1       7.676   5.047  13.022  0.00  0.00    +0.000 C 
BRANCH  16  17
ATOM     17  N   UNL     1       8.792   5.969  13.165  0.00  0.00    +0.000 NA
ATOM     18  H   UNL     1       8.653   6.575  13.974  0.00  0.00    +0.000 HD
ATOM     19  H   UNL     1       8.834   6.577  12.347  0.00  0.00    +0.000 HD
ENDBRANCH  16  17
ENDBRANCH  10  16
ENDBRANCH   1  13
BRANCH   8  20
ATOM     20  C   UNL     1       1.021   3.170  18.536  0.00  0.00    +0.000 C 
ATOM     21  O   UNL     1       0.406   2.116  18.392  0.00  0.00    +0.000 OA
BRANCH  20  22
ATOM     22  O   UNL     1       0.862   4.171  17.624  0.00  0.00    +0.000 OA
ATOM     23  H   UNL     1       0.288   3.945  16.848  0.00  0.00    +0.000 HD
ENDBRANCH  20  22
ENDBRANCH   8  20
TORSDOF 5
ENDMDL
MODEL 5
REMARK VINA RESULT:      -6.3      1.008      1.026
REMARK  Name = 
REMARK  5 active torsions:
REMARK  status: ('A' for Active; 'I' for Inactive)
REMARK    1  A    between atoms: N_1  and  C_2
REMARK    2  A    between atoms: C_2  and  C_3
REMARK    3  A    between atoms: C_6  and  N_7
REMARK    4  A    between atoms: C_14  and  C_15
REMARK    5  A    between atoms: C_15  and  O_17
REMARK                            x       y       z     vdW  Elec       q    Type
REMARK                         _______ _______ _______ _____ _____    ______ ____
ROOT
ATOM      1  N   UNL     1       2.721   6.534  19.879  0.00  0.00    +0.000 N 
ATOM      2  C   UNL     1       2.272   5.262  20.073  0.00  0.00    +0.000 C 
ATOM      3  O   UNL     1       1.129   4.924  20.367  0.00  0.00    +0.000 OA
ATOM      4  N   UNL     1       3.247   4.319  19.862  0.00  0.00    +0.000 N 
ATOM      5  C   UNL     1       4.496   4.489  19.347  0.00  0.00    +0.000 C 
ATOM      6  O   UNL     1       5.274   5.409  19.449  0.00  0.00    +0.000 OA
ATOM      7  C   UNL     1       4.489   3.088  18.747  0.00  0.00    +0.000 C 
ATOM      8  C   UNL     1       3.051   2.962  19.341  0.00  0.00    +0.000 C 
ATOM      9  H   UNL     1       3.725   6.657  19.989  0.00  0.00    +0.000 HD
ENDROOT
BRANCH   1  13
ATOM     10  C   UNL     1       0.436   9.989  20.010  0.00  0.00    +0.000 A 
ATOM     11  C   UNL     1       1.091   9.593  18.845  0.00  0.00    +0.000 A 
ATOM     12  C   UNL     1       1.831   8.424  18.833  0.00  0.00    +0.000 A 
ATOM     13  C   UNL     1       1.941   7.677  19.995  0.00  0.00    +0.000 A 
ATOM     14  C   UNL     1       1.297   8.044  21.172  0.00  0.00    +0.000 A 
ATOM     15  C   UNL     1       0.520   9.201  21.174  0.00  0.00    +0.000 A 
BRANCH  10  16
ATOM     16  C   UNL     1      -0.309  11.282  20.007  0.00  0.00    +0.000 C 
BRANCH  16  17
ATOM     17  N   UNL     1      -0.238  11.957  21.295  0.00  0.00    +0.000 NA
ATOM     18  H   UNL     1       0.339  11.423  21.945  0.00  0.00    +0.000 HD
ATOM     19  H   UNL     1      -1.173  12.003  21.703  0.00  0.00    +0.000 HD
ENDBRANCH  16  17
ENDBRANCH  10  16
ENDBRANCH   1  13
BRANCH   8  20
ATOM     20  C   UNL     1       1.882   2.774  18.325  0.00  0.00    +0.000 C 
ATOM     21  O   UNL     1       1.780   3.385  17.263  0.00  0.00    +0.000 OA
BRANCH  20  22
ATOM     22  O   UNL     1       0.941   1.846  18.660  0.00  0.00    +0.000 OA
ATOM     23  H   UNL     1       1.080   0.947  18.267  0.00  0.00    +0.000 HD
ENDBRANCH  20  22
ENDBRANCH   8  20
TORSDOF 5
ENDMDL
MODEL 6
REMARK VINA RESULT:      -6.3      4.273      6.206
REMARK  Name = 
REMARK  5 active torsions:
REMARK  status: ('A' for Active; 'I' for Inactive)
REMARK    1  A    between atoms: N_1  and  C_2
REMARK    2  A    between atoms: C_2  and  C_3
REMARK    3  A    between atoms: C_6  and  N_7
REMARK    4  A    between atoms: C_14  and  C_15
REMARK    5  A    between atoms: C_15  and  O_17
REMARK                            x       y       z     vdW  Elec       q    Type
REMARK                         _______ _______ _______ _____ _____    ______ ____
ROOT
ATOM      1  N   UNL     1       5.063   3.741  17.603  0.00  0.00    +0.000 N 
ATOM      2  C   UNL     1       3.876   4.272  18.011  0.00  0.00    +0.000 C 
ATOM      3  O   UNL     1       3.183   5.078  17.398  0.00  0.00    +0.000 OA
ATOM      4  N   UNL     1       3.464   3.777  19.224  0.00  0.00    +0.000 N 
ATOM      5  C   UNL     1       3.991   2.749  19.945  0.00  0.00    +0.000 C 
ATOM      6  O   UNL     1       5.136   2.381  20.076  0.00  0.00    +0.000 OA
ATOM      7  C   UNL     1       2.627   2.397  20.525  0.00  0.00    +0.000 C 
ATOM      8  C   UNL     1       2.078   3.572  19.657  0.00  0.00    +0.000 C 
ATOM      9  H   UNL     1       5.653   3.383  18.350  0.00  0.00    +0.000 HD
ENDROOT
BRANCH   1  13
ATOM     10  C   UNL     1       7.102   4.751  14.140  0.00  0.00    +0.000 A 
ATOM     11  C   UNL     1       7.526   5.198  15.390  0.00  0.00    +0.000 A 
ATOM     12  C   UNL     1       6.831   4.826  16.527  0.00  0.00    +0.000 A 
ATOM     13  C   UNL     1       5.695   4.041  16.405  0.00  0.00    +0.000 A 
ATOM     14  C   UNL     1       5.249   3.577  15.170  0.00  0.00    +0.000 A 
ATOM     15  C   UNL     1       5.971   3.918  14.029  0.00  0.00    +0.000 A 
BRANCH  10  16
ATOM     16  C   UNL     1       7.841   5.212  12.927  0.00  0.00    +0.000 C 
BRANCH  16  17
ATOM     17  N   UNL     1       8.990   6.037  13.268  0.00  0.00    +0.000 NA
ATOM     18  H   UNL     1       8.688   6.969  13.551  0.00  0.00    +0.000 HD
ATOM     19  H   UNL     1       9.576   6.157  12.441  0.00  0.00    +0.000 HD
ENDBRANCH  16  17
ENDBRANCH  10  16
ENDBRANCH   1  13
BRANCH   8  20
ATOM     20  C   UNL     1       1.051   3.204  18.541  0.00  0.00    +0.000 C 
ATOM     21  O   UNL     1       0.441   2.139  18.482  0.00  0.00    +0.000 OA
BRANCH  20  22
ATOM     22  O   UNL     1       0.827   4.161  17.596  0.00  0.00    +0.000 OA
ATOM     23  H   UNL     1       1.361   4.988  17.702  0.00  0.00    +0.000 HD
ENDBRANCH  20  22
ENDBRANCH   8  20
TORSDOF 5
ENDMDL
MODEL 7
REMARK VINA RESULT:      -6.3      3.767      5.884
REMARK  Name = 
REMARK  5 active torsions:
REMARK  status: ('A' for Active; 'I' for Inactive)
REMARK    1  A    between atoms: N_1  and  C_2
REMARK    2  A    between atoms: C_2  and  C_3
REMARK    3  A    between atoms: C_6  and  N_7
REMARK    4  A    between atoms: C_14  and  C_15
REMARK    5  A    between atoms: C_15  and  O_17
REMARK                            x       y       z     vdW  Elec       q    Type
REMARK                         _______ _______ _______ _____ _____    ______ ____
ROOT
ATOM      1  N   UNL     1       3.792   5.153  17.533  0.00  0.00    +0.000 N 
ATOM      2  C   UNL     1       2.656   4.418  17.694  0.00  0.00    +0.000 C 
ATOM      3  O   UNL     1       2.282   3.482  16.994  0.00  0.00    +0.000 OA
ATOM      4  N   UNL     1       1.929   4.802  18.794  0.00  0.00    +0.000 N 
ATOM      5  C   UNL     1       2.278   5.671  19.782  0.00  0.00    +0.000 C 
ATOM      6  O   UNL     1       2.939   6.683  19.747  0.00  0.00    +0.000 OA
ATOM      7  C   UNL     1       1.447   4.910  20.808  0.00  0.00    +0.000 C 
ATOM      8  C   UNL     1       1.102   3.935  19.639  0.00  0.00    +0.000 C 
ATOM      9  H   UNL     1       3.772   6.076  17.962  0.00  0.00    +0.000 HD
ENDROOT
BRANCH   1  13
ATOM     10  C   UNL     1       6.566   4.794  14.475  0.00  0.00    +0.000 A 
ATOM     11  C   UNL     1       5.977   6.019  14.783  0.00  0.00    +0.000 A 
ATOM     12  C   UNL     1       5.068   6.106  15.823  0.00  0.00    +0.000 A 
ATOM     13  C   UNL     1       4.725   4.960  16.524  0.00  0.00    +0.000 A 
ATOM     14  C   UNL     1       5.298   3.723  16.242  0.00  0.00    +0.000 A 
ATOM     15  C   UNL     1       6.243   3.644  15.221  0.00  0.00    +0.000 A 
BRANCH  10  16
ATOM     16  C   UNL     1       7.502   4.722  13.314  0.00  0.00    +0.000 C 
BRANCH  16  17
ATOM     17  N   UNL     1       8.479   5.800  13.333  0.00  0.00    +0.000 NA
ATOM     18  H   UNL     1       8.898   5.917  12.410  0.00  0.00    +0.000 HD
ATOM     19  H   UNL     1       9.238   5.557  13.970  0.00  0.00    +0.000 HD
ENDBRANCH  16  17
ENDBRANCH  10  16
ENDBRANCH   1  13
BRANCH   8  20
ATOM     20  C   UNL     1       1.579   2.457  19.790  0.00  0.00    +0.000 C 
ATOM     21  O   UNL     1       2.348   2.061  20.664  0.00  0.00    +0.000 OA
BRANCH  20  22
ATOM     22  O   UNL     1       1.074   1.570  18.887  0.00  0.00    +0.000 OA
ATOM     23  H   UNL     1       0.460   1.959  18.215  0.00  0.00    +0.000 HD
ENDBRANCH  20  22
ENDBRANCH   8  20
TORSDOF 5
ENDMDL
MODEL 8
REMARK VINA RESULT:      -6.3      1.108      1.208
REMARK  Name = 
REMARK  5 active torsions:
REMARK  status: ('A' for Active; 'I' for Inactive)
REMARK    1  A    between atoms: N_1  and  C_2
REMARK    2  A    between atoms: C_2  and  C_3
REMARK    3  A    between atoms: C_6  and  N_7
REMARK    4  A    between atoms: C_14  and  C_15
REMARK    5  A    between atoms: C_15  and  O_17
REMARK                            x       y       z     vdW  Elec       q    Type
REMARK                         _______ _______ _______ _____ _____    ______ ____
ROOT
ATOM      1  N   UNL     1       2.836   6.427  19.040  0.00  0.00    +0.000 N 
ATOM      2  C   UNL     1       2.624   5.413  19.924  0.00  0.00    +0.000 C 
ATOM      3  O   UNL     1       1.874   5.430  20.895  0.00  0.00    +0.000 OA
ATOM      4  N   UNL     1       3.330   4.278  19.607  0.00  0.00    +0.000 N 
ATOM      5  C   UNL     1       4.045   4.011  18.479  0.00  0.00    +0.000 C 
ATOM      6  O   UNL     1       4.707   4.736  17.773  0.00  0.00    +0.000 OA
ATOM      7  C   UNL     1       3.740   2.521  18.585  0.00  0.00    +0.000 C 
ATOM      8  C   UNL     1       2.914   2.894  19.856  0.00  0.00    +0.000 C 
ATOM      9  H   UNL     1       3.714   6.376  18.528  0.00  0.00    +0.000 HD
ENDROOT
BRANCH   1  13
ATOM     10  C   UNL     1       1.077  10.180  19.013  0.00  0.00    +0.000 A 
ATOM     11  C   UNL     1       1.700   9.660  17.880  0.00  0.00    +0.000 A 
ATOM     12  C   UNL     1       2.261   8.396  17.920  0.00  0.00    +0.000 A 
ATOM     13  C   UNL     1       2.229   7.674  19.102  0.00  0.00    +0.000 A 
ATOM     14  C   UNL     1       1.612   8.165  20.250  0.00  0.00    +0.000 A 
ATOM     15  C   UNL     1       1.012   9.421  20.198  0.00  0.00    +0.000 A 
BRANCH  10  16
ATOM     16  C   UNL     1       0.528  11.567  18.955  0.00  0.00    +0.000 C 
BRANCH  16  17
ATOM     17  N   UNL     1       1.323  12.434  18.099  0.00  0.00    +0.000 NA
ATOM     18  H   UNL     1       1.918  11.879  17.483  0.00  0.00    +0.000 HD
ATOM     19  H   UNL     1       1.947  12.998  18.677  0.00  0.00    +0.000 HD
ENDBRANCH  16  17
ENDBRANCH  10  16
ENDBRANCH   1  13
BRANCH   8  20
ATOM     20  C   UNL     1       1.380   2.613  19.807  0.00  0.00    +0.000 C 
ATOM     21  O   UNL     1       0.766   2.282  18.795  0.00  0.00    +0.000 OA
BRANCH  20  22
ATOM     22  O   UNL     1       0.713   2.733  20.990  0.00  0.00    +0.000 OA
ATOM     23  H   UNL     1       1.117   2.244  21.751  0.00  0.00    +0.000 HD
ENDBRANCH  20  22
ENDBRANCH   8  20
TORSDOF 5
ENDMDL
MODEL 9
REMARK VINA RESULT:      -6.3      1.262      1.719
REMARK  Name = 
REMARK  5 active torsions:
REMARK  status: ('A' for Active; 'I' for Inactive)
REMARK    1  A    between atoms: N_1  and  C_2
REMARK    2  A    between atoms: C_2  and  C_3
REMARK    3  A    between atoms: C_6  and  N_7
REMARK    4  A    between atoms: C_14  and  C_15
REMARK    5  A    between atoms: C_15  and  O_17
REMARK                            x       y       z     vdW  Elec       q    Type
REMARK                         _______ _______ _______ _____ _____    ______ ____
ROOT
ATOM      1  N   UNL     1       2.660   6.623  19.927  0.00  0.00    +0.000 N 
ATOM      2  C   UNL     1       2.200   5.358  20.135  0.00  0.00    +0.000 C 
ATOM      3  O   UNL     1       1.064   5.036  20.468  0.00  0.00    +0.000 OA
ATOM      4  N   UNL     1       3.154   4.401  19.890  0.00  0.00    +0.000 N 
ATOM      5  C   UNL     1       4.386   4.553  19.332  0.00  0.00    +0.000 C 
ATOM      6  O   UNL     1       5.180   5.463  19.407  0.00  0.00    +0.000 OA
ATOM      7  C   UNL     1       4.338   3.154  18.732  0.00  0.00    +0.000 C 
ATOM      8  C   UNL     1       2.920   3.047  19.375  0.00  0.00    +0.000 C 
ATOM      9  H   UNL     1       3.669   6.732  20.001  0.00  0.00    +0.000 HD
ENDROOT
BRANCH   1  13
ATOM     10  C   UNL     1       0.376  10.021  20.570  0.00  0.00    +0.000 A 
ATOM     11  C   UNL     1       0.680   9.141  21.607  0.00  0.00    +0.000 A 
ATOM     12  C   UNL     1       1.460   8.026  21.360  0.00  0.00    +0.000 A 
ATOM     13  C   UNL     1       1.902   7.777  20.069  0.00  0.00    +0.000 A 
ATOM     14  C   UNL     1       1.617   8.637  19.013  0.00  0.00    +0.000 A 
ATOM     15  C   UNL     1       0.864   9.782  19.270  0.00  0.00    +0.000 A 
BRANCH  10  16
ATOM     16  C   UNL     1      -0.512  11.186  20.856  0.00  0.00    +0.000 C 
BRANCH  16  17
ATOM     17  N   UNL     1      -0.024  11.984  21.971  0.00  0.00    +0.000 NA
ATOM     18  H   UNL     1      -0.783  12.192  22.620  0.00  0.00    +0.000 HD
ATOM     19  H   UNL     1       0.316  12.880  21.621  0.00  0.00    +0.000 HD
ENDBRANCH  16  17
ENDBRANCH  10  16
ENDBRANCH   1  13
BRANCH   8  20
ATOM     20  C   UNL     1       1.714   2.877  18.400  0.00  0.00    +0.000 C 
ATOM     21  O   UNL     1       1.510   3.587  17.418  0.00  0.00    +0.000 OA
BRANCH  20  22
ATOM     22  O   UNL     1       0.863   1.849  18.675  0.00  0.00    +0.000 OA
ATOM     23  H   UNL     1       1.171   1.227  19.383  0.00  0.00    +0.000 HD
ENDBRANCH  20  22
ENDBRANCH   8  20
TORSDOF 5
ENDMDL
