MODEL 1
REMARK VINA RESULT:      -9.0      0.000      0.000
REMARK  Name = 
REMARK  8 active torsions:
REMARK  status: ('A' for Active; 'I' for Inactive)
REMARK    1  A    between atoms: C_1  and  C_2
REMARK    2  A    between atoms: C_6  and  C_7
REMARK    3  A    between atoms: N_9  and  C_10
REMARK    4  A    between atoms: C_10  and  C_11
REMARK    5  A    between atoms: N_13  and  C_14
REMARK    6  A    between atoms: C_14  and  C_15
REMARK    7  A    between atoms: C_14  and  C_16
REMARK    8  A    between atoms: C_19  and  N_20
REMARK                            x       y       z     vdW  Elec       q    Type
REMARK                         _______ _______ _______ _____ _____    ______ ____
ROOT
ATOM      1  C   UNL     1       3.214   5.294  18.737  0.00  0.00    +0.000 C 
ATOM      2  C   UNL     1       2.506   4.490  17.635  0.00  0.00    +0.000 C 
ENDROOT
BRANCH   1   3
ATOM      3  C   UNL     1       2.504   6.580  19.103  0.00  0.00    +0.000 A 
ATOM      4  C   UNL     1       2.423   7.676  18.233  0.00  0.00    +0.000 A 
ATOM      5  C   UNL     1       1.798   8.859  18.632  0.00  0.00    +0.000 A 
ATOM      6  C   UNL     1       1.253   8.973  19.915  0.00  0.00    +0.000 A 
ATOM      7  C   UNL     1       1.360   7.903  20.808  0.00  0.00    +0.000 A 
ATOM      8  C   UNL     1       1.963   6.720  20.388  0.00  0.00    +0.000 A 
ATOM      9  F   UNL     1       2.025   5.696  21.252  0.00  0.00    +0.000 F 
BRANCH   6  10
ATOM     10  N   UNL     1       0.646  10.187  20.337  0.00  0.00    +0.000 N 
ATOM     11  N   UNL     1      -0.257  10.165  21.349  0.00  0.00    +0.000 NA
ATOM     12  C   UNL     1      -0.417  11.450  21.660  0.00  0.00    +0.000 A 
ATOM     13 CL   UNL     1      -1.365  11.900  22.993  0.00  0.00    +0.000 Cl
ATOM     14  C   UNL     1       0.240  12.323  20.770  0.00  0.00    +0.000 A 
ATOM     15  C   UNL     1       0.347  13.718  20.605  0.00  0.00    +0.000 A 
ATOM     16  C   UNL     1       1.073  14.224  19.521  0.00  0.00    +0.000 A 
ATOM     17  C   UNL     1       1.675  13.366  18.606  0.00  0.00    +0.000 A 
ATOM     18  C   UNL     1       1.586  11.981  18.758  0.00  0.00    +0.000 A 
ATOM     19  C   UNL     1       0.891  11.477  19.874  0.00  0.00    +0.000 A 
ENDBRANCH   6  10
ENDBRANCH   1   3
BRANCH   1  22
ATOM     20  C   UNL     1       5.635   4.755  18.648  0.00  0.00    +0.000 C 
ATOM     21  O   UNL     1       5.556   3.718  19.285  0.00  0.00    +0.000 OA
ATOM     22  N   UNL     1       4.583   5.589  18.347  0.00  0.00    +0.000 N 
ATOM     23  H   UNL     1       4.767   6.400  17.768  0.00  0.00    +0.000 HD
BRANCH  20  24
ATOM     24  C   UNL     1       6.941   5.132  17.989  0.00  0.00    +0.000 C 
ATOM     25  C   UNL     1       8.273   5.026  18.724  0.00  0.00    +0.000 C 
ATOM     26  C   UNL     1       7.638   6.361  18.558  0.00  0.00    +0.000 C 
BRANCH  24  29
ATOM     27  C   UNL     1       6.548   5.414  15.554  0.00  0.00    +0.000 C 
ATOM     28  O   UNL     1       6.077   6.539  15.750  0.00  0.00    +0.000 OA
ATOM     29  N   UNL     1       7.024   4.682  16.611  0.00  0.00    +0.000 N 
ATOM     30  H   UNL     1       7.126   3.680  16.514  0.00  0.00    +0.000 HD
BRANCH  27  36
ATOM     31  C   UNL     1       8.620   5.847  12.897  0.00  0.00    +0.000 C 
ATOM     32  C   UNL     1       7.454   4.946  13.120  0.00  0.00    +0.000 A 
ATOM     33  N   UNL     1       7.147   4.110  12.049  0.00  0.00    +0.000 NA
ATOM     34  C   UNL     1       6.109   3.364  12.335  0.00  0.00    +0.000 A 
ATOM     35  S   UNL     1       5.431   3.590  13.877  0.00  0.00    +0.000 S 
ATOM     36  C   UNL     1       6.627   4.795  14.234  0.00  0.00    +0.000 A 
ENDBRANCH  27  36
ENDBRANCH  24  29
ENDBRANCH  20  24
ENDBRANCH   1  22
TORSDOF 6
ENDMDL
MODEL 2
REMARK VINA RESULT:      -9.0      1.339      1.589
REMARK  Name = 
REMARK  8 active torsions:
REMARK  status: ('A' for Active; 'I' for Inactive)
REMARK    1  A    between atoms: C_1  and  C_2
REMARK    2  A    between atoms: C_6  and  C_7
REMARK    3  A    between atoms: N_9  and  C_10
REMARK    4  A    between atoms: C_10  and  C_11
REMARK    5  A    between atoms: N_13  and  C_14
REMARK    6  A    between atoms: C_14  and  C_15
REMARK    7  A    between atoms: C_14  and  C_16
REMARK    8  A    between atoms: C_19  and  N_20
REMARK                            x       y       z     vdW  Elec       q    Type
REMARK                         _______ _______ _______ _____ _____    ______ ____
ROOT
ATOM      1  C   UNL     1       3.306   5.701  19.029  0.00  0.00    +0.000 C 
ATOM      2  C   UNL     1       2.604   4.689  18.111  0.00  0.00    +0.000 C 
ENDROOT
BRANCH   1   3
ATOM      3  C   UNL     1       2.620   7.049  19.087  0.00  0.00    +0.000 A 
ATOM      4  C   UNL     1       1.883   7.479  20.201  0.00  0.00    +0.000 A 
ATOM      5  C   UNL     1       1.229   8.712  20.191  0.00  0.00    +0.000 A 
ATOM      6  C   UNL     1       1.286   9.534  19.061  0.00  0.00    +0.000 A 
ATOM      7  C   UNL     1       1.984   9.104  17.929  0.00  0.00    +0.000 A 
ATOM      8  C   UNL     1       2.653   7.882  17.961  0.00  0.00    +0.000 A 
ATOM      9  F   UNL     1       3.342   7.506  16.874  0.00  0.00    +0.000 F 
BRANCH   6  10
ATOM     10  N   UNL     1       0.594  10.774  19.034  0.00  0.00    +0.000 N 
ATOM     11  N   UNL     1      -0.741  10.798  19.274  0.00  0.00    +0.000 NA
ATOM     12  C   UNL     1      -1.012  12.092  19.437  0.00  0.00    +0.000 A 
ATOM     13 CL   UNL     1      -2.563  12.593  19.907  0.00  0.00    +0.000 Cl
ATOM     14  C   UNL     1       0.085  12.930  19.151  0.00  0.00    +0.000 A 
ATOM     15  C   UNL     1       0.322  14.317  19.105  0.00  0.00    +0.000 A 
ATOM     16  C   UNL     1       1.580  14.783  18.704  0.00  0.00    +0.000 A 
ATOM     17  C   UNL     1       2.585  13.892  18.344  0.00  0.00    +0.000 A 
ATOM     18  C   UNL     1       2.371  12.512  18.392  0.00  0.00    +0.000 A 
ATOM     19  C   UNL     1       1.118  12.049  18.836  0.00  0.00    +0.000 A 
ENDBRANCH   6  10
ENDBRANCH   1   3
BRANCH   1  22
ATOM     20  C   UNL     1       5.631   4.881  18.739  0.00  0.00    +0.000 C 
ATOM     21  O   UNL     1       5.433   3.775  19.212  0.00  0.00    +0.000 OA
ATOM     22  N   UNL     1       4.690   5.878  18.622  0.00  0.00    +0.000 N 
ATOM     23  H   UNL     1       4.964   6.741  18.165  0.00  0.00    +0.000 HD
BRANCH  20  24
ATOM     24  C   UNL     1       6.956   5.189  18.082  0.00  0.00    +0.000 C 
ATOM     25  C   UNL     1       8.279   5.027  18.823  0.00  0.00    +0.000 C 
ATOM     26  C   UNL     1       7.708   6.389  18.641  0.00  0.00    +0.000 C 
BRANCH  24  29
ATOM     27  C   UNL     1       6.554   5.450  15.646  0.00  0.00    +0.000 C 
ATOM     28  O   UNL     1       6.104   6.586  15.831  0.00  0.00    +0.000 OA
ATOM     29  N   UNL     1       7.022   4.722  16.709  0.00  0.00    +0.000 N 
ATOM     30  H   UNL     1       7.104   3.716  16.622  0.00  0.00    +0.000 HD
BRANCH  27  36
ATOM     31  C   UNL     1       8.576   5.860  12.947  0.00  0.00    +0.000 C 
ATOM     32  C   UNL     1       7.419   4.956  13.202  0.00  0.00    +0.000 A 
ATOM     33  N   UNL     1       7.099   4.104  12.148  0.00  0.00    +0.000 NA
ATOM     34  C   UNL     1       6.071   3.356  12.461  0.00  0.00    +0.000 A 
ATOM     35  S   UNL     1       5.418   3.598  14.012  0.00  0.00    +0.000 S 
ATOM     36  C   UNL     1       6.613   4.815  14.333  0.00  0.00    +0.000 A 
ENDBRANCH  27  36
ENDBRANCH  24  29
ENDBRANCH  20  24
ENDBRANCH   1  22
TORSDOF 6
ENDMDL
MODEL 3
REMARK VINA RESULT:      -8.8      5.576     10.825
REMARK  Name = 
REMARK  8 active torsions:
REMARK  status: ('A' for Active; 'I' for Inactive)
REMARK    1  A    between atoms: C_1  and  C_2
REMARK    2  A    between atoms: C_6  and  C_7
REMARK    3  A    between atoms: N_9  and  C_10
REMARK    4  A    between atoms: C_10  and  C_11
REMARK    5  A    between atoms: N_13  and  C_14
REMARK    6  A    between atoms: C_14  and  C_15
REMARK    7  A    between atoms: C_14  and  C_16
REMARK    8  A    between atoms: C_19  and  N_20
REMARK                            x       y       z     vdW  Elec       q    Type
REMARK                         _______ _______ _______ _____ _____    ______ ____
ROOT
ATOM      1  C   UNL     1       0.295  10.877  19.477  0.00  0.00    +0.000 C 
ATOM      2  C   UNL     1       1.097  12.177  19.639  0.00  0.00    +0.000 C 
ENDROOT
BRANCH   1   3
ATOM      3  C   UNL     1       1.147   9.676  19.123  0.00  0.00    +0.000 A 
ATOM      4  C   UNL     1       1.711   9.493  17.852  0.00  0.00    +0.000 A 
ATOM      5  C   UNL     1       2.451   8.347  17.558  0.00  0.00    +0.000 A 
ATOM      6  C   UNL     1       2.631   7.353  18.526  0.00  0.00    +0.000 A 
ATOM      7  C   UNL     1       2.044   7.503  19.785  0.00  0.00    +0.000 A 
ATOM      8  C   UNL     1       1.328   8.663  20.074  0.00  0.00    +0.000 A 
ATOM      9  F   UNL     1       0.801   8.797  21.299  0.00  0.00    +0.000 F 
BRANCH   6  10
ATOM     10  N   UNL     1       3.356   6.170  18.221  0.00  0.00    +0.000 N 
ATOM     11  N   UNL     1       4.686   6.249  17.967  0.00  0.00    +0.000 NA
ATOM     12  C   UNL     1       5.089   4.980  17.987  0.00  0.00    +0.000 A 
ATOM     13 CL   UNL     1       6.737   4.599  17.859  0.00  0.00    +0.000 Cl
ATOM     14  C   UNL     1       4.026   4.060  18.091  0.00  0.00    +0.000 A 
ATOM     15  C   UNL     1       3.888   2.658  18.095  0.00  0.00    +0.000 A 
ATOM     16  C   UNL     1       2.607   2.098  18.158  0.00  0.00    +0.000 A 
ATOM     17  C   UNL     1       1.478   2.909  18.205  0.00  0.00    +0.000 A 
ATOM     18  C   UNL     1       1.596   4.300  18.210  0.00  0.00    +0.000 A 
ATOM     19  C   UNL     1       2.888   4.859  18.189  0.00  0.00    +0.000 A 
ENDBRANCH   6  10
ENDBRANCH   1   3
BRANCH   1  22
ATOM     20  C   UNL     1      -1.844  10.220  18.401  0.00  0.00    +0.000 C 
ATOM     21  O   UNL     1      -2.056   9.260  19.122  0.00  0.00    +0.000 OA
ATOM     22  N   UNL     1      -0.745  11.045  18.475  0.00  0.00    +0.000 N 
ATOM     23  H   UNL     1      -0.704  11.843  17.851  0.00  0.00    +0.000 HD
BRANCH  20  24
ATOM     24  C   UNL     1      -2.904  10.675  17.426  0.00  0.00    +0.000 C 
ATOM     25  C   UNL     1      -3.104   9.992  16.077  0.00  0.00    +0.000 C 
ATOM     26  C   UNL     1      -2.391  11.297  16.134  0.00  0.00    +0.000 C 
BRANCH  24  29
ATOM     27  C   UNL     1      -4.257  11.923  19.093  0.00  0.00    +0.000 C 
ATOM     28  O   UNL     1      -3.256  12.554  19.448  0.00  0.00    +0.000 OA
ATOM     29  N   UNL     1      -4.159  11.007  18.077  0.00  0.00    +0.000 N 
ATOM     30  H   UNL     1      -4.869  10.292  17.986  0.00  0.00    +0.000 HD
BRANCH  27  36
ATOM     31  C   UNL     1      -6.943   9.873  19.446  0.00  0.00    +0.000 C 
ATOM     32  C   UNL     1      -6.696  11.280  19.868  0.00  0.00    +0.000 A 
ATOM     33  N   UNL     1      -7.755  11.881  20.545  0.00  0.00    +0.000 NA
ATOM     34  C   UNL     1      -7.449  13.113  20.868  0.00  0.00    +0.000 A 
ATOM     35  S   UNL     1      -5.902  13.644  20.406  0.00  0.00    +0.000 S 
ATOM     36  C   UNL     1      -5.571  12.090  19.706  0.00  0.00    +0.000 A 
ENDBRANCH  27  36
ENDBRANCH  24  29
ENDBRANCH  20  24
ENDBRANCH   1  22
TORSDOF 6
ENDMDL
MODEL 4
REMARK VINA RESULT:      -8.6      5.621     10.793
REMARK  Name = 
REMARK  8 active torsions:
REMARK  status: ('A' for Active; 'I' for Inactive)
REMARK    1  A    between atoms: C_1  and  C_2
REMARK    2  A    between atoms: C_6  and  C_7
REMARK    3  A    between atoms: N_9  and  C_10
REMARK    4  A    between atoms: C_10  and  C_11
REMARK    5  A    between atoms: N_13  and  C_14
REMARK    6  A    between atoms: C_14  and  C_15
REMARK    7  A    between atoms: C_14  and  C_16
REMARK    8  A    between atoms: C_19  and  N_20
REMARK                            x       y       z     vdW  Elec       q    Type
REMARK                         _______ _______ _______ _____ _____    ______ ____
ROOT
ATOM      1  C   UNL     1       0.458  11.352  19.073  0.00  0.00    +0.000 C 
ATOM      2  C   UNL     1       1.358  12.556  18.754  0.00  0.00    +0.000 C 
ENDROOT
BRANCH   1   3
ATOM      3  C   UNL     1       1.181  10.023  19.031  0.00  0.00    +0.000 A 
ATOM      4  C   UNL     1       1.786   9.525  17.868  0.00  0.00    +0.000 A 
ATOM      5  C   UNL     1       2.403   8.272  17.865  0.00  0.00    +0.000 A 
ATOM      6  C   UNL     1       2.414   7.486  19.022  0.00  0.00    +0.000 A 
ATOM      7  C   UNL     1       1.782   7.952  20.178  0.00  0.00    +0.000 A 
ATOM      8  C   UNL     1       1.193   9.214  20.175  0.00  0.00    +0.000 A 
ATOM      9  F   UNL     1       0.620   9.652  21.306  0.00  0.00    +0.000 F 
BRANCH   6  10
ATOM     10  N   UNL     1       3.011   6.197  19.014  0.00  0.00    +0.000 N 
ATOM     11  N   UNL     1       4.156   5.996  18.314  0.00  0.00    +0.000 NA
ATOM     12  C   UNL     1       4.574   4.800  18.725  0.00  0.00    +0.000 A 
ATOM     13 CL   UNL     1       6.073   4.192  18.215  0.00  0.00    +0.000 Cl
ATOM     14  C   UNL     1       3.646   4.144  19.559  0.00  0.00    +0.000 A 
ATOM     15  C   UNL     1       3.558   2.890  20.196  0.00  0.00    +0.000 A 
ATOM     16  C   UNL     1       2.404   2.572  20.920  0.00  0.00    +0.000 A 
ATOM     17  C   UNL     1       1.347   3.472  21.005  0.00  0.00    +0.000 A 
ATOM     18  C   UNL     1       1.420   4.722  20.386  0.00  0.00    +0.000 A 
ATOM     19  C   UNL     1       2.600   5.055  19.695  0.00  0.00    +0.000 A 
ENDBRANCH   6  10
ENDBRANCH   1   3
BRANCH   1  22
ATOM     20  C   UNL     1      -1.772  10.508  18.383  0.00  0.00    +0.000 C 
ATOM     21  O   UNL     1      -1.904   9.729  19.312  0.00  0.00    +0.000 OA
ATOM     22  N   UNL     1      -0.678  11.315  18.167  0.00  0.00    +0.000 N 
ATOM     23  H   UNL     1      -0.707  11.958  17.384  0.00  0.00    +0.000 HD
BRANCH  20  24
ATOM     24  C   UNL     1      -2.929  10.757  17.443  0.00  0.00    +0.000 C 
ATOM     25  C   UNL     1      -3.230   9.826  16.273  0.00  0.00    +0.000 C 
ATOM     26  C   UNL     1      -2.552  11.125  16.015  0.00  0.00    +0.000 C 
BRANCH  24  29
ATOM     27  C   UNL     1      -4.128  12.177  19.089  0.00  0.00    +0.000 C 
ATOM     28  O   UNL     1      -3.081  12.779  19.348  0.00  0.00    +0.000 OA
ATOM     29  N   UNL     1      -4.129  11.193  18.135  0.00  0.00    +0.000 N 
ATOM     30  H   UNL     1      -4.876  10.510  18.129  0.00  0.00    +0.000 HD
BRANCH  27  36
ATOM     31  C   UNL     1      -7.318  12.535  17.976  0.00  0.00    +0.000 C 
ATOM     32  C   UNL     1      -6.720  12.608  19.339  0.00  0.00    +0.000 A 
ATOM     33  N   UNL     1      -7.628  12.861  20.363  0.00  0.00    +0.000 NA
ATOM     34  C   UNL     1      -7.012  12.915  21.518  0.00  0.00    +0.000 A 
ATOM     35  S   UNL     1      -5.331  12.665  21.478  0.00  0.00    +0.000 S 
ATOM     36  C   UNL     1      -5.397  12.451  19.757  0.00  0.00    +0.000 A 
ENDBRANCH  27  36
ENDBRANCH  24  29
ENDBRANCH  20  24
ENDBRANCH   1  22
TORSDOF 6
ENDMDL
MODEL 5
REMARK VINA RESULT:      -8.6      1.412      2.134
REMARK  Name = 
REMARK  8 active torsions:
REMARK  status: ('A' for Active; 'I' for Inactive)
REMARK    1  A    between atoms: C_1  and  C_2
REMARK    2  A    between atoms: C_6  and  C_7
REMARK    3  A    between atoms: N_9  and  C_10
REMARK    4  A    between atoms: C_10  and  C_11
REMARK    5  A    between atoms: N_13  and  C_14
REMARK    6  A    between atoms: C_14  and  C_15
REMARK    7  A    between atoms: C_14  and  C_16
REMARK    8  A    between atoms: C_19  and  N_20
REMARK                            x       y       z     vdW  Elec       q    Type
REMARK                         _______ _______ _______ _____ _____    ______ ____
ROOT
ATOM      1  C   UNL     1       3.510   4.419  18.383  0.00  0.00    +0.000 C 
ATOM      2  C   UNL     1       2.728   3.552  17.385  0.00  0.00    +0.000 C 
ENDROOT
BRANCH   1   3
ATOM      3  C   UNL     1       2.832   5.733  18.710  0.00  0.00    +0.000 A 
ATOM      4  C   UNL     1       2.871   6.841  17.851  0.00  0.00    +0.000 A 
ATOM      5  C   UNL     1       2.270   8.047  18.216  0.00  0.00    +0.000 A 
ATOM      6  C   UNL     1       1.629   8.173  19.453  0.00  0.00    +0.000 A 
ATOM      7  C   UNL     1       1.616   7.090  20.336  0.00  0.00    +0.000 A 
ATOM      8  C   UNL     1       2.197   5.885  19.950  0.00  0.00    +0.000 A 
ATOM      9  F   UNL     1       2.143   4.851  20.802  0.00  0.00    +0.000 F 
BRANCH   6  10
ATOM     10  N   UNL     1       1.046   9.409  19.841  0.00  0.00    +0.000 N 
ATOM     11  N   UNL     1       1.028  10.444  18.964  0.00  0.00    +0.000 NA
ATOM     12  C   UNL     1       0.201  11.323  19.526  0.00  0.00    +0.000 A 
ATOM     13 CL   UNL     1      -0.243  12.735  18.698  0.00  0.00    +0.000 Cl
ATOM     14  C   UNL     1      -0.199  10.957  20.827  0.00  0.00    +0.000 A 
ATOM     15  C   UNL     1      -0.983  11.526  21.849  0.00  0.00    +0.000 A 
ATOM     16  C   UNL     1      -1.102  10.856  23.072  0.00  0.00    +0.000 A 
ATOM     17  C   UNL     1      -0.448   9.647  23.287  0.00  0.00    +0.000 A 
ATOM     18  C   UNL     1       0.327   9.064  22.282  0.00  0.00    +0.000 A 
ATOM     19  C   UNL     1       0.409   9.721  21.039  0.00  0.00    +0.000 A 
ENDBRANCH   6  10
ENDBRANCH   1   3
BRANCH   1  22
ATOM     20  C   UNL     1       5.842   5.216  18.676  0.00  0.00    +0.000 C 
ATOM     21  O   UNL     1       5.711   5.563  19.837  0.00  0.00    +0.000 OA
ATOM     22  N   UNL     1       4.852   4.676  17.888  0.00  0.00    +0.000 N 
ATOM     23  H   UNL     1       5.097   4.381  16.949  0.00  0.00    +0.000 HD
BRANCH  20  24
ATOM     24  C   UNL     1       7.214   5.221  18.042  0.00  0.00    +0.000 C 
ATOM     25  C   UNL     1       8.456   4.776  18.808  0.00  0.00    +0.000 C 
ATOM     26  C   UNL     1       8.202   6.229  18.614  0.00  0.00    +0.000 C 
BRANCH  24  29
ATOM     27  C   UNL     1       6.690   5.474  15.629  0.00  0.00    +0.000 C 
ATOM     28  O   UNL     1       6.272   6.619  15.829  0.00  0.00    +0.000 OA
ATOM     29  N   UNL     1       7.200   4.744  16.671  0.00  0.00    +0.000 N 
ATOM     30  H   UNL     1       7.260   3.737  16.588  0.00  0.00    +0.000 HD
BRANCH  27  36
ATOM     31  C   UNL     1       8.597   5.806  12.837  0.00  0.00    +0.000 C 
ATOM     32  C   UNL     1       7.426   4.939  13.152  0.00  0.00    +0.000 A 
ATOM     33  N   UNL     1       7.032   4.092  12.120  0.00  0.00    +0.000 NA
ATOM     34  C   UNL     1       5.997   3.378  12.485  0.00  0.00    +0.000 A 
ATOM     35  S   UNL     1       5.424   3.648  14.063  0.00  0.00    +0.000 S 
ATOM     36  C   UNL     1       6.669   4.830  14.319  0.00  0.00    +0.000 A 
ENDBRANCH  27  36
ENDBRANCH  24  29
ENDBRANCH  20  24
ENDBRANCH   1  22
TORSDOF 6
ENDMDL
MODEL 6
REMARK VINA RESULT:      -8.5      5.821     10.893
REMARK  Name = 
REMARK  8 active torsions:
REMARK  status: ('A' for Active; 'I' for Inactive)
REMARK    1  A    between atoms: C_1  and  C_2
REMARK    2  A    between atoms: C_6  and  C_7
REMARK    3  A    between atoms: N_9  and  C_10
REMARK    4  A    between atoms: C_10  and  C_11
REMARK    5  A    between atoms: N_13  and  C_14
REMARK    6  A    between atoms: C_14  and  C_15
REMARK    7  A    between atoms: C_14  and  C_16
REMARK    8  A    between atoms: C_19  and  N_20
REMARK                            x       y       z     vdW  Elec       q    Type
REMARK                         _______ _______ _______ _____ _____    ______ ____
ROOT
ATOM      1  C   UNL     1       0.228  11.429  19.017  0.00  0.00    +0.000 C 
ATOM      2  C   UNL     1       1.132  12.664  18.887  0.00  0.00    +0.000 C 
ENDROOT
BRANCH   1   3
ATOM      3  C   UNL     1       0.982  10.117  18.983  0.00  0.00    +0.000 A 
ATOM      4  C   UNL     1       1.566   9.608  17.814  0.00  0.00    +0.000 A 
ATOM      5  C   UNL     1       2.212   8.370  17.820  0.00  0.00    +0.000 A 
ATOM      6  C   UNL     1       2.275   7.610  18.992  0.00  0.00    +0.000 A 
ATOM      7  C   UNL     1       1.664   8.085  20.156  0.00  0.00    +0.000 A 
ATOM      8  C   UNL     1       1.044   9.333  20.143  0.00  0.00    +0.000 A 
ATOM      9  F   UNL     1       0.493   9.782  21.280  0.00  0.00    +0.000 F 
BRANCH   6  10
ATOM     10  N   UNL     1       2.901   6.335  18.994  0.00  0.00    +0.000 N 
ATOM     11  N   UNL     1       4.076   6.168  18.336  0.00  0.00    +0.000 NA
ATOM     12  C   UNL     1       4.507   4.978  18.751  0.00  0.00    +0.000 A 
ATOM     13 CL   UNL     1       6.037   4.410  18.291  0.00  0.00    +0.000 Cl
ATOM     14  C   UNL     1       3.565   4.292  19.544  0.00  0.00    +0.000 A 
ATOM     15  C   UNL     1       3.484   3.031  20.166  0.00  0.00    +0.000 A 
ATOM     16  C   UNL     1       2.312   2.678  20.844  0.00  0.00    +0.000 A 
ATOM     17  C   UNL     1       1.231   3.552  20.898  0.00  0.00    +0.000 A 
ATOM     18  C   UNL     1       1.297   4.809  20.294  0.00  0.00    +0.000 A 
ATOM     19  C   UNL     1       2.493   5.177  19.650  0.00  0.00    +0.000 A 
ENDBRANCH   6  10
ENDBRANCH   1   3
BRANCH   1  22
ATOM     20  C   UNL     1      -1.953  10.709  18.076  0.00  0.00    +0.000 C 
ATOM     21  O   UNL     1      -2.253   9.975  19.002  0.00  0.00    +0.000 OA
ATOM     22  N   UNL     1      -0.787  11.433  17.977  0.00  0.00    +0.000 N 
ATOM     23  H   UNL     1      -0.673  12.047  17.178  0.00  0.00    +0.000 HD
BRANCH  20  24
ATOM     24  C   UNL     1      -2.964  10.997  16.991  0.00  0.00    +0.000 C 
ATOM     25  C   UNL     1      -3.547   9.891  16.119  0.00  0.00    +0.000 C 
ATOM     26  C   UNL     1      -2.484  10.772  15.564  0.00  0.00    +0.000 C 
BRANCH  24  29
ATOM     27  C   UNL     1      -5.107  11.638  18.068  0.00  0.00    +0.000 C 
ATOM     28  O   UNL     1      -5.300  10.466  18.406  0.00  0.00    +0.000 OA
ATOM     29  N   UNL     1      -3.959  11.973  17.398  0.00  0.00    +0.000 N 
ATOM     30  H   UNL     1      -3.930  12.834  16.866  0.00  0.00    +0.000 HD
BRANCH  27  36
ATOM     31  C   UNL     1      -6.302  13.031  20.927  0.00  0.00    +0.000 C 
ATOM     32  C   UNL     1      -6.571  13.313  19.488  0.00  0.00    +0.000 A 
ATOM     33  N   UNL     1      -7.474  14.346  19.254  0.00  0.00    +0.000 NA
ATOM     34  C   UNL     1      -7.652  14.515  17.967  0.00  0.00    +0.000 A 
ATOM     35  S   UNL     1      -6.767  13.479  16.950  0.00  0.00    +0.000 S 
ATOM     36  C   UNL     1      -6.054  12.717  18.337  0.00  0.00    +0.000 A 
ENDBRANCH  27  36
ENDBRANCH  24  29
ENDBRANCH  20  24
ENDBRANCH   1  22
TORSDOF 6
ENDMDL
MODEL 7
REMARK VINA RESULT:      -8.5      5.438     10.910
REMARK  Name = 
REMARK  8 active torsions:
REMARK  status: ('A' for Active; 'I' for Inactive)
REMARK    1  A    between atoms: C_1  and  C_2
REMARK    2  A    between atoms: C_6  and  C_7
REMARK    3  A    between atoms: N_9  and  C_10
REMARK    4  A    between atoms: C_10  and  C_11
REMARK    5  A    between atoms: N_13  and  C_14
REMARK    6  A    between atoms: C_14  and  C_15
REMARK    7  A    between atoms: C_14  and  C_16
REMARK    8  A    between atoms: C_19  and  N_20
REMARK                            x       y       z     vdW  Elec       q    Type
REMARK                         _______ _______ _______ _____ _____    ______ ____
ROOT
ATOM      1  C   UNL     1       0.061  11.204  18.946  0.00  0.00    +0.000 C 
ATOM      2  C   UNL     1      -1.435  11.001  19.233  0.00  0.00    +0.000 C 
ENDROOT
BRANCH   1   3
ATOM      3  C   UNL     1       0.863   9.920  18.961  0.00  0.00    +0.000 A 
ATOM      4  C   UNL     1       1.444   9.375  17.807  0.00  0.00    +0.000 A 
ATOM      5  C   UNL     1       2.137   8.163  17.861  0.00  0.00    +0.000 A 
ATOM      6  C   UNL     1       2.250   7.467  19.069  0.00  0.00    +0.000 A 
ATOM      7  C   UNL     1       1.644   7.978  20.220  0.00  0.00    +0.000 A 
ATOM      8  C   UNL     1       0.978   9.200  20.157  0.00  0.00    +0.000 A 
ATOM      9  F   UNL     1       0.432   9.685  21.282  0.00  0.00    +0.000 F 
BRANCH   6  10
ATOM     10  N   UNL     1       2.925   6.218  19.122  0.00  0.00    +0.000 N 
ATOM     11  N   UNL     1       4.130   6.084  18.512  0.00  0.00    +0.000 NA
ATOM     12  C   UNL     1       4.589   4.920  18.968  0.00  0.00    +0.000 A 
ATOM     13 CL   UNL     1       6.158   4.404  18.579  0.00  0.00    +0.000 Cl
ATOM     14  C   UNL     1       3.645   4.214  19.740  0.00  0.00    +0.000 A 
ATOM     15  C   UNL     1       3.588   2.963  20.385  0.00  0.00    +0.000 A 
ATOM     16  C   UNL     1       2.405   2.578  21.026  0.00  0.00    +0.000 A 
ATOM     17  C   UNL     1       1.291   3.410  21.020  0.00  0.00    +0.000 A 
ATOM     18  C   UNL     1       1.331   4.657  20.392  0.00  0.00    +0.000 A 
ATOM     19  C   UNL     1       2.537   5.058  19.786  0.00  0.00    +0.000 A 
ENDBRANCH   6  10
ENDBRANCH   1   3
BRANCH   1  22
ATOM     20  C   UNL     1       0.510  13.509  19.749  0.00  0.00    +0.000 C 
ATOM     21  O   UNL     1      -0.050  14.075  18.825  0.00  0.00    +0.000 OA
ATOM     22  N   UNL     1       0.635  12.146  19.892  0.00  0.00    +0.000 N 
ATOM     23  H   UNL     1       1.081  11.793  20.731  0.00  0.00    +0.000 HD
BRANCH  20  24
ATOM     24  C   UNL     1       1.000  14.311  20.932  0.00  0.00    +0.000 C 
ATOM     25  C   UNL     1       1.980  15.467  20.771  0.00  0.00    +0.000 C 
ATOM     26  C   UNL     1       2.477  14.157  21.269  0.00  0.00    +0.000 C 
BRANCH  24  29
ATOM     27  C   UNL     1      -0.612  13.644  22.699  0.00  0.00    +0.000 C 
ATOM     28  O   UNL     1      -0.175  12.489  22.677  0.00  0.00    +0.000 OA
ATOM     29  N   UNL     1      -0.054  14.599  21.889  0.00  0.00    +0.000 N 
ATOM     30  H   UNL     1      -0.579  15.438  21.678  0.00  0.00    +0.000 HD
BRANCH  27  36
ATOM     31  C   UNL     1      -3.904  12.815  22.823  0.00  0.00    +0.000 C 
ATOM     32  C   UNL     1      -3.078  13.756  23.631  0.00  0.00    +0.000 A 
ATOM     33  N   UNL     1      -3.770  14.423  24.639  0.00  0.00    +0.000 NA
ATOM     34  C   UNL     1      -2.967  15.229  25.288  0.00  0.00    +0.000 A 
ATOM     35  S   UNL     1      -1.350  15.251  24.764  0.00  0.00    +0.000 S 
ATOM     36  C   UNL     1      -1.720  14.067  23.550  0.00  0.00    +0.000 A 
ENDBRANCH  27  36
ENDBRANCH  24  29
ENDBRANCH  20  24
ENDBRANCH   1  22
TORSDOF 6
ENDMDL
MODEL 8
REMARK VINA RESULT:      -8.4      5.804     10.951
REMARK  Name = 
REMARK  8 active torsions:
REMARK  status: ('A' for Active; 'I' for Inactive)
REMARK    1  A    between atoms: C_1  and  C_2
REMARK    2  A    between atoms: C_6  and  C_7
REMARK    3  A    between atoms: N_9  and  C_10
REMARK    4  A    between atoms: C_10  and  C_11
REMARK    5  A    between atoms: N_13  and  C_14
REMARK    6  A    between atoms: C_14  and  C_15
REMARK    7  A    between atoms: C_14  and  C_16
REMARK    8  A    between atoms: C_19  and  N_20
REMARK                            x       y       z     vdW  Elec       q    Type
REMARK                         _______ _______ _______ _____ _____    ______ ____
ROOT
ATOM      1  C   UNL     1      -0.062  11.266  19.628  0.00  0.00    +0.000 C 
ATOM      2  C   UNL     1       0.581  12.490  18.957  0.00  0.00    +0.000 C 
ENDROOT
BRANCH   1   3
ATOM      3  C   UNL     1       0.762  10.002  19.503  0.00  0.00    +0.000 A 
ATOM      4  C   UNL     1       1.375   9.611  18.304  0.00  0.00    +0.000 A 
ATOM      5  C   UNL     1       2.087   8.412  18.225  0.00  0.00    +0.000 A 
ATOM      6  C   UNL     1       2.187   7.574  19.340  0.00  0.00    +0.000 A 
ATOM      7  C   UNL     1       1.549   7.930  20.531  0.00  0.00    +0.000 A 
ATOM      8  C   UNL     1       0.863   9.141  20.604  0.00  0.00    +0.000 A 
ATOM      9  F   UNL     1       0.286   9.476  21.767  0.00  0.00    +0.000 F 
BRANCH   6  10
ATOM     10  N   UNL     1       2.882   6.337  19.254  0.00  0.00    +0.000 N 
ATOM     11  N   UNL     1       4.066   6.282  18.594  0.00  0.00    +0.000 NA
ATOM     12  C   UNL     1       4.558   5.089  18.925  0.00  0.00    +0.000 A 
ATOM     13 CL   UNL     1       6.119   4.638  18.438  0.00  0.00    +0.000 Cl
ATOM     14  C   UNL     1       3.652   4.297  19.658  0.00  0.00    +0.000 A 
ATOM     15  C   UNL     1       3.635   2.991  20.185  0.00  0.00    +0.000 A 
ATOM     16  C   UNL     1       2.481   2.527  20.826  0.00  0.00    +0.000 A 
ATOM     17  C   UNL     1       1.355   3.337  20.935  0.00  0.00    +0.000 A 
ATOM     18  C   UNL     1       1.355   4.637  20.425  0.00  0.00    +0.000 A 
ATOM     19  C   UNL     1       2.533   5.114  19.819  0.00  0.00    +0.000 A 
ENDBRANCH   6  10
ENDBRANCH   1   3
BRANCH   1  22
ATOM     20  C   UNL     1      -1.827  11.606  17.917  0.00  0.00    +0.000 C 
ATOM     21  O   UNL     1      -1.184  12.378  17.225  0.00  0.00    +0.000 OA
ATOM     22  N   UNL     1      -1.392  11.034  19.090  0.00  0.00    +0.000 N 
ATOM     23  H   UNL     1      -2.001  10.368  19.550  0.00  0.00    +0.000 HD
BRANCH  20  24
ATOM     24  C   UNL     1      -3.158  11.089  17.423  0.00  0.00    +0.000 C 
ATOM     25  C   UNL     1      -3.257   9.914  16.457  0.00  0.00    +0.000 C 
ATOM     26  C   UNL     1      -3.439  11.297  15.941  0.00  0.00    +0.000 C 
BRANCH  24  29
ATOM     27  C   UNL     1      -5.303  11.802  18.450  0.00  0.00    +0.000 C 
ATOM     28  O   UNL     1      -5.539  12.529  17.479  0.00  0.00    +0.000 OA
ATOM     29  N   UNL     1      -4.163  11.040  18.469  0.00  0.00    +0.000 N 
ATOM     30  H   UNL     1      -3.816  10.691  19.354  0.00  0.00    +0.000 HD
BRANCH  27  36
ATOM     31  C   UNL     1      -7.180   9.289  19.754  0.00  0.00    +0.000 C 
ATOM     32  C   UNL     1      -6.968  10.702  20.177  0.00  0.00    +0.000 A 
ATOM     33  N   UNL     1      -7.654  11.076  21.329  0.00  0.00    +0.000 NA
ATOM     34  C   UNL     1      -7.411  12.331  21.618  0.00  0.00    +0.000 A 
ATOM     35  S   UNL     1      -6.359  13.149  20.563  0.00  0.00    +0.000 S 
ATOM     36  C   UNL     1      -6.180  11.707  19.613  0.00  0.00    +0.000 A 
ENDBRANCH  27  36
ENDBRANCH  24  29
ENDBRANCH  20  24
ENDBRANCH   1  22
TORSDOF 6
ENDMDL
MODEL 9
REMARK VINA RESULT:      -8.3      5.279     10.772
REMARK  Name = 
REMARK  8 active torsions:
REMARK  status: ('A' for Active; 'I' for Inactive)
REMARK    1  A    between atoms: C_1  and  C_2
REMARK    2  A    between atoms: C_6  and  C_7
REMARK    3  A    between atoms: N_9  and  C_10
REMARK    4  A    between atoms: C_10  and  C_11
REMARK    5  A    between atoms: N_13  and  C_14
REMARK    6  A    between atoms: C_14  and  C_15
REMARK    7  A    between atoms: C_14  and  C_16
REMARK    8  A    between atoms: C_19  and  N_20
REMARK                            x       y       z     vdW  Elec       q    Type
REMARK                         _______ _______ _______ _____ _____    ______ ____
ROOT
ATOM      1  C   UNL     1       0.589  11.031  19.520  0.00  0.00    +0.000 C 
ATOM      2  C   UNL     1       1.502  12.266  19.548  0.00  0.00    +0.000 C 
ENDROOT
BRANCH   1   3
ATOM      3  C   UNL     1       1.305   9.755  19.132  0.00  0.00    +0.000 A 
ATOM      4  C   UNL     1       1.792   9.521  17.838  0.00  0.00    +0.000 A 
ATOM      5  C   UNL     1       2.405   8.309  17.514  0.00  0.00    +0.000 A 
ATOM      6  C   UNL     1       2.530   7.301  18.475  0.00  0.00    +0.000 A 
ATOM      7  C   UNL     1       2.015   7.503  19.758  0.00  0.00    +0.000 A 
ATOM      8  C   UNL     1       1.429   8.726  20.075  0.00  0.00    +0.000 A 
ATOM      9  F   UNL     1       0.971   8.907  21.323  0.00  0.00    +0.000 F 
BRANCH   6  10
ATOM     10  N   UNL     1       3.123   6.054  18.140  0.00  0.00    +0.000 N 
ATOM     11  N   UNL     1       2.433   4.906  18.361  0.00  0.00    +0.000 NA
ATOM     12  C   UNL     1       3.136   3.982  17.710  0.00  0.00    +0.000 A 
ATOM     13 CL   UNL     1       2.560   2.391  17.587  0.00  0.00    +0.000 Cl
ATOM     14  C   UNL     1       4.356   4.469  17.199  0.00  0.00    +0.000 A 
ATOM     15  C   UNL     1       5.461   3.929  16.512  0.00  0.00    +0.000 A 
ATOM     16  C   UNL     1       6.553   4.754  16.218  0.00  0.00    +0.000 A 
ATOM     17  C   UNL     1       6.559   6.090  16.607  0.00  0.00    +0.000 A 
ATOM     18  C   UNL     1       5.470   6.644  17.283  0.00  0.00    +0.000 A 
ATOM     19  C   UNL     1       4.356   5.821  17.538  0.00  0.00    +0.000 A 
ENDBRANCH   6  10
ENDBRANCH   1   3
BRANCH   1  22
ATOM     20  C   UNL     1      -1.672  10.479  18.658  0.00  0.00    +0.000 C 
ATOM     21  O   UNL     1      -1.860   9.530  19.400  0.00  0.00    +0.000 OA
ATOM     22  N   UNL     1      -0.533  11.250  18.623  0.00  0.00    +0.000 N 
ATOM     23  H   UNL     1      -0.514  12.045  17.994  0.00  0.00    +0.000 HD
BRANCH  20  24
ATOM     24  C   UNL     1      -2.799  10.985  17.788  0.00  0.00    +0.000 C 
ATOM     25  C   UNL     1      -3.229  10.253  16.521  0.00  0.00    +0.000 C 
ATOM     26  C   UNL     1      -2.395  11.480  16.406  0.00  0.00    +0.000 C 
BRANCH  24  29
ATOM     27  C   UNL     1      -3.795  12.380  19.584  0.00  0.00    +0.000 C 
ATOM     28  O   UNL     1      -2.685  12.858  19.843  0.00  0.00    +0.000 OA
ATOM     29  N   UNL     1      -3.925  11.478  18.560  0.00  0.00    +0.000 N 
ATOM     30  H   UNL     1      -4.735  10.871  18.535  0.00  0.00    +0.000 HD
BRANCH  27  36
ATOM     31  C   UNL     1      -4.540  14.792  21.857  0.00  0.00    +0.000 C 
ATOM     32  C   UNL     1      -5.351  13.692  21.263  0.00  0.00    +0.000 A 
ATOM     33  N   UNL     1      -6.670  13.634  21.706  0.00  0.00    +0.000 NA
ATOM     34  C   UNL     1      -7.299  12.636  21.137  0.00  0.00    +0.000 A 
ATOM     35  S   UNL     1      -6.389  11.708  20.042  0.00  0.00    +0.000 S 
ATOM     36  C   UNL     1      -5.007  12.719  20.324  0.00  0.00    +0.000 A 
ENDBRANCH  27  36
ENDBRANCH  24  29
ENDBRANCH  20  24
ENDBRANCH   1  22
TORSDOF 6
ENDMDL
