MODEL 1
REMARK VINA RESULT:      -7.2      0.000      0.000
REMARK  Name = 
REMARK  13 active torsions:
REMARK  status: ('A' for Active; 'I' for Inactive)
REMARK    1  A    between atoms: C_1  and  O_2
REMARK    2  A    between atoms: O_2  and  C_3
REMARK    3  A    between atoms: C_5  and  N_6
REMARK    4  A    between atoms: N_6  and  C_7
REMARK    5  A    between atoms: N_6  and  C_11
REMARK    6  A    between atoms: C_7  and  C_8
REMARK    7  A    between atoms: C_8  and  C_9
REMARK    8  A    between atoms: C_11  and  C_12
REMARK    9  A    between atoms: C_12  and  C_13
REMARK   10  A    between atoms: C_17  and  C_18
REMARK   11  A    between atoms: N_19  and  N_20
REMARK   12  A    between atoms: C_21  and  C_23
REMARK   13  A    between atoms: C_26  and  C_27
REMARK                            x       y       z     vdW  Elec       q    Type
REMARK                         _______ _______ _______ _____ _____    ______ ____
ROOT
ATOM      1  C   UNL     1       3.322   3.791  19.055  0.00  0.00    +0.000 A 
ATOM      2  C   UNL     1       4.260   3.747  18.012  0.00  0.00    +0.000 A 
ATOM      3  C   UNL     1       4.740   4.901  17.383  0.00  0.00    +0.000 A 
ATOM      4  C   UNL     1       4.131   6.112  17.729  0.00  0.00    +0.000 A 
ATOM      5  C   UNL     1       3.187   6.180  18.765  0.00  0.00    +0.000 A 
ATOM      6  C   UNL     1       2.843   5.031  19.492  0.00  0.00    +0.000 A 
ENDROOT
BRANCH   1   8
ATOM      7  C   UNL     1       1.843   1.928  19.124  0.00  0.00    +0.000 C 
ATOM      8  O   UNL     1       2.910   2.665  19.717  0.00  0.00    +0.000 OA
ENDBRANCH   1   8
BRANCH   6   9
ATOM      9  C   UNL     1       1.966   5.241  20.676  0.00  0.00    +0.000 C 
ATOM     10  N   UNL     1       1.389   6.309  21.149  0.00  0.00    +0.000 NA
BRANCH  10  11
ATOM     11  N   UNL     1       1.568   7.509  20.533  0.00  0.00    +0.000 N 
ATOM     12  C   UNL     1       0.715   8.578  20.771  0.00  0.00    +0.000 C 
ATOM     13  O   UNL     1      -0.269   8.566  21.511  0.00  0.00    +0.000 OA
ATOM     14  H   UNL     1       2.466   7.687  20.099  0.00  0.00    +0.000 HD
BRANCH  12  15
ATOM     15  C   UNL     1       1.084   9.844  20.069  0.00  0.00    +0.000 A 
ATOM     16  C   UNL     1       1.555   9.834  18.749  0.00  0.00    +0.000 A 
ATOM     17  C   UNL     1       1.914  11.028  18.118  0.00  0.00    +0.000 A 
ATOM     18  C   UNL     1       1.807  12.249  18.791  0.00  0.00    +0.000 A 
ATOM     19  C   UNL     1       2.223  13.529  18.126  0.00  0.00    +0.000 C 
ATOM     20  C   UNL     1       1.301  12.262  20.098  0.00  0.00    +0.000 A 
ATOM     21  C   UNL     1       0.937  11.067  20.733  0.00  0.00    +0.000 A 
ENDBRANCH  12  15
ENDBRANCH  10  11
ENDBRANCH   6   9
BRANCH   3  22
ATOM     22  N   UNL     1       5.829   4.812  16.527  0.00  0.00    +0.000 N 
BRANCH  22  23
ATOM     23  C   UNL     1       7.209   4.730  17.059  0.00  0.00    +0.000 C 
BRANCH  23  24
ATOM     24  C   UNL     1       7.500   5.704  18.205  0.00  0.00    +0.000 C 
BRANCH  24  25
ATOM     25  C   UNL     1       7.620   7.085  17.732  0.00  0.00    +0.000 C 
ATOM     26  N   UNL     1       7.742   8.176  17.352  0.00  0.00    +0.000 NA
ENDBRANCH  24  25
ENDBRANCH  23  24
ENDBRANCH  22  23
BRANCH  22  27
ATOM     27  C   UNL     1       5.663   5.127  15.092  0.00  0.00    +0.000 C 
BRANCH  27  28
ATOM     28  C   UNL     1       6.810   4.600  14.225  0.00  0.00    +0.000 C 
BRANCH  28  29
ATOM     29  C   UNL     1       6.237   3.784  13.078  0.00  0.00    +0.000 C 
ATOM     30  N   UNL     1       5.762   3.108  12.126  0.00  0.00    +0.000 NA
ENDBRANCH  28  29
ENDBRANCH  27  28
ENDBRANCH  22  27
ENDBRANCH   3  22
TORSDOF 11
ENDMDL
MODEL 2
REMARK VINA RESULT:      -7.1      1.030      3.160
REMARK  Name = 
REMARK  13 active torsions:
REMARK  status: ('A' for Active; 'I' for Inactive)
REMARK    1  A    between atoms: C_1  and  O_2
REMARK    2  A    between atoms: O_2  and  C_3
REMARK    3  A    between atoms: C_5  and  N_6
REMARK    4  A    between atoms: N_6  and  C_7
REMARK    5  A    between atoms: N_6  and  C_11
REMARK    6  A    between atoms: C_7  and  C_8
REMARK    7  A    between atoms: C_8  and  C_9
REMARK    8  A    between atoms: C_11  and  C_12
REMARK    9  A    between atoms: C_12  and  C_13
REMARK   10  A    between atoms: C_17  and  C_18
REMARK   11  A    between atoms: N_19  and  N_20
REMARK   12  A    between atoms: C_21  and  C_23
REMARK   13  A    between atoms: C_26  and  C_27
REMARK                            x       y       z     vdW  Elec       q    Type
REMARK                         _______ _______ _______ _____ _____    ______ ____
ROOT
ATOM      1  C   UNL     1       3.446   4.154  18.829  0.00  0.00    +0.000 A 
ATOM      2  C   UNL     1       4.357   4.244  17.767  0.00  0.00    +0.000 A 
ATOM      3  C   UNL     1       4.697   5.463  17.168  0.00  0.00    +0.000 A 
ATOM      4  C   UNL     1       3.973   6.590  17.569  0.00  0.00    +0.000 A 
ATOM      5  C   UNL     1       3.052   6.523  18.626  0.00  0.00    +0.000 A 
ATOM      6  C   UNL     1       2.849   5.321  19.319  0.00  0.00    +0.000 A 
ENDROOT
BRANCH   1   8
ATOM      7  C   UNL     1       4.266   2.310  20.091  0.00  0.00    +0.000 C 
ATOM      8  O   UNL     1       3.171   2.969  19.459  0.00  0.00    +0.000 OA
ENDBRANCH   1   8
BRANCH   6   9
ATOM      9  C   UNL     1       1.983   5.397  20.527  0.00  0.00    +0.000 C 
ATOM     10  N   UNL     1       1.373   6.399  21.096  0.00  0.00    +0.000 NA
BRANCH  10  11
ATOM     11  N   UNL     1       1.497   7.652  20.579  0.00  0.00    +0.000 N 
ATOM     12  C   UNL     1       0.573   8.647  20.870  0.00  0.00    +0.000 C 
ATOM     13  O   UNL     1      -0.430   8.519  21.572  0.00  0.00    +0.000 OA
ATOM     14  H   UNL     1       2.394   7.916  20.191  0.00  0.00    +0.000 HD
BRANCH  12  15
ATOM     15  C   UNL     1       0.885   9.984  20.279  0.00  0.00    +0.000 A 
ATOM     16  C   UNL     1       0.762  11.159  21.032  0.00  0.00    +0.000 A 
ATOM     17  C   UNL     1       1.039  12.401  20.455  0.00  0.00    +0.000 A 
ATOM     18  C   UNL     1       1.444  12.490  19.119  0.00  0.00    +0.000 A 
ATOM     19  C   UNL     1       1.710  13.825  18.487  0.00  0.00    +0.000 C 
ATOM     20  C   UNL     1       1.602  11.312  18.377  0.00  0.00    +0.000 A 
ATOM     21  C   UNL     1       1.329  10.064  18.955  0.00  0.00    +0.000 A 
ENDBRANCH  12  15
ENDBRANCH  10  11
ENDBRANCH   6   9
BRANCH   3  22
ATOM     22  N   UNL     1       5.769   5.518  16.288  0.00  0.00    +0.000 N 
BRANCH  22  23
ATOM     23  C   UNL     1       5.567   5.344  14.831  0.00  0.00    +0.000 C 
BRANCH  23  24
ATOM     24  C   UNL     1       5.685   3.894  14.349  0.00  0.00    +0.000 C 
BRANCH  24  25
ATOM     25  C   UNL     1       6.349   3.803  13.047  0.00  0.00    +0.000 C 
ATOM     26  N   UNL     1       6.858   3.749  12.004  0.00  0.00    +0.000 NA
ENDBRANCH  24  25
ENDBRANCH  23  24
ENDBRANCH  22  23
BRANCH  22  27
ATOM     27  C   UNL     1       7.150   5.421  16.806  0.00  0.00    +0.000 C 
BRANCH  27  28
ATOM     28  C   UNL     1       7.479   6.498  17.844  0.00  0.00    +0.000 C 
BRANCH  28  29
ATOM     29  C   UNL     1       7.698   5.840  19.197  0.00  0.00    +0.000 C 
ATOM     30  N   UNL     1       7.879   5.295  20.319  0.00  0.00    +0.000 NA
ENDBRANCH  28  29
ENDBRANCH  27  28
ENDBRANCH  22  27
ENDBRANCH   3  22
TORSDOF 11
ENDMDL
MODEL 3
REMARK VINA RESULT:      -7.1      3.503      5.680
REMARK  Name = 
REMARK  13 active torsions:
REMARK  status: ('A' for Active; 'I' for Inactive)
REMARK    1  A    between atoms: C_1  and  O_2
REMARK    2  A    between atoms: O_2  and  C_3
REMARK    3  A    between atoms: C_5  and  N_6
REMARK    4  A    between atoms: N_6  and  C_7
REMARK    5  A    between atoms: N_6  and  C_11
REMARK    6  A    between atoms: C_7  and  C_8
REMARK    7  A    between atoms: C_8  and  C_9
REMARK    8  A    between atoms: C_11  and  C_12
REMARK    9  A    between atoms: C_12  and  C_13
REMARK   10  A    between atoms: C_17  and  C_18
REMARK   11  A    between atoms: N_19  and  N_20
REMARK   12  A    between atoms: C_21  and  C_23
REMARK   13  A    between atoms: C_26  and  C_27
REMARK                            x       y       z     vdW  Elec       q    Type
REMARK                         _______ _______ _______ _____ _____    ______ ____
ROOT
ATOM      1  C   UNL     1       1.634   9.047  19.082  0.00  0.00    +0.000 A 
ATOM      2  C   UNL     1       2.232   8.007  18.356  0.00  0.00    +0.000 A 
ATOM      3  C   UNL     1       2.425   6.729  18.893  0.00  0.00    +0.000 A 
ATOM      4  C   UNL     1       2.136   6.560  20.251  0.00  0.00    +0.000 A 
ATOM      5  C   UNL     1       1.542   7.589  20.999  0.00  0.00    +0.000 A 
ATOM      6  C   UNL     1       1.208   8.809  20.394  0.00  0.00    +0.000 A 
ENDROOT
BRANCH   1   8
ATOM      7  C   UNL     1       2.468  10.913  17.864  0.00  0.00    +0.000 C 
ATOM      8  O   UNL     1       1.381  10.274  18.529  0.00  0.00    +0.000 OA
ENDBRANCH   1   8
BRANCH   6   9
ATOM      9  C   UNL     1       0.430   9.765  21.228  0.00  0.00    +0.000 C 
ATOM     10  N   UNL     1      -0.683  10.405  21.004  0.00  0.00    +0.000 NA
BRANCH  10  11
ATOM     11  N   UNL     1      -1.327  10.253  19.814  0.00  0.00    +0.000 N 
ATOM     12  C   UNL     1      -1.822  11.347  19.116  0.00  0.00    +0.000 C 
ATOM     13  O   UNL     1      -1.764  12.522  19.479  0.00  0.00    +0.000 OA
ATOM     14  H   UNL     1      -1.219   9.371  19.328  0.00  0.00    +0.000 HD
BRANCH  12  15
ATOM     15  C   UNL     1      -2.444  11.020  17.797  0.00  0.00    +0.000 A 
ATOM     16  C   UNL     1      -3.655  11.601  17.399  0.00  0.00    +0.000 A 
ATOM     17  C   UNL     1      -4.230  11.266  16.170  0.00  0.00    +0.000 A 
ATOM     18  C   UNL     1      -3.604  10.350  15.319  0.00  0.00    +0.000 A 
ATOM     19  C   UNL     1      -4.236   9.964  14.013  0.00  0.00    +0.000 C 
ATOM     20  C   UNL     1      -2.375   9.796  15.701  0.00  0.00    +0.000 A 
ATOM     21  C   UNL     1      -1.794  10.133  16.931  0.00  0.00    +0.000 A 
ENDBRANCH  12  15
ENDBRANCH  10  11
ENDBRANCH   6   9
BRANCH   3  22
ATOM     22  N   UNL     1       2.803   5.685  18.059  0.00  0.00    +0.000 N 
BRANCH  22  23
ATOM     23  C   UNL     1       1.880   4.562  17.779  0.00  0.00    +0.000 C 
BRANCH  23  24
ATOM     24  C   UNL     1       2.330   3.218  18.360  0.00  0.00    +0.000 C 
BRANCH  24  25
ATOM     25  C   UNL     1       1.721   2.955  19.665  0.00  0.00    +0.000 C 
ATOM     26  N   UNL     1       1.225   2.769  20.699  0.00  0.00    +0.000 NA
ENDBRANCH  24  25
ENDBRANCH  23  24
ENDBRANCH  22  23
BRANCH  22  27
ATOM     27  C   UNL     1       4.228   5.508  17.706  0.00  0.00    +0.000 C 
BRANCH  27  28
ATOM     28  C   UNL     1       5.138   5.366  18.929  0.00  0.00    +0.000 C 
BRANCH  28  29
ATOM     29  C   UNL     1       6.519   4.918  18.478  0.00  0.00    +0.000 C 
ATOM     30  N   UNL     1       7.664   4.548  18.105  0.00  0.00    +0.000 NA
ENDBRANCH  28  29
ENDBRANCH  27  28
ENDBRANCH  22  27
ENDBRANCH   3  22
TORSDOF 11
ENDMDL
MODEL 4
REMARK VINA RESULT:      -7.0      0.401      2.815
REMARK  Name = 
REMARK  13 active torsions:
REMARK  status: ('A' for Active; 'I' for Inactive)
REMARK    1  A    between atoms: C_1  and  O_2
REMARK    2  A    between atoms: O_2  and  C_3
REMARK    3  A    between atoms: C_5  and  N_6
REMARK    4  A    between atoms: N_6  and  C_7
REMARK    5  A    between atoms: N_6  and  C_11
REMARK    6  A    between atoms: C_7  and  C_8
REMARK    7  A    between atoms: C_8  and  C_9
REMARK    8  A    between atoms: C_11  and  C_12
REMARK    9  A    between atoms: C_12  and  C_13
REMARK   10  A    between atoms: C_17  and  C_18
REMARK   11  A    between atoms: N_19  and  N_20
REMARK   12  A    between atoms: C_21  and  C_23
REMARK   13  A    between atoms: C_26  and  C_27
REMARK                            x       y       z     vdW  Elec       q    Type
REMARK                         _______ _______ _______ _____ _____    ______ ____
ROOT
ATOM      1  C   UNL     1       3.391   3.931  18.994  0.00  0.00    +0.000 A 
ATOM      2  C   UNL     1       4.372   3.957  17.992  0.00  0.00    +0.000 A 
ATOM      3  C   UNL     1       4.821   5.148  17.410  0.00  0.00    +0.000 A 
ATOM      4  C   UNL     1       4.142   6.320  17.758  0.00  0.00    +0.000 A 
ATOM      5  C   UNL     1       3.154   6.317  18.754  0.00  0.00    +0.000 A 
ATOM      6  C   UNL     1       2.835   5.136  19.439  0.00  0.00    +0.000 A 
ENDROOT
BRANCH   1   8
ATOM      7  C   UNL     1       2.089   1.941  18.902  0.00  0.00    +0.000 C 
ATOM      8  O   UNL     1       3.007   2.770  19.612  0.00  0.00    +0.000 OA
ENDBRANCH   1   8
BRANCH   6   9
ATOM      9  C   UNL     1       1.901   5.274  20.589  0.00  0.00    +0.000 C 
ATOM     10  N   UNL     1       1.261   6.304  21.067  0.00  0.00    +0.000 NA
BRANCH  10  11
ATOM     11  N   UNL     1       1.416   7.528  20.493  0.00  0.00    +0.000 N 
ATOM     12  C   UNL     1       0.660   8.618  20.902  0.00  0.00    +0.000 C 
ATOM     13  O   UNL     1      -0.213   8.608  21.770  0.00  0.00    +0.000 OA
ATOM     14  H   UNL     1       2.254   7.690  19.948  0.00  0.00    +0.000 HD
BRANCH  12  15
ATOM     15  C   UNL     1       0.995   9.905  20.220  0.00  0.00    +0.000 A 
ATOM     16  C   UNL     1       1.486   9.928  18.908  0.00  0.00    +0.000 A 
ATOM     17  C   UNL     1       1.812  11.140  18.296  0.00  0.00    +0.000 A 
ATOM     18  C   UNL     1       1.652  12.349  18.982  0.00  0.00    +0.000 A 
ATOM     19  C   UNL     1       2.033  13.651  18.338  0.00  0.00    +0.000 C 
ATOM     20  C   UNL     1       1.128  12.329  20.281  0.00  0.00    +0.000 A 
ATOM     21  C   UNL     1       0.795  11.114  20.896  0.00  0.00    +0.000 A 
ENDBRANCH  12  15
ENDBRANCH  10  11
ENDBRANCH   6   9
BRANCH   3  22
ATOM     22  N   UNL     1       5.948   5.131  16.600  0.00  0.00    +0.000 N 
BRANCH  22  23
ATOM     23  C   UNL     1       5.825   5.146  15.124  0.00  0.00    +0.000 C 
BRANCH  23  24
ATOM     24  C   UNL     1       5.842   3.756  14.479  0.00  0.00    +0.000 C 
BRANCH  24  25
ATOM     25  C   UNL     1       6.411   3.786  13.130  0.00  0.00    +0.000 C 
ATOM     26  N   UNL     1       6.849   3.832  12.055  0.00  0.00    +0.000 NA
ENDBRANCH  24  25
ENDBRANCH  23  24
ENDBRANCH  22  23
BRANCH  22  27
ATOM     27  C   UNL     1       7.262   4.770  17.176  0.00  0.00    +0.000 C 
BRANCH  27  28
ATOM     28  C   UNL     1       7.682   5.682  18.331  0.00  0.00    +0.000 C 
BRANCH  28  29
ATOM     29  C   UNL     1       7.695   7.125  17.853  0.00  0.00    +0.000 C 
ATOM     30  N   UNL     1       7.705   8.321  17.455  0.00  0.00    +0.000 NA
ENDBRANCH  28  29
ENDBRANCH  27  28
ENDBRANCH  22  27
ENDBRANCH   3  22
TORSDOF 11
ENDMDL
MODEL 5
REMARK VINA RESULT:      -7.0      1.792      2.704
REMARK  Name = 
REMARK  13 active torsions:
REMARK  status: ('A' for Active; 'I' for Inactive)
REMARK    1  A    between atoms: C_1  and  O_2
REMARK    2  A    between atoms: O_2  and  C_3
REMARK    3  A    between atoms: C_5  and  N_6
REMARK    4  A    between atoms: N_6  and  C_7
REMARK    5  A    between atoms: N_6  and  C_11
REMARK    6  A    between atoms: C_7  and  C_8
REMARK    7  A    between atoms: C_8  and  C_9
REMARK    8  A    between atoms: C_11  and  C_12
REMARK    9  A    between atoms: C_12  and  C_13
REMARK   10  A    between atoms: C_17  and  C_18
REMARK   11  A    between atoms: N_19  and  N_20
REMARK   12  A    between atoms: C_21  and  C_23
REMARK   13  A    between atoms: C_26  and  C_27
REMARK                            x       y       z     vdW  Elec       q    Type
REMARK                         _______ _______ _______ _____ _____    ______ ____
ROOT
ATOM      1  C   UNL     1       4.303   2.757  19.460  0.00  0.00    +0.000 A 
ATOM      2  C   UNL     1       5.316   3.242  18.619  0.00  0.00    +0.000 A 
ATOM      3  C   UNL     1       5.053   3.753  17.343  0.00  0.00    +0.000 A 
ATOM      4  C   UNL     1       3.745   3.623  16.864  0.00  0.00    +0.000 A 
ATOM      5  C   UNL     1       2.717   3.136  17.685  0.00  0.00    +0.000 A 
ATOM      6  C   UNL     1       2.976   2.782  19.017  0.00  0.00    +0.000 A 
ENDROOT
BRANCH   1   8
ATOM      7  C   UNL     1       5.219   1.071  20.867  0.00  0.00    +0.000 C 
ATOM      8  O   UNL     1       4.555   2.326  20.735  0.00  0.00    +0.000 OA
ENDBRANCH   1   8
BRANCH   6   9
ATOM      9  C   UNL     1       1.790   2.441  19.849  0.00  0.00    +0.000 C 
ATOM     10  N   UNL     1       0.817   3.174  20.315  0.00  0.00    +0.000 NA
BRANCH  10  11
ATOM     11  N   UNL     1       0.794   4.512  20.065  0.00  0.00    +0.000 N 
ATOM     12  C   UNL     1       1.684   5.377  20.687  0.00  0.00    +0.000 C 
ATOM     13  O   UNL     1       2.540   5.063  21.513  0.00  0.00    +0.000 OA
ATOM     14  H   UNL     1       0.296   4.829  19.242  0.00  0.00    +0.000 HD
BRANCH  12  15
ATOM     15  C   UNL     1       1.574   6.805  20.257  0.00  0.00    +0.000 A 
ATOM     16  C   UNL     1       0.986   7.771  21.085  0.00  0.00    +0.000 A 
ATOM     17  C   UNL     1       0.874   9.096  20.656  0.00  0.00    +0.000 A 
ATOM     18  C   UNL     1       1.349   9.478  19.397  0.00  0.00    +0.000 A 
ATOM     19  C   UNL     1       1.201  10.894  18.921  0.00  0.00    +0.000 C 
ATOM     20  C   UNL     1       1.970   8.520  18.585  0.00  0.00    +0.000 A 
ATOM     21  C   UNL     1       2.087   7.191  19.014  0.00  0.00    +0.000 A 
ENDBRANCH  12  15
ENDBRANCH  10  11
ENDBRANCH   6   9
BRANCH   3  22
ATOM     22  N   UNL     1       6.053   4.428  16.656  0.00  0.00    +0.000 N 
BRANCH  22  23
ATOM     23  C   UNL     1       7.333   4.771  17.319  0.00  0.00    +0.000 C 
BRANCH  23  24
ATOM     24  C   UNL     1       7.226   5.903  18.345  0.00  0.00    +0.000 C 
BRANCH  24  25
ATOM     25  C   UNL     1       7.564   7.203  17.763  0.00  0.00    +0.000 C 
ATOM     26  N   UNL     1       7.855   8.224  17.292  0.00  0.00    +0.000 NA
ENDBRANCH  24  25
ENDBRANCH  23  24
ENDBRANCH  22  23
BRANCH  22  27
ATOM     27  C   UNL     1       5.740   5.101  15.377  0.00  0.00    +0.000 C 
BRANCH  27  28
ATOM     28  C   UNL     1       6.308   4.369  14.159  0.00  0.00    +0.000 C 
BRANCH  28  29
ATOM     29  C   UNL     1       7.498   5.144  13.616  0.00  0.00    +0.000 C 
ATOM     30  N   UNL     1       8.484   5.787  13.166  0.00  0.00    +0.000 NA
ENDBRANCH  28  29
ENDBRANCH  27  28
ENDBRANCH  22  27
ENDBRANCH   3  22
TORSDOF 11
ENDMDL
MODEL 6
REMARK VINA RESULT:      -7.0      1.897      3.802
REMARK  Name = 
REMARK  13 active torsions:
REMARK  status: ('A' for Active; 'I' for Inactive)
REMARK    1  A    between atoms: C_1  and  O_2
REMARK    2  A    between atoms: O_2  and  C_3
REMARK    3  A    between atoms: C_5  and  N_6
REMARK    4  A    between atoms: N_6  and  C_7
REMARK    5  A    between atoms: N_6  and  C_11
REMARK    6  A    between atoms: C_7  and  C_8
REMARK    7  A    between atoms: C_8  and  C_9
REMARK    8  A    between atoms: C_11  and  C_12
REMARK    9  A    between atoms: C_12  and  C_13
REMARK   10  A    between atoms: C_17  and  C_18
REMARK   11  A    between atoms: N_19  and  N_20
REMARK   12  A    between atoms: C_21  and  C_23
REMARK   13  A    between atoms: C_26  and  C_27
REMARK                            x       y       z     vdW  Elec       q    Type
REMARK                         _______ _______ _______ _____ _____    ______ ____
ROOT
ATOM      1  C   UNL     1       4.453   3.094  19.220  0.00  0.00    +0.000 A 
ATOM      2  C   UNL     1       5.427   3.738  18.442  0.00  0.00    +0.000 A 
ATOM      3  C   UNL     1       5.157   4.241  17.164  0.00  0.00    +0.000 A 
ATOM      4  C   UNL     1       3.905   3.942  16.616  0.00  0.00    +0.000 A 
ATOM      5  C   UNL     1       2.917   3.294  17.374  0.00  0.00    +0.000 A 
ATOM      6  C   UNL     1       3.158   2.946  18.710  0.00  0.00    +0.000 A 
ENDROOT
BRANCH   1   8
ATOM      7  C   UNL     1       5.128   1.317  20.651  0.00  0.00    +0.000 C 
ATOM      8  O   UNL     1       4.701   2.669  20.498  0.00  0.00    +0.000 OA
ENDBRANCH   1   8
BRANCH   6   9
ATOM      9  C   UNL     1       1.993   2.420  19.473  0.00  0.00    +0.000 C 
ATOM     10  N   UNL     1       0.974   3.021  20.021  0.00  0.00    +0.000 NA
BRANCH  10  11
ATOM     11  N   UNL     1       0.866   4.375  19.955  0.00  0.00    +0.000 N 
ATOM     12  C   UNL     1       1.644   5.202  20.754  0.00  0.00    +0.000 C 
ATOM     13  O   UNL     1       2.465   4.831  21.593  0.00  0.00    +0.000 OA
ATOM     14  H   UNL     1       0.401   4.773  19.147  0.00  0.00    +0.000 HD
BRANCH  12  15
ATOM     15  C   UNL     1       1.455   6.665  20.516  0.00  0.00    +0.000 A 
ATOM     16  C   UNL     1       0.740   7.463  21.419  0.00  0.00    +0.000 A 
ATOM     17  C   UNL     1       0.557   8.825  21.166  0.00  0.00    +0.000 A 
ATOM     18  C   UNL     1       1.086   9.413  20.012  0.00  0.00    +0.000 A 
ATOM     19  C   UNL     1       0.863  10.868  19.723  0.00  0.00    +0.000 C 
ATOM     20  C   UNL     1       1.832   8.621  19.128  0.00  0.00    +0.000 A 
ATOM     21  C   UNL     1       2.020   7.256  19.380  0.00  0.00    +0.000 A 
ENDBRANCH  12  15
ENDBRANCH  10  11
ENDBRANCH   6   9
BRANCH   3  22
ATOM     22  N   UNL     1       6.084   5.066  16.543  0.00  0.00    +0.000 N 
BRANCH  22  23
ATOM     23  C   UNL     1       7.116   4.507  15.641  0.00  0.00    +0.000 C 
BRANCH  23  24
ATOM     24  C   UNL     1       6.713   4.484  14.163  0.00  0.00    +0.000 C 
BRANCH  24  25
ATOM     25  C   UNL     1       7.632   5.265  13.332  0.00  0.00    +0.000 C 
ATOM     26  N   UNL     1       8.342   5.888  12.656  0.00  0.00    +0.000 NA
ENDBRANCH  24  25
ENDBRANCH  23  24
ENDBRANCH  22  23
BRANCH  22  27
ATOM     27  C   UNL     1       6.267   6.454  17.020  0.00  0.00    +0.000 C 
BRANCH  27  28
ATOM     28  C   UNL     1       7.574   6.658  17.789  0.00  0.00    +0.000 C 
BRANCH  28  29
ATOM     29  C   UNL     1       7.900   8.141  17.842  0.00  0.00    +0.000 C 
ATOM     30  N   UNL     1       8.170   9.372  17.886  0.00  0.00    +0.000 NA
ENDBRANCH  28  29
ENDBRANCH  27  28
ENDBRANCH  22  27
ENDBRANCH   3  22
TORSDOF 11
ENDMDL
MODEL 7
REMARK VINA RESULT:      -7.0      3.815      6.464
REMARK  Name = 
REMARK  13 active torsions:
REMARK  status: ('A' for Active; 'I' for Inactive)
REMARK    1  A    between atoms: C_1  and  O_2
REMARK    2  A    between atoms: O_2  and  C_3
REMARK    3  A    between atoms: C_5  and  N_6
REMARK    4  A    between atoms: N_6  and  C_7
REMARK    5  A    between atoms: N_6  and  C_11
REMARK    6  A    between atoms: C_7  and  C_8
REMARK    7  A    between atoms: C_8  and  C_9
REMARK    8  A    between atoms: C_11  and  C_12
REMARK    9  A    between atoms: C_12  and  C_13
REMARK   10  A    between atoms: C_17  and  C_18
REMARK   11  A    between atoms: N_19  and  N_20
REMARK   12  A    between atoms: C_21  and  C_23
REMARK   13  A    between atoms: C_26  and  C_27
REMARK                            x       y       z     vdW  Elec       q    Type
REMARK                         _______ _______ _______ _____ _____    ______ ____
ROOT
ATOM      1  C   UNL     1       1.279   9.919  20.284  0.00  0.00    +0.000 A 
ATOM      2  C   UNL     1       1.423   8.524  20.297  0.00  0.00    +0.000 A 
ATOM      3  C   UNL     1       1.825   7.799  19.170  0.00  0.00    +0.000 A 
ATOM      4  C   UNL     1       1.934   8.505  17.967  0.00  0.00    +0.000 A 
ATOM      5  C   UNL     1       1.789   9.900  17.929  0.00  0.00    +0.000 A 
ATOM      6  C   UNL     1       1.547  10.624  19.105  0.00  0.00    +0.000 A 
ENDROOT
BRANCH   1   8
ATOM      7  C   UNL     1      -0.253  10.271  22.071  0.00  0.00    +0.000 C 
ATOM      8  O   UNL     1       0.956  10.632  21.408  0.00  0.00    +0.000 OA
ENDBRANCH   1   8
BRANCH   6   9
ATOM      9  C   UNL     1       1.580  12.107  18.983  0.00  0.00    +0.000 C 
ATOM     10  N   UNL     1       0.631  12.984  18.814  0.00  0.00    +0.000 NA
BRANCH  10  11
ATOM     11  N   UNL     1      -0.662  12.575  18.701  0.00  0.00    +0.000 N 
ATOM     12  C   UNL     1      -1.585  12.809  19.712  0.00  0.00    +0.000 C 
ATOM     13  O   UNL     1      -1.354  13.363  20.787  0.00  0.00    +0.000 OA
ATOM     14  H   UNL     1      -1.000  12.327  17.778  0.00  0.00    +0.000 HD
BRANCH  12  15
ATOM     15  C   UNL     1      -2.976  12.357  19.408  0.00  0.00    +0.000 A 
ATOM     16  C   UNL     1      -4.057  12.735  20.216  0.00  0.00    +0.000 A 
ATOM     17  C   UNL     1      -5.348  12.285  19.926  0.00  0.00    +0.000 A 
ATOM     18  C   UNL     1      -5.581  11.453  18.826  0.00  0.00    +0.000 A 
ATOM     19  C   UNL     1      -6.961  10.941  18.531  0.00  0.00    +0.000 C 
ATOM     20  C   UNL     1      -4.505  11.104  17.998  0.00  0.00    +0.000 A 
ATOM     21  C   UNL     1      -3.210  11.557  18.284  0.00  0.00    +0.000 A 
ENDBRANCH  12  15
ENDBRANCH  10  11
ENDBRANCH   6   9
BRANCH   3  22
ATOM     22  N   UNL     1       2.174   6.462  19.304  0.00  0.00    +0.000 N 
BRANCH  22  23
ATOM     23  C   UNL     1       2.041   5.768  20.605  0.00  0.00    +0.000 C 
BRANCH  23  24
ATOM     24  C   UNL     1       1.357   4.400  20.521  0.00  0.00    +0.000 C 
BRANCH  24  25
ATOM     25  C   UNL     1       2.034   3.397  21.346  0.00  0.00    +0.000 C 
ATOM     26  N   UNL     1       2.567   2.584  21.981  0.00  0.00    +0.000 NA
ENDBRANCH  24  25
ENDBRANCH  23  24
ENDBRANCH  22  23
BRANCH  22  27
ATOM     27  C   UNL     1       2.983   5.805  18.254  0.00  0.00    +0.000 C 
BRANCH  27  28
ATOM     28  C   UNL     1       4.479   5.779  18.578  0.00  0.00    +0.000 C 
BRANCH  28  29
ATOM     29  C   UNL     1       4.856   4.401  19.099  0.00  0.00    +0.000 C 
ATOM     30  N   UNL     1       5.167   3.259  19.531  0.00  0.00    +0.000 NA
ENDBRANCH  28  29
ENDBRANCH  27  28
ENDBRANCH  22  27
ENDBRANCH   3  22
TORSDOF 11
ENDMDL
MODEL 8
REMARK VINA RESULT:      -7.0      3.231      5.235
REMARK  Name = 
REMARK  13 active torsions:
REMARK  status: ('A' for Active; 'I' for Inactive)
REMARK    1  A    between atoms: C_1  and  O_2
REMARK    2  A    between atoms: O_2  and  C_3
REMARK    3  A    between atoms: C_5  and  N_6
REMARK    4  A    between atoms: N_6  and  C_7
REMARK    5  A    between atoms: N_6  and  C_11
REMARK    6  A    between atoms: C_7  and  C_8
REMARK    7  A    between atoms: C_8  and  C_9
REMARK    8  A    between atoms: C_11  and  C_12
REMARK    9  A    between atoms: C_12  and  C_13
REMARK   10  A    between atoms: C_17  and  C_18
REMARK   11  A    between atoms: N_19  and  N_20
REMARK   12  A    between atoms: C_21  and  C_23
REMARK   13  A    between atoms: C_26  and  C_27
REMARK                            x       y       z     vdW  Elec       q    Type
REMARK                         _______ _______ _______ _____ _____    ______ ____
ROOT
ATOM      1  C   UNL     1       1.987   8.428  19.436  0.00  0.00    +0.000 A 
ATOM      2  C   UNL     1       2.474   7.353  18.677  0.00  0.00    +0.000 A 
ATOM      3  C   UNL     1       2.424   6.030  19.128  0.00  0.00    +0.000 A 
ATOM      4  C   UNL     1       2.005   5.824  20.447  0.00  0.00    +0.000 A 
ATOM      5  C   UNL     1       1.520   6.885  21.228  0.00  0.00    +0.000 A 
ATOM      6  C   UNL     1       1.427   8.178  20.694  0.00  0.00    +0.000 A 
ENDROOT
BRANCH   1   8
ATOM      7  C   UNL     1       2.010   9.871  17.544  0.00  0.00    +0.000 C 
ATOM      8  O   UNL     1       1.972   9.712  18.961  0.00  0.00    +0.000 OA
ENDBRANCH   1   8
BRANCH   6   9
ATOM      9  C   UNL     1       0.743   9.192  21.542  0.00  0.00    +0.000 C 
ATOM     10  N   UNL     1      -0.286   9.959  21.316  0.00  0.00    +0.000 NA
BRANCH  10  11
ATOM     11  N   UNL     1      -0.915   9.916  20.110  0.00  0.00    +0.000 N 
ATOM     12  C   UNL     1      -1.629  11.006  19.629  0.00  0.00    +0.000 C 
ATOM     13  O   UNL     1      -1.792  12.077  20.212  0.00  0.00    +0.000 OA
ATOM     14  H   UNL     1      -0.648   9.182  19.465  0.00  0.00    +0.000 HD
BRANCH  12  15
ATOM     15  C   UNL     1      -2.205  10.824  18.262  0.00  0.00    +0.000 A 
ATOM     16  C   UNL     1      -3.342  11.531  17.851  0.00  0.00    +0.000 A 
ATOM     17  C   UNL     1      -3.877  11.331  16.576  0.00  0.00    +0.000 A 
ATOM     18  C   UNL     1      -3.285  10.425  15.690  0.00  0.00    +0.000 A 
ATOM     19  C   UNL     1      -3.876  10.183  14.332  0.00  0.00    +0.000 C 
ATOM     20  C   UNL     1      -2.126   9.744  16.088  0.00  0.00    +0.000 A 
ATOM     21  C   UNL     1      -1.585   9.946  17.365  0.00  0.00    +0.000 A 
ENDBRANCH  12  15
ENDBRANCH  10  11
ENDBRANCH   6   9
BRANCH   3  22
ATOM     22  N   UNL     1       2.701   4.994  18.246  0.00  0.00    +0.000 N 
BRANCH  22  23
ATOM     23  C   UNL     1       3.943   4.995  17.439  0.00  0.00    +0.000 C 
BRANCH  23  24
ATOM     24  C   UNL     1       5.123   4.276  18.101  0.00  0.00    +0.000 C 
BRANCH  24  25
ATOM     25  C   UNL     1       6.380   4.517  17.388  0.00  0.00    +0.000 C 
ATOM     26  N   UNL     1       7.390   4.701  16.845  0.00  0.00    +0.000 NA
ENDBRANCH  24  25
ENDBRANCH  23  24
ENDBRANCH  22  23
BRANCH  22  27
ATOM     27  C   UNL     1       1.628   4.055  17.856  0.00  0.00    +0.000 C 
BRANCH  27  28
ATOM     28  C   UNL     1       1.926   2.605  18.247  0.00  0.00    +0.000 C 
BRANCH  28  29
ATOM     29  C   UNL     1       1.707   2.434  19.741  0.00  0.00    +0.000 C 
ATOM     30  N   UNL     1       1.525   2.291  20.980  0.00  0.00    +0.000 NA
ENDBRANCH  28  29
ENDBRANCH  27  28
ENDBRANCH  22  27
ENDBRANCH   3  22
TORSDOF 11
ENDMDL
MODEL 9
REMARK VINA RESULT:      -7.0      3.610      5.605
REMARK  Name = 
REMARK  13 active torsions:
REMARK  status: ('A' for Active; 'I' for Inactive)
REMARK    1  A    between atoms: C_1  and  O_2
REMARK    2  A    between atoms: O_2  and  C_3
REMARK    3  A    between atoms: C_5  and  N_6
REMARK    4  A    between atoms: N_6  and  C_7
REMARK    5  A    between atoms: N_6  and  C_11
REMARK    6  A    between atoms: C_7  and  C_8
REMARK    7  A    between atoms: C_8  and  C_9
REMARK    8  A    between atoms: C_11  and  C_12
REMARK    9  A    between atoms: C_12  and  C_13
REMARK   10  A    between atoms: C_17  and  C_18
REMARK   11  A    between atoms: N_19  and  N_20
REMARK   12  A    between atoms: C_21  and  C_23
REMARK   13  A    between atoms: C_26  and  C_27
REMARK                            x       y       z     vdW  Elec       q    Type
REMARK                         _______ _______ _______ _____ _____    ______ ____
ROOT
ATOM      1  C   UNL     1       1.712   8.711  18.713  0.00  0.00    +0.000 A 
ATOM      2  C   UNL     1       2.272   7.617  18.037  0.00  0.00    +0.000 A 
ATOM      3  C   UNL     1       2.546   6.401  18.673  0.00  0.00    +0.000 A 
ATOM      4  C   UNL     1       2.382   6.358  20.061  0.00  0.00    +0.000 A 
ATOM      5  C   UNL     1       1.828   7.443  20.759  0.00  0.00    +0.000 A 
ATOM      6  C   UNL     1       1.409   8.592  20.074  0.00  0.00    +0.000 A 
ENDROOT
BRANCH   1   8
ATOM      7  C   UNL     1       2.391  10.874  17.991  0.00  0.00    +0.000 C 
ATOM      8  O   UNL     1       1.378   9.874  18.072  0.00  0.00    +0.000 OA
ENDBRANCH   1   8
BRANCH   6   9
ATOM      9  C   UNL     1       0.681   9.610  20.881  0.00  0.00    +0.000 C 
ATOM     10  N   UNL     1      -0.401  10.295  20.641  0.00  0.00    +0.000 NA
BRANCH  10  11
ATOM     11  N   UNL     1      -1.056  10.139  19.458  0.00  0.00    +0.000 N 
ATOM     12  C   UNL     1      -1.941  11.101  18.991  0.00  0.00    +0.000 C 
ATOM     13  O   UNL     1      -2.245  12.145  19.568  0.00  0.00    +0.000 OA
ATOM     14  H   UNL     1      -0.704   9.443  18.812  0.00  0.00    +0.000 HD
BRANCH  12  15
ATOM     15  C   UNL     1      -2.529  10.813  17.647  0.00  0.00    +0.000 A 
ATOM     16  C   UNL     1      -1.942   9.882  16.780  0.00  0.00    +0.000 A 
ATOM     17  C   UNL     1      -2.496   9.643  15.520  0.00  0.00    +0.000 A 
ATOM     18  C   UNL     1      -3.644  10.325  15.106  0.00  0.00    +0.000 A 
ATOM     19  C   UNL     1      -4.222  10.094  13.740  0.00  0.00    +0.000 C 
ATOM     20  C   UNL     1      -4.252  11.229  15.988  0.00  0.00    +0.000 A 
ATOM     21  C   UNL     1      -3.701  11.469  17.254  0.00  0.00    +0.000 A 
ENDBRANCH  12  15
ENDBRANCH  10  11
ENDBRANCH   6   9
BRANCH   3  22
ATOM     22  N   UNL     1       2.878   5.289  17.910  0.00  0.00    +0.000 N 
BRANCH  22  23
ATOM     23  C   UNL     1       1.868   4.253  17.595  0.00  0.00    +0.000 C 
BRANCH  23  24
ATOM     24  C   UNL     1       1.306   3.530  18.824  0.00  0.00    +0.000 C 
BRANCH  24  25
ATOM     25  C   UNL     1       2.351   2.828  19.571  0.00  0.00    +0.000 C 
ATOM     26  N   UNL     1       3.163   2.252  20.169  0.00  0.00    +0.000 NA
ENDBRANCH  24  25
ENDBRANCH  23  24
ENDBRANCH  22  23
BRANCH  22  27
ATOM     27  C   UNL     1       4.300   4.955  17.680  0.00  0.00    +0.000 C 
BRANCH  27  28
ATOM     28  C   UNL     1       5.246   6.125  17.962  0.00  0.00    +0.000 C 
BRANCH  28  29
ATOM     29  C   UNL     1       6.292   5.691  18.976  0.00  0.00    +0.000 C 
ATOM     30  N   UNL     1       7.160   5.333  19.817  0.00  0.00    +0.000 NA
ENDBRANCH  28  29
ENDBRANCH  27  28
ENDBRANCH  22  27
ENDBRANCH   3  22
TORSDOF 11
ENDMDL
