MODEL 1
REMARK VINA RESULT:      -8.8      0.000      0.000
REMARK  Name = 
REMARK  5 active torsions:
REMARK  status: ('A' for Active; 'I' for Inactive)
REMARK    1  A    between atoms: C_10  and  C_11
REMARK    2  A    between atoms: C_12  and  C_13
REMARK    3  A    between atoms: C_16  and  O_17
REMARK    4  A    between atoms: N_20  and  C_21
REMARK    5  A    between atoms: C_26  and  O_27
REMARK                            x       y       z     vdW  Elec       q    Type
REMARK                         _______ _______ _______ _____ _____    ______ ____
ROOT
ATOM      1  O   UNL     1       4.349   2.667  17.994  0.00  0.00    +0.000 OA
ATOM      2  C   UNL     1       4.252   3.867  17.741  0.00  0.00    +0.000 A 
ATOM      3  C   UNL     1       5.033   4.390  16.612  0.00  0.00    +0.000 A 
ATOM      4  C   UNL     1       5.818   3.538  15.823  0.00  0.00    +0.000 A 
ATOM      5  C   UNL     1       6.541   4.060  14.752  0.00  0.00    +0.000 A 
ATOM      6  C   UNL     1       6.489   5.428  14.487  0.00  0.00    +0.000 A 
ATOM      7  C   UNL     1       5.700   6.266  15.281  0.00  0.00    +0.000 A 
ATOM      8  C   UNL     1       4.951   5.748  16.340  0.00  0.00    +0.000 A 
ATOM      9  N   UNL     1       4.136   6.611  17.077  0.00  0.00    +0.000 NA
ATOM     10  C   UNL     1       3.403   6.126  18.037  0.00  0.00    +0.000 A 
ATOM     11  N   UNL     1       3.433   4.785  18.417  0.00  0.00    +0.000 N 
ENDROOT
BRANCH  11  12
ATOM     12  C   UNL     1       2.564   4.220  19.401  0.00  0.00    +0.000 A 
ATOM     13  C   UNL     1       2.992   4.144  20.736  0.00  0.00    +0.000 A 
ATOM     14  C   UNL     1       2.238   3.460  21.689  0.00  0.00    +0.000 A 
ATOM     15  C   UNL     1       1.052   2.832  21.317  0.00  0.00    +0.000 A 
ATOM     16  C   UNL     1       0.607   2.903  19.995  0.00  0.00    +0.000 A 
ATOM     17  C   UNL     1       1.358   3.596  19.044  0.00  0.00    +0.000 A 
BRANCH  17  18
ATOM     18  O   UNL     1       0.956   3.600  17.736  0.00  0.00    +0.000 OA
ATOM     19  H   UNL     1       0.778   4.514  17.460  0.00  0.00    +0.000 HD
ENDBRANCH  17  18
ENDBRANCH  11  12
BRANCH  10  20
ATOM     20  C   UNL     1       2.576   7.088  18.843  0.00  0.00    +0.000 C 
ATOM     21  C   UNL     1       1.991   8.133  18.232  0.00  0.00    +0.000 C 
BRANCH  21  22
ATOM     22  C   UNL     1       1.169   9.155  18.900  0.00  0.00    +0.000 A 
ATOM     23  C   UNL     1       0.356  10.051  18.192  0.00  0.00    +0.000 A 
ATOM     24  C   UNL     1      -0.414  11.007  18.866  0.00  0.00    +0.000 A 
ATOM     25  C   UNL     1      -0.380  11.059  20.255  0.00  0.00    +0.000 A 
ATOM     26  C   UNL     1       0.379  10.149  20.979  0.00  0.00    +0.000 A 
ATOM     27  C   UNL     1       1.148   9.198  20.303  0.00  0.00    +0.000 A 
BRANCH  25  28
ATOM     28  O   UNL     1      -1.080  12.000  20.949  0.00  0.00    +0.000 OA
ATOM     29  H   UNL     1      -0.563  12.254  21.730  0.00  0.00    +0.000 HD
ENDBRANCH  25  28
ENDBRANCH  21  22
ENDBRANCH  10  20
TORSDOF 5
ENDMDL
MODEL 2
REMARK VINA RESULT:      -8.7      1.102      1.577
REMARK  Name = 
REMARK  5 active torsions:
REMARK  status: ('A' for Active; 'I' for Inactive)
REMARK    1  A    between atoms: C_10  and  C_11
REMARK    2  A    between atoms: C_12  and  C_13
REMARK    3  A    between atoms: C_16  and  O_17
REMARK    4  A    between atoms: N_20  and  C_21
REMARK    5  A    between atoms: C_26  and  O_27
REMARK                            x       y       z     vdW  Elec       q    Type
REMARK                         _______ _______ _______ _____ _____    ______ ____
ROOT
ATOM      1  O   UNL     1       4.236   2.206  17.504  0.00  0.00    +0.000 OA
ATOM      2  C   UNL     1       4.269   3.435  17.457  0.00  0.00    +0.000 A 
ATOM      3  C   UNL     1       4.986   4.054  16.333  0.00  0.00    +0.000 A 
ATOM      4  C   UNL     1       5.563   3.268  15.326  0.00  0.00    +0.000 A 
ATOM      5  C   UNL     1       6.228   3.882  14.267  0.00  0.00    +0.000 A 
ATOM      6  C   UNL     1       6.326   5.272  14.229  0.00  0.00    +0.000 A 
ATOM      7  C   UNL     1       5.743   6.044  15.238  0.00  0.00    +0.000 A 
ATOM      8  C   UNL     1       5.052   5.439  16.291  0.00  0.00    +0.000 A 
ATOM      9  N   UNL     1       4.441   6.248  17.252  0.00  0.00    +0.000 NA
ATOM     10  C   UNL     1       3.759   5.690  18.211  0.00  0.00    +0.000 A 
ATOM     11  N   UNL     1       3.656   4.309  18.368  0.00  0.00    +0.000 N 
ENDROOT
BRANCH  11  12
ATOM     12  C   UNL     1       2.831   3.683  19.354  0.00  0.00    +0.000 A 
ATOM     13  C   UNL     1       1.448   3.929  19.351  0.00  0.00    +0.000 A 
ATOM     14  C   UNL     1       0.639   3.463  20.387  0.00  0.00    +0.000 A 
ATOM     15  C   UNL     1       1.204   2.758  21.446  0.00  0.00    +0.000 A 
ATOM     16  C   UNL     1       2.576   2.499  21.463  0.00  0.00    +0.000 A 
ATOM     17  C   UNL     1       3.383   2.957  20.420  0.00  0.00    +0.000 A 
BRANCH  17  18
ATOM     18  O   UNL     1       4.737   2.765  20.478  0.00  0.00    +0.000 OA
ATOM     19  H   UNL     1       5.128   2.995  19.619  0.00  0.00    +0.000 HD
ENDBRANCH  17  18
ENDBRANCH  11  12
BRANCH  10  20
ATOM     20  C   UNL     1       3.158   6.585  19.257  0.00  0.00    +0.000 C 
ATOM     21  C   UNL     1       2.275   7.532  18.891  0.00  0.00    +0.000 C 
BRANCH  21  22
ATOM     22  C   UNL     1       1.622   8.481  19.807  0.00  0.00    +0.000 A 
ATOM     23  C   UNL     1       1.108   9.713  19.376  0.00  0.00    +0.000 A 
ATOM     24  C   UNL     1       0.491  10.587  20.279  0.00  0.00    +0.000 A 
ATOM     25  C   UNL     1       0.377  10.224  21.616  0.00  0.00    +0.000 A 
ATOM     26  C   UNL     1       0.833   8.988  22.055  0.00  0.00    +0.000 A 
ATOM     27  C   UNL     1       1.451   8.118  21.152  0.00  0.00    +0.000 A 
BRANCH  25  28
ATOM     28  O   UNL     1      -0.179  11.061  22.537  0.00  0.00    +0.000 OA
ATOM     29  H   UNL     1      -1.144  10.965  22.497  0.00  0.00    +0.000 HD
ENDBRANCH  25  28
ENDBRANCH  21  22
ENDBRANCH  10  20
TORSDOF 5
ENDMDL
MODEL 3
REMARK VINA RESULT:      -8.5      0.584      1.084
REMARK  Name = 
REMARK  5 active torsions:
REMARK  status: ('A' for Active; 'I' for Inactive)
REMARK    1  A    between atoms: C_10  and  C_11
REMARK    2  A    between atoms: C_12  and  C_13
REMARK    3  A    between atoms: C_16  and  O_17
REMARK    4  A    between atoms: N_20  and  C_21
REMARK    5  A    between atoms: C_26  and  O_27
REMARK                            x       y       z     vdW  Elec       q    Type
REMARK                         _______ _______ _______ _____ _____    ______ ____
ROOT
ATOM      1  O   UNL     1       4.094   2.446  17.639  0.00  0.00    +0.000 OA
ATOM      2  C   UNL     1       4.194   3.668  17.529  0.00  0.00    +0.000 A 
ATOM      3  C   UNL     1       4.992   4.187  16.409  0.00  0.00    +0.000 A 
ATOM      4  C   UNL     1       5.571   3.319  15.474  0.00  0.00    +0.000 A 
ATOM      5  C   UNL     1       6.315   3.839  14.417  0.00  0.00    +0.000 A 
ATOM      6  C   UNL     1       6.488   5.218  14.310  0.00  0.00    +0.000 A 
ATOM      7  C   UNL     1       5.902   6.073  15.248  0.00  0.00    +0.000 A 
ATOM      8  C   UNL     1       5.133   5.563  16.297  0.00  0.00    +0.000 A 
ATOM      9  N   UNL     1       4.523   6.453  17.184  0.00  0.00    +0.000 NA
ATOM     10  C   UNL     1       3.771   5.984  18.137  0.00  0.00    +0.000 A 
ATOM     11  N   UNL     1       3.587   4.620  18.362  0.00  0.00    +0.000 N 
ENDROOT
BRANCH  11  12
ATOM     12  C   UNL     1       2.687   4.092  19.339  0.00  0.00    +0.000 A 
ATOM     13  C   UNL     1       3.124   3.938  20.665  0.00  0.00    +0.000 A 
ATOM     14  C   UNL     1       2.329   3.284  21.606  0.00  0.00    +0.000 A 
ATOM     15  C   UNL     1       1.093   2.765  21.231  0.00  0.00    +0.000 A 
ATOM     16  C   UNL     1       0.639   2.915  19.919  0.00  0.00    +0.000 A 
ATOM     17  C   UNL     1       1.432   3.578  18.980  0.00  0.00    +0.000 A 
BRANCH  17  18
ATOM     18  O   UNL     1       1.016   3.658  17.679  0.00  0.00    +0.000 OA
ATOM     19  H   UNL     1       0.725   2.780  17.384  0.00  0.00    +0.000 HD
ENDBRANCH  17  18
ENDBRANCH  11  12
BRANCH  10  20
ATOM     20  C   UNL     1       3.171   6.964  19.104  0.00  0.00    +0.000 C 
ATOM     21  C   UNL     1       2.121   7.714  18.723  0.00  0.00    +0.000 C 
BRANCH  21  22
ATOM     22  C   UNL     1       1.448   8.719  19.562  0.00  0.00    +0.000 A 
ATOM     23  C   UNL     1       1.210   8.523  20.930  0.00  0.00    +0.000 A 
ATOM     24  C   UNL     1       0.568   9.506  21.693  0.00  0.00    +0.000 A 
ATOM     25  C   UNL     1       0.175  10.695  21.090  0.00  0.00    +0.000 A 
ATOM     26  C   UNL     1       0.445  10.931  19.749  0.00  0.00    +0.000 A 
ATOM     27  C   UNL     1       1.084   9.947  18.988  0.00  0.00    +0.000 A 
BRANCH  25  28
ATOM     28  O   UNL     1      -0.489  11.661  21.786  0.00  0.00    +0.000 OA
ATOM     29  H   UNL     1      -1.368  11.774  21.391  0.00  0.00    +0.000 HD
ENDBRANCH  25  28
ENDBRANCH  21  22
ENDBRANCH  10  20
TORSDOF 5
ENDMDL
MODEL 4
REMARK VINA RESULT:      -7.9      4.217      6.144
REMARK  Name = 
REMARK  5 active torsions:
REMARK  status: ('A' for Active; 'I' for Inactive)
REMARK    1  A    between atoms: C_10  and  C_11
REMARK    2  A    between atoms: C_12  and  C_13
REMARK    3  A    between atoms: C_16  and  O_17
REMARK    4  A    between atoms: N_20  and  C_21
REMARK    5  A    between atoms: C_26  and  O_27
REMARK                            x       y       z     vdW  Elec       q    Type
REMARK                         _______ _______ _______ _____ _____    ______ ____
ROOT
ATOM      1  O   UNL     1       8.171   5.870  14.386  0.00  0.00    +0.000 OA
ATOM      2  C   UNL     1       7.138   5.215  14.526  0.00  0.00    +0.000 A 
ATOM      3  C   UNL     1       6.701   4.384  13.396  0.00  0.00    +0.000 A 
ATOM      4  C   UNL     1       7.465   4.302  12.224  0.00  0.00    +0.000 A 
ATOM      5  C   UNL     1       7.032   3.498  11.172  0.00  0.00    +0.000 A 
ATOM      6  C   UNL     1       5.834   2.795  11.291  0.00  0.00    +0.000 A 
ATOM      7  C   UNL     1       5.083   2.883  12.467  0.00  0.00    +0.000 A 
ATOM      8  C   UNL     1       5.522   3.667  13.537  0.00  0.00    +0.000 A 
ATOM      9  N   UNL     1       4.768   3.688  14.713  0.00  0.00    +0.000 NA
ATOM     10  C   UNL     1       5.196   4.381  15.728  0.00  0.00    +0.000 A 
ATOM     11  N   UNL     1       6.349   5.165  15.685  0.00  0.00    +0.000 N 
ENDROOT
BRANCH  11  12
ATOM     12  C   UNL     1       6.883   5.851  16.819  0.00  0.00    +0.000 A 
ATOM     13  C   UNL     1       6.899   7.255  16.829  0.00  0.00    +0.000 A 
ATOM     14  C   UNL     1       7.553   7.954  17.845  0.00  0.00    +0.000 A 
ATOM     15  C   UNL     1       8.209   7.257  18.856  0.00  0.00    +0.000 A 
ATOM     16  C   UNL     1       8.198   5.860  18.866  0.00  0.00    +0.000 A 
ATOM     17  C   UNL     1       7.535   5.163  17.854  0.00  0.00    +0.000 A 
BRANCH  17  18
ATOM     18  O   UNL     1       7.590   3.796  17.827  0.00  0.00    +0.000 OA
ATOM     19  H   UNL     1       8.493   3.509  18.039  0.00  0.00    +0.000 HD
ENDBRANCH  17  18
ENDBRANCH  11  12
BRANCH  10  20
ATOM     20  C   UNL     1       4.337   4.425  16.960  0.00  0.00    +0.000 C 
ATOM     21  C   UNL     1       4.038   3.280  17.600  0.00  0.00    +0.000 C 
BRANCH  21  22
ATOM     22  C   UNL     1       3.199   3.177  18.805  0.00  0.00    +0.000 A 
ATOM     23  C   UNL     1       1.853   3.570  18.824  0.00  0.00    +0.000 A 
ATOM     24  C   UNL     1       1.089   3.452  19.991  0.00  0.00    +0.000 A 
ATOM     25  C   UNL     1       1.668   2.928  21.141  0.00  0.00    +0.000 A 
ATOM     26  C   UNL     1       2.984   2.485  21.131  0.00  0.00    +0.000 A 
ATOM     27  C   UNL     1       3.746   2.606  19.965  0.00  0.00    +0.000 A 
BRANCH  25  28
ATOM     28  O   UNL     1       0.973   2.834  22.309  0.00  0.00    +0.000 OA
ATOM     29  H   UNL     1       0.065   3.140  22.151  0.00  0.00    +0.000 HD
ENDBRANCH  25  28
ENDBRANCH  21  22
ENDBRANCH  10  20
TORSDOF 5
ENDMDL
MODEL 5
REMARK VINA RESULT:      -7.7      0.827      1.326
REMARK  Name = 
REMARK  5 active torsions:
REMARK  status: ('A' for Active; 'I' for Inactive)
REMARK    1  A    between atoms: C_10  and  C_11
REMARK    2  A    between atoms: C_12  and  C_13
REMARK    3  A    between atoms: C_16  and  O_17
REMARK    4  A    between atoms: N_20  and  C_21
REMARK    5  A    between atoms: C_26  and  O_27
REMARK                            x       y       z     vdW  Elec       q    Type
REMARK                         _______ _______ _______ _____ _____    ______ ____
ROOT
ATOM      1  O   UNL     1       4.450   2.487  17.502  0.00  0.00    +0.000 OA
ATOM      2  C   UNL     1       4.363   3.704  17.337  0.00  0.00    +0.000 A 
ATOM      3  C   UNL     1       5.193   4.310  16.287  0.00  0.00    +0.000 A 
ATOM      4  C   UNL     1       6.012   3.519  15.470  0.00  0.00    +0.000 A 
ATOM      5  C   UNL     1       6.780   4.119  14.475  0.00  0.00    +0.000 A 
ATOM      6  C   UNL     1       6.739   5.503  14.314  0.00  0.00    +0.000 A 
ATOM      7  C   UNL     1       5.916   6.280  15.134  0.00  0.00    +0.000 A 
ATOM      8  C   UNL     1       5.122   5.685  16.117  0.00  0.00    +0.000 A 
ATOM      9  N   UNL     1       4.275   6.491  16.883  0.00  0.00    +0.000 NA
ATOM     10  C   UNL     1       3.501   5.936  17.770  0.00  0.00    +0.000 A 
ATOM     11  N   UNL     1       3.516   4.569  18.046  0.00  0.00    +0.000 N 
ENDROOT
BRANCH  11  12
ATOM     12  C   UNL     1       2.604   3.933  18.944  0.00  0.00    +0.000 A 
ATOM     13  C   UNL     1       1.416   3.379  18.441  0.00  0.00    +0.000 A 
ATOM     14  C   UNL     1       0.434   2.892  19.305  0.00  0.00    +0.000 A 
ATOM     15  C   UNL     1       0.623   2.964  20.682  0.00  0.00    +0.000 A 
ATOM     16  C   UNL     1       1.802   3.505  21.200  0.00  0.00    +0.000 A 
ATOM     17  C   UNL     1       2.787   3.984  20.334  0.00  0.00    +0.000 A 
BRANCH  17  18
ATOM     18  O   UNL     1       3.907   4.580  20.848  0.00  0.00    +0.000 OA
ATOM     19  H   UNL     1       3.839   4.605  21.816  0.00  0.00    +0.000 HD
ENDBRANCH  17  18
ENDBRANCH  11  12
BRANCH  10  20
ATOM     20  C   UNL     1       2.640   6.835  18.611  0.00  0.00    +0.000 C 
ATOM     21  C   UNL     1       2.228   8.015  18.112  0.00  0.00    +0.000 C 
BRANCH  21  22
ATOM     22  C   UNL     1       1.397   8.995  18.829  0.00  0.00    +0.000 A 
ATOM     23  C   UNL     1       0.653   9.982  18.167  0.00  0.00    +0.000 A 
ATOM     24  C   UNL     1      -0.129  10.894  18.886  0.00  0.00    +0.000 A 
ATOM     25  C   UNL     1      -0.178  10.810  20.273  0.00  0.00    +0.000 A 
ATOM     26  C   UNL     1       0.509   9.810  20.947  0.00  0.00    +0.000 A 
ATOM     27  C   UNL     1       1.292   8.902  20.226  0.00  0.00    +0.000 A 
BRANCH  25  28
ATOM     28  O   UNL     1      -0.893  11.703  21.015  0.00  0.00    +0.000 OA
ATOM     29  H   UNL     1      -1.835  11.483  20.935  0.00  0.00    +0.000 HD
ENDBRANCH  25  28
ENDBRANCH  21  22
ENDBRANCH  10  20
TORSDOF 5
ENDMDL
MODEL 6
REMARK VINA RESULT:      -7.5      0.876      1.238
REMARK  Name = 
REMARK  5 active torsions:
REMARK  status: ('A' for Active; 'I' for Inactive)
REMARK    1  A    between atoms: C_10  and  C_11
REMARK    2  A    between atoms: C_12  and  C_13
REMARK    3  A    between atoms: C_16  and  O_17
REMARK    4  A    between atoms: N_20  and  C_21
REMARK    5  A    between atoms: C_26  and  O_27
REMARK                            x       y       z     vdW  Elec       q    Type
REMARK                         _______ _______ _______ _____ _____    ______ ____
ROOT
ATOM      1  O   UNL     1       4.922   3.169  18.908  0.00  0.00    +0.000 OA
ATOM      2  C   UNL     1       4.643   4.277  18.448  0.00  0.00    +0.000 A 
ATOM      3  C   UNL     1       5.558   4.852  17.454  0.00  0.00    +0.000 A 
ATOM      4  C   UNL     1       6.679   4.138  17.008  0.00  0.00    +0.000 A 
ATOM      5  C   UNL     1       7.525   4.704  16.057  0.00  0.00    +0.000 A 
ATOM      6  C   UNL     1       7.256   5.983  15.570  0.00  0.00    +0.000 A 
ATOM      7  C   UNL     1       6.133   6.683  16.021  0.00  0.00    +0.000 A 
ATOM      8  C   UNL     1       5.264   6.113  16.955  0.00  0.00    +0.000 A 
ATOM      9  N   UNL     1       4.126   6.825  17.342  0.00  0.00    +0.000 NA
ATOM     10  C   UNL     1       3.291   6.280  18.179  0.00  0.00    +0.000 A 
ATOM     11  N   UNL     1       3.505   5.034  18.767  0.00  0.00    +0.000 N 
ENDROOT
BRANCH  11  12
ATOM     12  C   UNL     1       2.552   4.381  19.610  0.00  0.00    +0.000 A 
ATOM     13  C   UNL     1       2.781   4.327  20.994  0.00  0.00    +0.000 A 
ATOM     14  C   UNL     1       1.956   3.567  21.824  0.00  0.00    +0.000 A 
ATOM     15  C   UNL     1       0.901   2.841  21.278  0.00  0.00    +0.000 A 
ATOM     16  C   UNL     1       0.655   2.888  19.904  0.00  0.00    +0.000 A 
ATOM     17  C   UNL     1       1.475   3.658  19.076  0.00  0.00    +0.000 A 
BRANCH  17  18
ATOM     18  O   UNL     1       1.275   3.642  17.722  0.00  0.00    +0.000 OA
ATOM     19  H   UNL     1       1.582   4.483  17.345  0.00  0.00    +0.000 HD
ENDBRANCH  17  18
ENDBRANCH  11  12
BRANCH  10  20
ATOM     20  C   UNL     1       2.104   7.092  18.615  0.00  0.00    +0.000 C 
ATOM     21  C   UNL     1       2.074   8.412  18.359  0.00  0.00    +0.000 C 
BRANCH  21  22
ATOM     22  C   UNL     1       0.984   9.325  18.739  0.00  0.00    +0.000 A 
ATOM     23  C   UNL     1       1.013  10.084  19.918  0.00  0.00    +0.000 A 
ATOM     24  C   UNL     1      -0.044  10.944  20.242  0.00  0.00    +0.000 A 
ATOM     25  C   UNL     1      -1.128  11.054  19.379  0.00  0.00    +0.000 A 
ATOM     26  C   UNL     1      -1.154  10.351  18.182  0.00  0.00    +0.000 A 
ATOM     27  C   UNL     1      -0.099   9.491  17.862  0.00  0.00    +0.000 A 
BRANCH  25  28
ATOM     28  O   UNL     1      -2.196  11.847  19.675  0.00  0.00    +0.000 OA
ATOM     29  H   UNL     1      -2.130  12.660  19.149  0.00  0.00    +0.000 HD
ENDBRANCH  25  28
ENDBRANCH  21  22
ENDBRANCH  10  20
TORSDOF 5
ENDMDL
MODEL 7
REMARK VINA RESULT:      -7.4      4.441      6.071
REMARK  Name = 
REMARK  5 active torsions:
REMARK  status: ('A' for Active; 'I' for Inactive)
REMARK    1  A    between atoms: C_10  and  C_11
REMARK    2  A    between atoms: C_12  and  C_13
REMARK    3  A    between atoms: C_16  and  O_17
REMARK    4  A    between atoms: N_20  and  C_21
REMARK    5  A    between atoms: C_26  and  O_27
REMARK                            x       y       z     vdW  Elec       q    Type
REMARK                         _______ _______ _______ _____ _____    ______ ____
ROOT
ATOM      1  O   UNL     1       8.253   5.527  14.416  0.00  0.00    +0.000 OA
ATOM      2  C   UNL     1       7.153   4.991  14.552  0.00  0.00    +0.000 A 
ATOM      3  C   UNL     1       6.568   4.331  13.378  0.00  0.00    +0.000 A 
ATOM      4  C   UNL     1       7.265   4.269  12.163  0.00  0.00    +0.000 A 
ATOM      5  C   UNL     1       6.690   3.628  11.069  0.00  0.00    +0.000 A 
ATOM      6  C   UNL     1       5.419   3.068  11.188  0.00  0.00    +0.000 A 
ATOM      7  C   UNL     1       4.736   3.133  12.406  0.00  0.00    +0.000 A 
ATOM      8  C   UNL     1       5.315   3.752  13.517  0.00  0.00    +0.000 A 
ATOM      9  N   UNL     1       4.620   3.752  14.729  0.00  0.00    +0.000 NA
ATOM     10  C   UNL     1       5.174   4.288  15.778  0.00  0.00    +0.000 A 
ATOM     11  N   UNL     1       6.413   4.927  15.743  0.00  0.00    +0.000 N 
ENDROOT
BRANCH  11  12
ATOM     12  C   UNL     1       7.077   5.432  16.904  0.00  0.00    +0.000 A 
ATOM     13  C   UNL     1       7.723   4.536  17.771  0.00  0.00    +0.000 A 
ATOM     14  C   UNL     1       8.244   4.973  18.989  0.00  0.00    +0.000 A 
ATOM     15  C   UNL     1       8.114   6.308  19.361  0.00  0.00    +0.000 A 
ATOM     16  C   UNL     1       7.481   7.215  18.508  0.00  0.00    +0.000 A 
ATOM     17  C   UNL     1       6.969   6.778  17.285  0.00  0.00    +0.000 A 
BRANCH  17  18
ATOM     18  O   UNL     1       6.284   7.653  16.486  0.00  0.00    +0.000 OA
ATOM     19  H   UNL     1       5.447   7.890  16.918  0.00  0.00    +0.000 HD
ENDBRANCH  17  18
ENDBRANCH  11  12
BRANCH  10  20
ATOM     20  C   UNL     1       4.380   4.318  17.053  0.00  0.00    +0.000 C 
ATOM     21  C   UNL     1       3.889   3.170  17.555  0.00  0.00    +0.000 C 
BRANCH  21  22
ATOM     22  C   UNL     1       3.087   3.057  18.783  0.00  0.00    +0.000 A 
ATOM     23  C   UNL     1       1.693   3.214  18.791  0.00  0.00    +0.000 A 
ATOM     24  C   UNL     1       0.965   3.096  19.981  0.00  0.00    +0.000 A 
ATOM     25  C   UNL     1       1.632   2.806  21.166  0.00  0.00    +0.000 A 
ATOM     26  C   UNL     1       3.004   2.596  21.173  0.00  0.00    +0.000 A 
ATOM     27  C   UNL     1       3.729   2.718  19.984  0.00  0.00    +0.000 A 
BRANCH  25  28
ATOM     28  O   UNL     1       0.968   2.723  22.354  0.00  0.00    +0.000 OA
ATOM     29  H   UNL     1       1.531   2.249  22.988  0.00  0.00    +0.000 HD
ENDBRANCH  25  28
ENDBRANCH  21  22
ENDBRANCH  10  20
TORSDOF 5
ENDMDL
MODEL 8
REMARK VINA RESULT:      -7.4      2.736      4.863
REMARK  Name = 
REMARK  5 active torsions:
REMARK  status: ('A' for Active; 'I' for Inactive)
REMARK    1  A    between atoms: C_10  and  C_11
REMARK    2  A    between atoms: C_12  and  C_13
REMARK    3  A    between atoms: C_16  and  O_17
REMARK    4  A    between atoms: N_20  and  C_21
REMARK    5  A    between atoms: C_26  and  O_27
REMARK                            x       y       z     vdW  Elec       q    Type
REMARK                         _______ _______ _______ _____ _____    ______ ____
ROOT
ATOM      1  O   UNL     1       8.304   5.655  14.687  0.00  0.00    +0.000 OA
ATOM      2  C   UNL     1       7.144   5.264  14.818  0.00  0.00    +0.000 A 
ATOM      3  C   UNL     1       6.578   4.440  13.742  0.00  0.00    +0.000 A 
ATOM      4  C   UNL     1       7.352   4.070  12.634  0.00  0.00    +0.000 A 
ATOM      5  C   UNL     1       6.792   3.280  11.633  0.00  0.00    +0.000 A 
ATOM      6  C   UNL     1       5.461   2.878  11.736  0.00  0.00    +0.000 A 
ATOM      7  C   UNL     1       4.700   3.252  12.848  0.00  0.00    +0.000 A 
ATOM      8  C   UNL     1       5.260   4.023  13.869  0.00  0.00    +0.000 A 
ATOM      9  N   UNL     1       4.482   4.332  14.987  0.00  0.00    +0.000 NA
ATOM     10  C   UNL     1       5.013   5.013  15.961  0.00  0.00    +0.000 A 
ATOM     11  N   UNL     1       6.315   5.511  15.923  0.00  0.00    +0.000 N 
ENDROOT
BRANCH  11  12
ATOM     12  C   UNL     1       6.943   6.173  17.023  0.00  0.00    +0.000 A 
ATOM     13  C   UNL     1       7.198   7.552  16.941  0.00  0.00    +0.000 A 
ATOM     14  C   UNL     1       7.947   8.198  17.926  0.00  0.00    +0.000 A 
ATOM     15  C   UNL     1       8.460   7.471  18.996  0.00  0.00    +0.000 A 
ATOM     16  C   UNL     1       8.211   6.101  19.097  0.00  0.00    +0.000 A 
ATOM     17  C   UNL     1       7.453   5.458  18.116  0.00  0.00    +0.000 A 
BRANCH  17  18
ATOM     18  O   UNL     1       7.274   4.102  18.181  0.00  0.00    +0.000 OA
ATOM     19  H   UNL     1       7.277   3.738  17.280  0.00  0.00    +0.000 HD
ENDBRANCH  17  18
ENDBRANCH  11  12
BRANCH  10  20
ATOM     20  C   UNL     1       4.134   5.374  17.126  0.00  0.00    +0.000 C 
ATOM     21  C   UNL     1       3.710   6.642  17.269  0.00  0.00    +0.000 C 
BRANCH  21  22
ATOM     22  C   UNL     1       2.860   7.134  18.365  0.00  0.00    +0.000 A 
ATOM     23  C   UNL     1       2.662   6.409  19.549  0.00  0.00    +0.000 A 
ATOM     24  C   UNL     1       1.848   6.913  20.570  0.00  0.00    +0.000 A 
ATOM     25  C   UNL     1       1.240   8.154  20.413  0.00  0.00    +0.000 A 
ATOM     26  C   UNL     1       1.463   8.911  19.272  0.00  0.00    +0.000 A 
ATOM     27  C   UNL     1       2.274   8.404  18.252  0.00  0.00    +0.000 A 
BRANCH  25  28
ATOM     28  O   UNL     1       0.407   8.664  21.364  0.00  0.00    +0.000 OA
ATOM     29  H   UNL     1       0.538   8.165  22.186  0.00  0.00    +0.000 HD
ENDBRANCH  25  28
ENDBRANCH  21  22
ENDBRANCH  10  20
TORSDOF 5
ENDMDL
MODEL 9
REMARK VINA RESULT:      -7.3      3.750      7.354
REMARK  Name = 
REMARK  5 active torsions:
REMARK  status: ('A' for Active; 'I' for Inactive)
REMARK    1  A    between atoms: C_10  and  C_11
REMARK    2  A    between atoms: C_12  and  C_13
REMARK    3  A    between atoms: C_16  and  O_17
REMARK    4  A    between atoms: N_20  and  C_21
REMARK    5  A    between atoms: C_26  and  O_27
REMARK                            x       y       z     vdW  Elec       q    Type
REMARK                         _______ _______ _______ _____ _____    ______ ____
ROOT
ATOM      1  O   UNL     1       1.870  10.121  17.488  0.00  0.00    +0.000 OA
ATOM      2  C   UNL     1       1.593   9.819  18.649  0.00  0.00    +0.000 A 
ATOM      3  C   UNL     1       1.818   8.427  19.061  0.00  0.00    +0.000 A 
ATOM      4  C   UNL     1       2.378   7.495  18.178  0.00  0.00    +0.000 A 
ATOM      5  C   UNL     1       2.589   6.184  18.599  0.00  0.00    +0.000 A 
ATOM      6  C   UNL     1       2.226   5.809  19.892  0.00  0.00    +0.000 A 
ATOM      7  C   UNL     1       1.670   6.749  20.764  0.00  0.00    +0.000 A 
ATOM      8  C   UNL     1       1.478   8.073  20.360  0.00  0.00    +0.000 A 
ATOM      9  N   UNL     1       0.967   8.993  21.278  0.00  0.00    +0.000 NA
ATOM     10  C   UNL     1       0.828  10.237  20.919  0.00  0.00    +0.000 A 
ATOM     11  N   UNL     1       1.105  10.694  19.631  0.00  0.00    +0.000 N 
ENDROOT
BRANCH  11  12
ATOM     12  C   UNL     1       1.051  12.071  19.251  0.00  0.00    +0.000 A 
ATOM     13  C   UNL     1       2.111  12.923  19.601  0.00  0.00    +0.000 A 
ATOM     14  C   UNL     1       2.021  14.299  19.385  0.00  0.00    +0.000 A 
ATOM     15  C   UNL     1       0.866  14.840  18.829  0.00  0.00    +0.000 A 
ATOM     16  C   UNL     1      -0.195  14.007  18.468  0.00  0.00    +0.000 A 
ATOM     17  C   UNL     1      -0.100  12.630  18.676  0.00  0.00    +0.000 A 
BRANCH  17  18
ATOM     18  O   UNL     1      -1.171  11.827  18.390  0.00  0.00    +0.000 OA
ATOM     19  H   UNL     1      -0.851  10.998  17.997  0.00  0.00    +0.000 HD
ENDBRANCH  17  18
ENDBRANCH  11  12
BRANCH  10  20
ATOM     20  C   UNL     1       0.228  11.191  21.912  0.00  0.00    +0.000 C 
ATOM     21  C   UNL     1      -1.095  11.432  21.885  0.00  0.00    +0.000 C 
BRANCH  21  22
ATOM     22  C   UNL     1      -1.808  12.350  22.787  0.00  0.00    +0.000 A 
ATOM     23  C   UNL     1      -3.057  12.041  23.345  0.00  0.00    +0.000 A 
ATOM     24  C   UNL     1      -3.702  12.942  24.202  0.00  0.00    +0.000 A 
ATOM     25  C   UNL     1      -3.090  14.151  24.513  0.00  0.00    +0.000 A 
ATOM     26  C   UNL     1      -1.831  14.455  24.012  0.00  0.00    +0.000 A 
ATOM     27  C   UNL     1      -1.191  13.556  23.155  0.00  0.00    +0.000 A 
BRANCH  25  28
ATOM     28  O   UNL     1      -3.700  15.073  25.309  0.00  0.00    +0.000 OA
ATOM     29  H   UNL     1      -3.596  14.797  26.234  0.00  0.00    +0.000 HD
ENDBRANCH  25  28
ENDBRANCH  21  22
ENDBRANCH  10  20
TORSDOF 5
ENDMDL
