MODEL 1
REMARK VINA RESULT:      -8.8      0.000      0.000
REMARK  Name = 
REMARK  3 active torsions:
REMARK  status: ('A' for Active; 'I' for Inactive)
REMARK    1  A    between atoms: C_6  and  C_7
REMARK    2  A    between atoms: C_7  and  N_8
REMARK    3  A    between atoms: C_13  and  C_14
REMARK                            x       y       z     vdW  Elec       q    Type
REMARK                         _______ _______ _______ _____ _____    ______ ____
ROOT
ATOM      1  N   UNL     1       1.324   6.495  20.687  0.00  0.00    +0.000 N 
ATOM      2  C   UNL     1       2.148   5.392  20.430  0.00  0.00    +0.000 A 
ATOM      3  C   UNL     1       1.839   4.205  21.062  0.00  0.00    +0.000 A 
ATOM      4  C   UNL     1       2.669   3.143  20.813  0.00  0.00    +0.000 A 
ATOM      5  N   UNL     1       3.697   3.200  19.953  0.00  0.00    +0.000 NA
ATOM      6  C   UNL     1       3.901   4.383  19.342  0.00  0.00    +0.000 A 
ATOM      7  N   UNL     1       3.171   5.495  19.570  0.00  0.00    +0.000 NA
ATOM      8  H   UNL     1       0.442   6.363  20.196  0.00  0.00    +0.000 HD
ENDROOT
BRANCH   6   9
ATOM      9  C   UNL     1       4.931   4.440  18.285  0.00  0.00    +0.000 A 
ATOM     10  C   UNL     1       6.280   4.767  18.585  0.00  0.00    +0.000 A 
ATOM     11  C   UNL     1       7.254   4.898  17.586  0.00  0.00    +0.000 A 
ATOM     12  C   UNL     1       6.862   4.708  16.283  0.00  0.00    +0.000 A 
ATOM     13  C   UNL     1       5.568   4.379  15.964  0.00  0.00    +0.000 A 
ATOM     14  C   UNL     1       4.594   4.232  16.930  0.00  0.00    +0.000 A 
ATOM     15  O   UNL     1       5.384   4.246  14.623  0.00  0.00    +0.000 OA
ATOM     16  C   UNL     1       6.696   4.591  14.135  0.00  0.00    +0.000 C 
ATOM     17  O   UNL     1       7.655   4.828  15.187  0.00  0.00    +0.000 OA
ENDBRANCH   6   9
BRANCH   1  18
ATOM     18  C   UNL     1       1.920   7.794  20.403  0.00  0.00    +0.000 C 
BRANCH  18  24
ATOM     19 CL   UNL     1      -1.595  11.690  20.064  0.00  0.00    +0.000 Cl
ATOM     20  C   UNL     1      -0.548  10.660  20.953  0.00  0.00    +0.000 A 
ATOM     21  C   UNL     1      -0.460  10.747  22.331  0.00  0.00    +0.000 A 
ATOM     22  N   UNL     1       0.344   9.958  23.086  0.00  0.00    +0.000 NA
ATOM     23  C   UNL     1       1.093   9.045  22.424  0.00  0.00    +0.000 A 
ATOM     24  C   UNL     1       1.094   8.885  21.041  0.00  0.00    +0.000 A 
ATOM     25  C   UNL     1       0.230   9.710  20.302  0.00  0.00    +0.000 A 
ENDBRANCH  18  24
ENDBRANCH   1  18
TORSDOF 3
ENDMDL
MODEL 2
REMARK VINA RESULT:      -8.6      3.910      7.035
REMARK  Name = 
REMARK  3 active torsions:
REMARK  status: ('A' for Active; 'I' for Inactive)
REMARK    1  A    between atoms: C_6  and  C_7
REMARK    2  A    between atoms: C_7  and  N_8
REMARK    3  A    between atoms: C_13  and  C_14
REMARK                            x       y       z     vdW  Elec       q    Type
REMARK                         _______ _______ _______ _____ _____    ______ ____
ROOT
ATOM      1  N   UNL     1       5.209   3.368  16.699  0.00  0.00    +0.000 N 
ATOM      2  C   UNL     1       3.981   3.641  17.315  0.00  0.00    +0.000 A 
ATOM      3  C   UNL     1       3.146   2.573  17.570  0.00  0.00    +0.000 A 
ATOM      4  C   UNL     1       1.941   2.862  18.156  0.00  0.00    +0.000 A 
ATOM      5  N   UNL     1       1.587   4.099  18.535  0.00  0.00    +0.000 NA
ATOM      6  C   UNL     1       2.480   5.078  18.293  0.00  0.00    +0.000 A 
ATOM      7  N   UNL     1       3.663   4.893  17.670  0.00  0.00    +0.000 NA
ATOM      8  H   UNL     1       5.828   2.938  17.383  0.00  0.00    +0.000 HD
ENDROOT
BRANCH   6   9
ATOM      9  C   UNL     1       2.185   6.423  18.827  0.00  0.00    +0.000 A 
ATOM     10  C   UNL     1       1.842   6.616  20.192  0.00  0.00    +0.000 A 
ATOM     11  C   UNL     1       1.488   7.874  20.699  0.00  0.00    +0.000 A 
ATOM     12  C   UNL     1       1.473   8.934  19.825  0.00  0.00    +0.000 A 
ATOM     13  C   UNL     1       1.812   8.779  18.503  0.00  0.00    +0.000 A 
ATOM     14  C   UNL     1       2.176   7.554  17.983  0.00  0.00    +0.000 A 
ATOM     15  O   UNL     1       1.723   9.943  17.807  0.00  0.00    +0.000 OA
ATOM     16  C   UNL     1       1.227  10.832  18.828  0.00  0.00    +0.000 C 
ATOM     17  O   UNL     1       1.123  10.211  20.127  0.00  0.00    +0.000 OA
ENDBRANCH   6   9
BRANCH   1  18
ATOM     18  C   UNL     1       5.834   4.505  16.034  0.00  0.00    +0.000 C 
BRANCH  18  24
ATOM     19 CL   UNL     1       8.012   8.967  17.763  0.00  0.00    +0.000 Cl
ATOM     20  C   UNL     1       7.698   7.284  17.881  0.00  0.00    +0.000 A 
ATOM     21  C   UNL     1       8.187   6.537  18.939  0.00  0.00    +0.000 A 
ATOM     22  N   UNL     1       7.968   5.208  19.088  0.00  0.00    +0.000 NA
ATOM     23  C   UNL     1       7.226   4.604  18.128  0.00  0.00    +0.000 A 
ATOM     24  C   UNL     1       6.701   5.256  17.016  0.00  0.00    +0.000 A 
ATOM     25  C   UNL     1       6.938   6.637  16.915  0.00  0.00    +0.000 A 
ENDBRANCH  18  24
ENDBRANCH   1  18
TORSDOF 3
ENDMDL
MODEL 3
REMARK VINA RESULT:      -8.4      1.077      1.300
REMARK  Name = 
REMARK  3 active torsions:
REMARK  status: ('A' for Active; 'I' for Inactive)
REMARK    1  A    between atoms: C_6  and  C_7
REMARK    2  A    between atoms: C_7  and  N_8
REMARK    3  A    between atoms: C_13  and  C_14
REMARK                            x       y       z     vdW  Elec       q    Type
REMARK                         _______ _______ _______ _____ _____    ______ ____
ROOT
ATOM      1  N   UNL     1       1.457   6.350  20.902  0.00  0.00    +0.000 N 
ATOM      2  C   UNL     1       2.216   5.254  20.471  0.00  0.00    +0.000 A 
ATOM      3  C   UNL     1       1.832   4.003  20.906  0.00  0.00    +0.000 A 
ATOM      4  C   UNL     1       2.598   2.946  20.489  0.00  0.00    +0.000 A 
ATOM      5  N   UNL     1       3.635   3.078  19.648  0.00  0.00    +0.000 NA
ATOM      6  C   UNL     1       3.914   4.328  19.232  0.00  0.00    +0.000 A 
ATOM      7  N   UNL     1       3.249   5.431  19.637  0.00  0.00    +0.000 NA
ATOM      8  H   UNL     1       0.573   6.352  20.398  0.00  0.00    +0.000 HD
ENDROOT
BRANCH   6   9
ATOM      9  C   UNL     1       4.953   4.491  18.196  0.00  0.00    +0.000 A 
ATOM     10  C   UNL     1       6.220   5.056  18.504  0.00  0.00    +0.000 A 
ATOM     11  C   UNL     1       7.190   5.285  17.519  0.00  0.00    +0.000 A 
ATOM     12  C   UNL     1       6.877   4.953  16.223  0.00  0.00    +0.000 A 
ATOM     13  C   UNL     1       5.666   4.394  15.899  0.00  0.00    +0.000 A 
ATOM     14  C   UNL     1       4.699   4.147  16.852  0.00  0.00    +0.000 A 
ATOM     15  O   UNL     1       5.549   4.150  14.567  0.00  0.00    +0.000 OA
ATOM     16  C   UNL     1       6.801   4.678  14.084  0.00  0.00    +0.000 C 
ATOM     17  O   UNL     1       7.674   5.135  15.139  0.00  0.00    +0.000 OA
ENDBRANCH   6   9
BRANCH   1  18
ATOM     18  C   UNL     1       2.132   7.639  20.828  0.00  0.00    +0.000 C 
BRANCH  18  24
ATOM     19 CL   UNL     1      -1.333  10.755  23.264  0.00  0.00    +0.000 Cl
ATOM     20  C   UNL     1      -0.467  10.238  21.875  0.00  0.00    +0.000 A 
ATOM     21  C   UNL     1      -0.629  10.872  20.655  0.00  0.00    +0.000 A 
ATOM     22  N   UNL     1       0.030  10.512  19.526  0.00  0.00    +0.000 NA
ATOM     23  C   UNL     1       0.886   9.467  19.630  0.00  0.00    +0.000 A 
ATOM     24  C   UNL     1       1.110   8.750  20.802  0.00  0.00    +0.000 A 
ATOM     25  C   UNL     1       0.420   9.172  21.950  0.00  0.00    +0.000 A 
ENDBRANCH  18  24
ENDBRANCH   1  18
TORSDOF 3
ENDMDL
MODEL 4
REMARK VINA RESULT:      -8.4      1.031      1.169
REMARK  Name = 
REMARK  3 active torsions:
REMARK  status: ('A' for Active; 'I' for Inactive)
REMARK    1  A    between atoms: C_6  and  C_7
REMARK    2  A    between atoms: C_7  and  N_8
REMARK    3  A    between atoms: C_13  and  C_14
REMARK                            x       y       z     vdW  Elec       q    Type
REMARK                         _______ _______ _______ _____ _____    ______ ____
ROOT
ATOM      1  N   UNL     1       1.106   6.903  20.949  0.00  0.00    +0.000 N 
ATOM      2  C   UNL     1       1.917   5.864  20.475  0.00  0.00    +0.000 A 
ATOM      3  C   UNL     1       1.782   4.628  21.073  0.00  0.00    +0.000 A 
ATOM      4  C   UNL     1       2.598   3.629  20.608  0.00  0.00    +0.000 A 
ATOM      5  N   UNL     1       3.447   3.792  19.583  0.00  0.00    +0.000 NA
ATOM      6  C   UNL     1       3.482   5.017  19.023  0.00  0.00    +0.000 A 
ATOM      7  N   UNL     1       2.758   6.072  19.453  0.00  0.00    +0.000 NA
ATOM      8  H   UNL     1       0.156   6.751  20.618  0.00  0.00    +0.000 HD
ENDROOT
BRANCH   6   9
ATOM      9  C   UNL     1       4.296   5.191  17.803  0.00  0.00    +0.000 A 
ATOM     10  C   UNL     1       4.513   6.476  17.237  0.00  0.00    +0.000 A 
ATOM     11  C   UNL     1       5.220   6.651  16.041  0.00  0.00    +0.000 A 
ATOM     12  C   UNL     1       5.700   5.528  15.411  0.00  0.00    +0.000 A 
ATOM     13  C   UNL     1       5.516   4.275  15.942  0.00  0.00    +0.000 A 
ATOM     14  C   UNL     1       4.834   4.077  17.124  0.00  0.00    +0.000 A 
ATOM     15  O   UNL     1       6.056   3.300  15.162  0.00  0.00    +0.000 OA
ATOM     16  C   UNL     1       6.544   4.080  14.052  0.00  0.00    +0.000 C 
ATOM     17  O   UNL     1       6.373   5.502  14.232  0.00  0.00    +0.000 OA
ENDBRANCH   6   9
BRANCH   1  18
ATOM     18  C   UNL     1       1.582   8.247  20.647  0.00  0.00    +0.000 C 
BRANCH  18  24
ATOM     19 CL   UNL     1      -1.879  12.205  20.590  0.00  0.00    +0.000 Cl
ATOM     20  C   UNL     1      -0.893  11.060  21.403  0.00  0.00    +0.000 A 
ATOM     21  C   UNL     1      -0.884  10.977  22.785  0.00  0.00    +0.000 A 
ATOM     22  N   UNL     1      -0.131  10.091  23.482  0.00  0.00    +0.000 NA
ATOM     23  C   UNL     1       0.649   9.254  22.756  0.00  0.00    +0.000 A 
ATOM     24  C   UNL     1       0.728   9.264  21.366  0.00  0.00    +0.000 A 
ATOM     25  C   UNL     1      -0.085  10.185  20.687  0.00  0.00    +0.000 A 
ENDBRANCH  18  24
ENDBRANCH   1  18
TORSDOF 3
ENDMDL
MODEL 5
REMARK VINA RESULT:      -8.4      4.504      8.385
REMARK  Name = 
REMARK  3 active torsions:
REMARK  status: ('A' for Active; 'I' for Inactive)
REMARK    1  A    between atoms: C_6  and  C_7
REMARK    2  A    between atoms: C_7  and  N_8
REMARK    3  A    between atoms: C_13  and  C_14
REMARK                            x       y       z     vdW  Elec       q    Type
REMARK                         _______ _______ _______ _____ _____    ______ ____
ROOT
ATOM      1  N   UNL     1       5.434   3.704  16.679  0.00  0.00    +0.000 N 
ATOM      2  C   UNL     1       4.197   3.885  17.312  0.00  0.00    +0.000 A 
ATOM      3  C   UNL     1       3.430   2.762  17.541  0.00  0.00    +0.000 A 
ATOM      4  C   UNL     1       2.215   2.961  18.144  0.00  0.00    +0.000 A 
ATOM      5  N   UNL     1       1.791   4.163  18.562  0.00  0.00    +0.000 NA
ATOM      6  C   UNL     1       2.621   5.200  18.343  0.00  0.00    +0.000 A 
ATOM      7  N   UNL     1       3.808   5.105  17.706  0.00  0.00    +0.000 NA
ATOM      8  H   UNL     1       6.083   3.292  17.346  0.00  0.00    +0.000 HD
ENDROOT
BRANCH   6   9
ATOM      9  C   UNL     1       2.252   6.509  18.918  0.00  0.00    +0.000 A 
ATOM     10  C   UNL     1       1.867   6.634  20.280  0.00  0.00    +0.000 A 
ATOM     11  C   UNL     1       1.443   7.854  20.823  0.00  0.00    +0.000 A 
ATOM     12  C   UNL     1       1.399   8.945  19.989  0.00  0.00    +0.000 A 
ATOM     13  C   UNL     1       1.777   8.856  18.671  0.00  0.00    +0.000 A 
ATOM     14  C   UNL     1       2.209   7.669  18.116  0.00  0.00    +0.000 A 
ATOM     15  O   UNL     1       1.650  10.040  18.016  0.00  0.00    +0.000 OA
ATOM     16  C   UNL     1       1.089  10.866  19.057  0.00  0.00    +0.000 C 
ATOM     17  O   UNL     1       0.983  10.192  20.328  0.00  0.00    +0.000 OA
ENDBRANCH   6   9
BRANCH   1  18
ATOM     18  C   UNL     1       5.984   4.895  16.044  0.00  0.00    +0.000 C 
BRANCH  18  24
ATOM     19 CL   UNL     1       5.041   2.498  11.460  0.00  0.00    +0.000 Cl
ATOM     20  C   UNL     1       5.959   3.537  12.471  0.00  0.00    +0.000 A 
ATOM     21  C   UNL     1       7.077   4.197  11.991  0.00  0.00    +0.000 A 
ATOM     22  N   UNL     1       7.838   5.033  12.740  0.00  0.00    +0.000 NA
ATOM     23  C   UNL     1       7.457   5.210  14.028  0.00  0.00    +0.000 A 
ATOM     24  C   UNL     1       6.361   4.583  14.616  0.00  0.00    +0.000 A 
ATOM     25  C   UNL     1       5.592   3.742  13.795  0.00  0.00    +0.000 A 
ENDBRANCH  18  24
ENDBRANCH   1  18
TORSDOF 3
ENDMDL
MODEL 6
REMARK VINA RESULT:      -8.3      4.624      8.492
REMARK  Name = 
REMARK  3 active torsions:
REMARK  status: ('A' for Active; 'I' for Inactive)
REMARK    1  A    between atoms: C_6  and  C_7
REMARK    2  A    between atoms: C_7  and  N_8
REMARK    3  A    between atoms: C_13  and  C_14
REMARK                            x       y       z     vdW  Elec       q    Type
REMARK                         _______ _______ _______ _____ _____    ______ ____
ROOT
ATOM      1  N   UNL     1       5.719   3.777  16.807  0.00  0.00    +0.000 N 
ATOM      2  C   UNL     1       4.413   3.940  17.286  0.00  0.00    +0.000 A 
ATOM      3  C   UNL     1       3.650   2.803  17.452  0.00  0.00    +0.000 A 
ATOM      4  C   UNL     1       2.368   2.985  17.904  0.00  0.00    +0.000 A 
ATOM      5  N   UNL     1       1.871   4.184  18.240  0.00  0.00    +0.000 NA
ATOM      6  C   UNL     1       2.698   5.238  18.093  0.00  0.00    +0.000 A 
ATOM      7  N   UNL     1       3.953   5.158  17.602  0.00  0.00    +0.000 NA
ATOM      8  H   UNL     1       6.295   3.396  17.554  0.00  0.00    +0.000 HD
ENDROOT
BRANCH   6   9
ATOM      9  C   UNL     1       2.234   6.549  18.589  0.00  0.00    +0.000 A 
ATOM     10  C   UNL     1       2.138   7.673  17.725  0.00  0.00    +0.000 A 
ATOM     11  C   UNL     1       1.770   8.941  18.194  0.00  0.00    +0.000 A 
ATOM     12  C   UNL     1       1.509   9.076  19.536  0.00  0.00    +0.000 A 
ATOM     13  C   UNL     1       1.582   8.004  20.392  0.00  0.00    +0.000 A 
ATOM     14  C   UNL     1       1.930   6.744  19.953  0.00  0.00    +0.000 A 
ATOM     15  O   UNL     1       1.299   8.349  21.676  0.00  0.00    +0.000 OA
ATOM     16  C   UNL     1       1.102   9.770  21.538  0.00  0.00    +0.000 C 
ATOM     17  O   UNL     1       1.176  10.228  20.171  0.00  0.00    +0.000 OA
ENDBRANCH   6   9
BRANCH   1  18
ATOM     18  C   UNL     1       6.313   4.967  16.210  0.00  0.00    +0.000 C 
BRANCH  18  24
ATOM     19 CL   UNL     1       5.415   2.434  11.691  0.00  0.00    +0.000 Cl
ATOM     20  C   UNL     1       6.241   3.600  12.642  0.00  0.00    +0.000 A 
ATOM     21  C   UNL     1       7.219   4.410  12.090  0.00  0.00    +0.000 A 
ATOM     22  N   UNL     1       7.901   5.350  12.789  0.00  0.00    +0.000 NA
ATOM     23  C   UNL     1       7.587   5.478  14.101  0.00  0.00    +0.000 A 
ATOM     24  C   UNL     1       6.634   4.704  14.759  0.00  0.00    +0.000 A 
ATOM     25  C   UNL     1       5.939   3.757  13.989  0.00  0.00    +0.000 A 
ENDBRANCH  18  24
ENDBRANCH   1  18
TORSDOF 3
ENDMDL
MODEL 7
REMARK VINA RESULT:      -8.3      4.099      7.181
REMARK  Name = 
REMARK  3 active torsions:
REMARK  status: ('A' for Active; 'I' for Inactive)
REMARK    1  A    between atoms: C_6  and  C_7
REMARK    2  A    between atoms: C_7  and  N_8
REMARK    3  A    between atoms: C_13  and  C_14
REMARK                            x       y       z     vdW  Elec       q    Type
REMARK                         _______ _______ _______ _____ _____    ______ ____
ROOT
ATOM      1  N   UNL     1       5.301   3.314  16.760  0.00  0.00    +0.000 N 
ATOM      2  C   UNL     1       4.048   3.558  17.337  0.00  0.00    +0.000 A 
ATOM      3  C   UNL     1       3.249   2.466  17.608  0.00  0.00    +0.000 A 
ATOM      4  C   UNL     1       2.019   2.727  18.154  0.00  0.00    +0.000 A 
ATOM      5  N   UNL     1       1.608   3.960  18.483  0.00  0.00    +0.000 NA
ATOM      6  C   UNL     1       2.468   4.966  18.229  0.00  0.00    +0.000 A 
ATOM      7  N   UNL     1       3.673   4.807  17.641  0.00  0.00    +0.000 NA
ATOM      8  H   UNL     1       5.919   2.931  17.473  0.00  0.00    +0.000 HD
ENDROOT
BRANCH   6   9
ATOM      9  C   UNL     1       2.108   6.315  18.710  0.00  0.00    +0.000 A 
ATOM     10  C   UNL     1       2.151   7.442  17.846  0.00  0.00    +0.000 A 
ATOM     11  C   UNL     1       1.883   8.739  18.304  0.00  0.00    +0.000 A 
ATOM     12  C   UNL     1       1.582   8.898  19.635  0.00  0.00    +0.000 A 
ATOM     13  C   UNL     1       1.521   7.825  20.490  0.00  0.00    +0.000 A 
ATOM     14  C   UNL     1       1.768   6.538  20.061  0.00  0.00    +0.000 A 
ATOM     15  O   UNL     1       1.220   8.196  21.762  0.00  0.00    +0.000 OA
ATOM     16  C   UNL     1       1.161   9.629  21.621  0.00  0.00    +0.000 C 
ATOM     17  O   UNL     1       1.332  10.078  20.259  0.00  0.00    +0.000 OA
ENDBRANCH   6   9
BRANCH   1  18
ATOM     18  C   UNL     1       5.898   4.452  16.072  0.00  0.00    +0.000 C 
BRANCH  18  24
ATOM     19 CL   UNL     1       7.905   9.010  17.758  0.00  0.00    +0.000 Cl
ATOM     20  C   UNL     1       7.668   7.314  17.883  0.00  0.00    +0.000 A 
ATOM     21  C   UNL     1       8.209   6.592  18.933  0.00  0.00    +0.000 A 
ATOM     22  N   UNL     1       8.052   5.254  19.087  0.00  0.00    +0.000 NA
ATOM     23  C   UNL     1       7.321   4.616  18.141  0.00  0.00    +0.000 A 
ATOM     24  C   UNL     1       6.748   5.242  17.037  0.00  0.00    +0.000 A 
ATOM     25  C   UNL     1       6.921   6.632  16.932  0.00  0.00    +0.000 A 
ENDBRANCH  18  24
ENDBRANCH   1  18
TORSDOF 3
ENDMDL
MODEL 8
REMARK VINA RESULT:      -8.2      1.612      2.051
REMARK  Name = 
REMARK  3 active torsions:
REMARK  status: ('A' for Active; 'I' for Inactive)
REMARK    1  A    between atoms: C_6  and  C_7
REMARK    2  A    between atoms: C_7  and  N_8
REMARK    3  A    between atoms: C_13  and  C_14
REMARK                            x       y       z     vdW  Elec       q    Type
REMARK                         _______ _______ _______ _____ _____    ______ ____
ROOT
ATOM      1  N   UNL     1       1.424   4.968  20.353  0.00  0.00    +0.000 N 
ATOM      2  C   UNL     1       2.081   4.082  19.489  0.00  0.00    +0.000 A 
ATOM      3  C   UNL     1       1.513   2.839  19.301  0.00  0.00    +0.000 A 
ATOM      4  C   UNL     1       2.180   1.979  18.468  0.00  0.00    +0.000 A 
ATOM      5  N   UNL     1       3.293   2.318  17.801  0.00  0.00    +0.000 NA
ATOM      6  C   UNL     1       3.755   3.567  18.004  0.00  0.00    +0.000 A 
ATOM      7  N   UNL     1       3.196   4.458  18.850  0.00  0.00    +0.000 NA
ATOM      8  H   UNL     1       0.594   5.324  19.885  0.00  0.00    +0.000 HD
ENDROOT
BRANCH   6   9
ATOM      9  C   UNL     1       4.892   4.020  17.178  0.00  0.00    +0.000 A 
ATOM     10  C   UNL     1       5.923   4.832  17.723  0.00  0.00    +0.000 A 
ATOM     11  C   UNL     1       6.969   5.332  16.936  0.00  0.00    +0.000 A 
ATOM     12  C   UNL     1       6.969   5.019  15.598  0.00  0.00    +0.000 A 
ATOM     13  C   UNL     1       5.993   4.226  15.047  0.00  0.00    +0.000 A 
ATOM     14  C   UNL     1       4.959   3.712  15.803  0.00  0.00    +0.000 A 
ATOM     15  O   UNL     1       6.167   4.046  13.711  0.00  0.00    +0.000 OA
ATOM     16  C   UNL     1       7.328   4.868  13.476  0.00  0.00    +0.000 C 
ATOM     17  O   UNL     1       7.878   5.441  14.682  0.00  0.00    +0.000 OA
ENDBRANCH   6   9
BRANCH   1  18
ATOM     18  C   UNL     1       2.254   6.041  20.887  0.00  0.00    +0.000 C 
BRANCH  18  24
ATOM     19 CL   UNL     1      -0.355  10.521  21.764  0.00  0.00    +0.000 Cl
ATOM     20  C   UNL     1       0.573   9.472  20.772  0.00  0.00    +0.000 A 
ATOM     21  C   UNL     1       0.938   9.838  19.488  0.00  0.00    +0.000 A 
ATOM     22  N   UNL     1       1.673   9.055  18.661  0.00  0.00    +0.000 NA
ATOM     23  C   UNL     1       2.054   7.849  19.148  0.00  0.00    +0.000 A 
ATOM     24  C   UNL     1       1.727   7.375  20.416  0.00  0.00    +0.000 A 
ATOM     25  C   UNL     1       0.982   8.230  21.243  0.00  0.00    +0.000 A 
ENDBRANCH  18  24
ENDBRANCH   1  18
TORSDOF 3
ENDMDL
MODEL 9
REMARK VINA RESULT:      -8.1      3.991      7.626
REMARK  Name = 
REMARK  3 active torsions:
REMARK  status: ('A' for Active; 'I' for Inactive)
REMARK    1  A    between atoms: C_6  and  C_7
REMARK    2  A    between atoms: C_7  and  N_8
REMARK    3  A    between atoms: C_13  and  C_14
REMARK                            x       y       z     vdW  Elec       q    Type
REMARK                         _______ _______ _______ _____ _____    ______ ____
ROOT
ATOM      1  N   UNL     1       4.196   2.921  18.085  0.00  0.00    +0.000 N 
ATOM      2  C   UNL     1       3.489   3.500  19.148  0.00  0.00    +0.000 A 
ATOM      3  C   UNL     1       3.340   2.750  20.296  0.00  0.00    +0.000 A 
ATOM      4  C   UNL     1       2.629   3.325  21.317  0.00  0.00    +0.000 A 
ATOM      5  N   UNL     1       2.147   4.575  21.262  0.00  0.00    +0.000 NA
ATOM      6  C   UNL     1       2.377   5.257  20.123  0.00  0.00    +0.000 A 
ATOM      7  N   UNL     1       3.016   4.749  19.047  0.00  0.00    +0.000 NA
ATOM      8  H   UNL     1       5.187   2.921  18.316  0.00  0.00    +0.000 HD
ENDROOT
BRANCH   6   9
ATOM      9  C   UNL     1       1.988   6.681  20.084  0.00  0.00    +0.000 A 
ATOM     10  C   UNL     1       1.252   7.274  21.144  0.00  0.00    +0.000 A 
ATOM     11  C   UNL     1       0.811   8.603  21.090  0.00  0.00    +0.000 A 
ATOM     12  C   UNL     1       1.105   9.329  19.962  0.00  0.00    +0.000 A 
ATOM     13  C   UNL     1       1.826   8.785  18.927  0.00  0.00    +0.000 A 
ATOM     14  C   UNL     1       2.281   7.484  18.961  0.00  0.00    +0.000 A 
ATOM     15  O   UNL     1       1.999   9.662  17.902  0.00  0.00    +0.000 OA
ATOM     16  C   UNL     1       1.252  10.796  18.386  0.00  0.00    +0.000 C 
ATOM     17  O   UNL     1       0.731  10.612  19.719  0.00  0.00    +0.000 OA
ENDBRANCH   6   9
BRANCH   1  18
ATOM     18  C   UNL     1       3.939   3.509  16.777  0.00  0.00    +0.000 C 
BRANCH  18  24
ATOM     19 CL   UNL     1       6.981   4.406  12.583  0.00  0.00    +0.000 Cl
ATOM     20  C   UNL     1       6.667   4.448  14.270  0.00  0.00    +0.000 A 
ATOM     21  C   UNL     1       7.587   4.981  15.155  0.00  0.00    +0.000 A 
ATOM     22  N   UNL     1       7.393   5.047  16.496  0.00  0.00    +0.000 NA
ATOM     23  C   UNL     1       6.223   4.551  16.964  0.00  0.00    +0.000 A 
ATOM     24  C   UNL     1       5.237   3.977  16.164  0.00  0.00    +0.000 A 
ATOM     25  C   UNL     1       5.474   3.951  14.781  0.00  0.00    +0.000 A 
ENDBRANCH  18  24
ENDBRANCH   1  18
TORSDOF 3
ENDMDL
