MODEL 1
REMARK VINA RESULT:      -5.7      0.000      0.000
REMARK  Name = 
REMARK  5 active torsions:
REMARK  status: ('A' for Active; 'I' for Inactive)
REMARK    1  A    between atoms: C_1  and  O_2
REMARK    2  A    between atoms: O_2  and  C_3
REMARK    3  A    between atoms: C_3  and  C_5
REMARK    4  A    between atoms: C_6  and  C_7
REMARK    5  A    between atoms: C_12  and  C_13
REMARK                            x       y       z     vdW  Elec       q    Type
REMARK                         _______ _______ _______ _____ _____    ______ ____
ROOT
ATOM      1  C   UNL     1       2.838   3.809  19.104  0.00  0.00    +0.000 C 
ATOM      2  C   UNL     1       3.876   2.986  18.838  0.00  0.00    +0.000 C 
ATOM      3  C   UNL     1       3.853   1.496  18.602  0.00  0.00    +0.000 C 
ATOM      4  N   UNL     1       5.146   3.520  18.783  0.00  0.00    +0.000 N 
ATOM      5  C   UNL     1       5.470   4.806  19.072  0.00  0.00    +0.000 C 
ATOM      6  S   UNL     1       7.043   5.334  19.054  0.00  0.00    +0.000 S 
ATOM      7  N   UNL     1       4.455   5.633  19.409  0.00  0.00    +0.000 N 
ATOM      8  C   UNL     1       3.040   5.297  19.305  0.00  0.00    +0.000 C 
ATOM      9  C   UNL     1       2.418   6.137  18.186  0.00  0.00    +0.000 C 
ATOM     10  H   UNL     1       5.931   2.908  18.577  0.00  0.00    +0.000 HD
ATOM     11  H   UNL     1       4.713   6.586  19.635  0.00  0.00    +0.000 HD
ENDROOT
BRANCH   1  12
ATOM     12  C   UNL     1       1.439   3.304  19.219  0.00  0.00    +0.000 C 
ATOM     13  O   UNL     1       0.818   2.726  18.341  0.00  0.00    +0.000 OA
BRANCH  12  15
ATOM     14  C   UNL     1       1.398   2.711  21.478  0.00  0.00    +0.000 C 
ATOM     15  O   UNL     1       0.937   3.587  20.448  0.00  0.00    +0.000 OA
ENDBRANCH  12  15
ENDBRANCH   1  12
TORSDOF 2
ENDMDL
MODEL 2
REMARK VINA RESULT:      -5.6      3.534      4.771
REMARK  Name = 
REMARK  5 active torsions:
REMARK  status: ('A' for Active; 'I' for Inactive)
REMARK    1  A    between atoms: C_1  and  O_2
REMARK    2  A    between atoms: O_2  and  C_3
REMARK    3  A    between atoms: C_3  and  C_5
REMARK    4  A    between atoms: C_6  and  C_7
REMARK    5  A    between atoms: C_12  and  C_13
REMARK                            x       y       z     vdW  Elec       q    Type
REMARK                         _______ _______ _______ _____ _____    ______ ____
ROOT
ATOM      1  C   UNL     1       5.121   4.902  17.084  0.00  0.00    +0.000 C 
ATOM      2  C   UNL     1       6.107   4.445  17.886  0.00  0.00    +0.000 C 
ATOM      3  C   UNL     1       7.596   4.651  17.749  0.00  0.00    +0.000 C 
ATOM      4  N   UNL     1       5.769   3.667  18.974  0.00  0.00    +0.000 N 
ATOM      5  C   UNL     1       4.519   3.230  19.267  0.00  0.00    +0.000 C 
ATOM      6  S   UNL     1       4.225   2.230  20.559  0.00  0.00    +0.000 S 
ATOM      7  N   UNL     1       3.523   3.618  18.438  0.00  0.00    +0.000 N 
ATOM      8  C   UNL     1       3.663   4.608  17.378  0.00  0.00    +0.000 C 
ATOM      9  C   UNL     1       2.872   5.860  17.769  0.00  0.00    +0.000 C 
ATOM     10  H   UNL     1       6.505   3.326  19.584  0.00  0.00    +0.000 HD
ATOM     11  H   UNL     1       2.597   3.273  18.662  0.00  0.00    +0.000 HD
ENDROOT
BRANCH   1  12
ATOM     12  C   UNL     1       5.405   5.716  15.866  0.00  0.00    +0.000 C 
ATOM     13  O   UNL     1       5.627   6.916  15.851  0.00  0.00    +0.000 OA
BRANCH  12  15
ATOM     14  C   UNL     1       6.662   4.670  14.199  0.00  0.00    +0.000 C 
ATOM     15  O   UNL     1       5.374   4.931  14.759  0.00  0.00    +0.000 OA
ENDBRANCH  12  15
ENDBRANCH   1  12
TORSDOF 2
ENDMDL
MODEL 3
REMARK VINA RESULT:      -5.4      3.308      4.098
REMARK  Name = 
REMARK  5 active torsions:
REMARK  status: ('A' for Active; 'I' for Inactive)
REMARK    1  A    between atoms: C_1  and  O_2
REMARK    2  A    between atoms: O_2  and  C_3
REMARK    3  A    between atoms: C_3  and  C_5
REMARK    4  A    between atoms: C_6  and  C_7
REMARK    5  A    between atoms: C_12  and  C_13
REMARK                            x       y       z     vdW  Elec       q    Type
REMARK                         _______ _______ _______ _____ _____    ______ ____
ROOT
ATOM      1  C   UNL     1       5.566   4.464  17.778  0.00  0.00    +0.000 C 
ATOM      2  C   UNL     1       4.704   4.221  16.766  0.00  0.00    +0.000 C 
ATOM      3  C   UNL     1       3.237   3.877  16.849  0.00  0.00    +0.000 C 
ATOM      4  N   UNL     1       5.176   4.259  15.470  0.00  0.00    +0.000 N 
ATOM      5  C   UNL     1       6.473   4.428  15.113  0.00  0.00    +0.000 C 
ATOM      6  S   UNL     1       6.954   4.380  13.525  0.00  0.00    +0.000 S 
ATOM      7  N   UNL     1       7.367   4.604  16.112  0.00  0.00    +0.000 N 
ATOM      8  C   UNL     1       7.018   4.810  17.512  0.00  0.00    +0.000 C 
ATOM      9  C   UNL     1       7.365   6.251  17.897  0.00  0.00    +0.000 C 
ATOM     10  H   UNL     1       4.531   4.083  14.705  0.00  0.00    +0.000 HD
ATOM     11  H   UNL     1       8.334   4.716  15.830  0.00  0.00    +0.000 HD
ENDROOT
BRANCH   1  12
ATOM     12  C   UNL     1       5.145   4.404  19.207  0.00  0.00    +0.000 C 
ATOM     13  O   UNL     1       4.678   5.331  19.849  0.00  0.00    +0.000 OA
BRANCH  12  15
ATOM     14  C   UNL     1       4.168   2.462  20.062  0.00  0.00    +0.000 C 
ATOM     15  O   UNL     1       5.363   3.161  19.709  0.00  0.00    +0.000 OA
ENDBRANCH  12  15
ENDBRANCH   1  12
TORSDOF 2
ENDMDL
MODEL 4
REMARK VINA RESULT:      -5.4      0.857      2.461
REMARK  Name = 
REMARK  5 active torsions:
REMARK  status: ('A' for Active; 'I' for Inactive)
REMARK    1  A    between atoms: C_1  and  O_2
REMARK    2  A    between atoms: O_2  and  C_3
REMARK    3  A    between atoms: C_3  and  C_5
REMARK    4  A    between atoms: C_6  and  C_7
REMARK    5  A    between atoms: C_12  and  C_13
REMARK                            x       y       z     vdW  Elec       q    Type
REMARK                         _______ _______ _______ _____ _____    ______ ____
ROOT
ATOM      1  C   UNL     1       3.223   4.210  18.739  0.00  0.00    +0.000 C 
ATOM      2  C   UNL     1       3.570   5.514  18.673  0.00  0.00    +0.000 C 
ATOM      3  C   UNL     1       2.666   6.721  18.611  0.00  0.00    +0.000 C 
ATOM      4  N   UNL     1       4.909   5.842  18.635  0.00  0.00    +0.000 N 
ATOM      5  C   UNL     1       5.932   4.955  18.560  0.00  0.00    +0.000 C 
ATOM      6  S   UNL     1       7.511   5.453  18.438  0.00  0.00    +0.000 S 
ATOM      7  N   UNL     1       5.607   3.643  18.554  0.00  0.00    +0.000 N 
ATOM      8  C   UNL     1       4.271   3.117  18.808  0.00  0.00    +0.000 C 
ATOM      9  C   UNL     1       4.280   2.386  20.154  0.00  0.00    +0.000 C 
ATOM     10  H   UNL     1       5.176   6.822  18.592  0.00  0.00    +0.000 HD
ATOM     11  H   UNL     1       6.380   2.992  18.485  0.00  0.00    +0.000 HD
ENDROOT
BRANCH   1  12
ATOM     12  C   UNL     1       1.798   3.770  18.745  0.00  0.00    +0.000 C 
ATOM     13  O   UNL     1       1.238   3.165  17.844  0.00  0.00    +0.000 OA
BRANCH  12  15
ATOM     14  C   UNL     1       1.044   3.089  20.848  0.00  0.00    +0.000 C 
ATOM     15  O   UNL     1       1.195   4.148  19.901  0.00  0.00    +0.000 OA
ENDBRANCH  12  15
ENDBRANCH   1  12
TORSDOF 2
ENDMDL
MODEL 5
REMARK VINA RESULT:      -5.4      2.858      3.970
REMARK  Name = 
REMARK  5 active torsions:
REMARK  status: ('A' for Active; 'I' for Inactive)
REMARK    1  A    between atoms: C_1  and  O_2
REMARK    2  A    between atoms: O_2  and  C_3
REMARK    3  A    between atoms: C_3  and  C_5
REMARK    4  A    between atoms: C_6  and  C_7
REMARK    5  A    between atoms: C_12  and  C_13
REMARK                            x       y       z     vdW  Elec       q    Type
REMARK                         _______ _______ _______ _____ _____    ______ ____
ROOT
ATOM      1  C   UNL     1       3.294   4.931  19.442  0.00  0.00    +0.000 C 
ATOM      2  C   UNL     1       3.359   6.081  18.734  0.00  0.00    +0.000 C 
ATOM      3  C   UNL     1       4.173   6.373  17.498  0.00  0.00    +0.000 C 
ATOM      4  N   UNL     1       2.624   7.165  19.165  0.00  0.00    +0.000 N 
ATOM      5  C   UNL     1       1.899   7.217  20.310  0.00  0.00    +0.000 C 
ATOM      6  S   UNL     1       1.110   8.600  20.781  0.00  0.00    +0.000 S 
ATOM      7  N   UNL     1       1.874   6.100  21.071  0.00  0.00    +0.000 N 
ATOM      8  C   UNL     1       2.407   4.806  20.664  0.00  0.00    +0.000 C 
ATOM      9  C   UNL     1       1.238   3.839  20.454  0.00  0.00    +0.000 C 
ATOM     10  H   UNL     1       2.664   8.030  18.633  0.00  0.00    +0.000 HD
ATOM     11  H   UNL     1       1.339   6.158  21.930  0.00  0.00    +0.000 HD
ENDROOT
BRANCH   1  12
ATOM     12  C   UNL     1       4.087   3.725  19.066  0.00  0.00    +0.000 C 
ATOM     13  O   UNL     1       5.125   3.365  19.598  0.00  0.00    +0.000 OA
BRANCH  12  15
ATOM     14  C   UNL     1       3.322   1.676  18.246  0.00  0.00    +0.000 C 
ATOM     15  O   UNL     1       3.496   3.078  18.030  0.00  0.00    +0.000 OA
ENDBRANCH  12  15
ENDBRANCH   1  12
TORSDOF 2
ENDMDL
MODEL 6
REMARK VINA RESULT:      -5.3      1.275      2.923
REMARK  Name = 
REMARK  5 active torsions:
REMARK  status: ('A' for Active; 'I' for Inactive)
REMARK    1  A    between atoms: C_1  and  O_2
REMARK    2  A    between atoms: O_2  and  C_3
REMARK    3  A    between atoms: C_3  and  C_5
REMARK    4  A    between atoms: C_6  and  C_7
REMARK    5  A    between atoms: C_12  and  C_13
REMARK                            x       y       z     vdW  Elec       q    Type
REMARK                         _______ _______ _______ _____ _____    ______ ____
ROOT
ATOM      1  C   UNL     1       3.068   3.374  20.130  0.00  0.00    +0.000 C 
ATOM      2  C   UNL     1       3.088   4.725  20.147  0.00  0.00    +0.000 C 
ATOM      3  C   UNL     1       1.998   5.671  20.588  0.00  0.00    +0.000 C 
ATOM      4  N   UNL     1       4.217   5.376  19.696  0.00  0.00    +0.000 N 
ATOM      5  C   UNL     1       5.297   4.777  19.136  0.00  0.00    +0.000 C 
ATOM      6  S   UNL     1       6.576   5.657  18.550  0.00  0.00    +0.000 S 
ATOM      7  N   UNL     1       5.271   3.428  19.043  0.00  0.00    +0.000 N 
ATOM      8  C   UNL     1       4.267   2.573  19.663  0.00  0.00    +0.000 C 
ATOM      9  C   UNL     1       4.929   1.779  20.793  0.00  0.00    +0.000 C 
ATOM     10  H   UNL     1       4.240   6.392  19.713  0.00  0.00    +0.000 HD
ATOM     11  H   UNL     1       6.079   2.996  18.611  0.00  0.00    +0.000 HD
ENDROOT
BRANCH   1  12
ATOM     12  C   UNL     1       1.872   2.595  20.564  0.00  0.00    +0.000 C 
ATOM     13  O   UNL     1       1.367   2.632  21.674  0.00  0.00    +0.000 OA
BRANCH  12  15
ATOM     14  C   UNL     1       0.612   2.522  18.599  0.00  0.00    +0.000 C 
ATOM     15  O   UNL     1       1.421   1.820  19.545  0.00  0.00    +0.000 OA
ENDBRANCH  12  15
ENDBRANCH   1  12
TORSDOF 2
ENDMDL
MODEL 7
REMARK VINA RESULT:      -5.3      1.696      1.988
REMARK  Name = 
REMARK  5 active torsions:
REMARK  status: ('A' for Active; 'I' for Inactive)
REMARK    1  A    between atoms: C_1  and  O_2
REMARK    2  A    between atoms: O_2  and  C_3
REMARK    3  A    between atoms: C_3  and  C_5
REMARK    4  A    between atoms: C_6  and  C_7
REMARK    5  A    between atoms: C_12  and  C_13
REMARK                            x       y       z     vdW  Elec       q    Type
REMARK                         _______ _______ _______ _____ _____    ______ ____
ROOT
ATOM      1  C   UNL     1       3.873   3.830  18.062  0.00  0.00    +0.000 C 
ATOM      2  C   UNL     1       4.639   3.410  19.093  0.00  0.00    +0.000 C 
ATOM      3  C   UNL     1       4.341   2.325  20.098  0.00  0.00    +0.000 C 
ATOM      4  N   UNL     1       5.850   4.033  19.314  0.00  0.00    +0.000 N 
ATOM      5  C   UNL     1       6.312   5.113  18.638  0.00  0.00    +0.000 C 
ATOM      6  S   UNL     1       7.751   5.840  19.033  0.00  0.00    +0.000 S 
ATOM      7  N   UNL     1       5.531   5.596  17.645  0.00  0.00    +0.000 N 
ATOM      8  C   UNL     1       4.336   4.936  17.134  0.00  0.00    +0.000 C 
ATOM      9  C   UNL     1       4.620   4.439  15.713  0.00  0.00    +0.000 C 
ATOM     10  H   UNL     1       6.433   3.717  20.084  0.00  0.00    +0.000 HD
ATOM     11  H   UNL     1       5.883   6.411  17.157  0.00  0.00    +0.000 HD
ENDROOT
BRANCH   1  12
ATOM     12  C   UNL     1       2.534   3.237  17.778  0.00  0.00    +0.000 C 
ATOM     13  O   UNL     1       2.335   2.176  17.207  0.00  0.00    +0.000 OA
BRANCH  12  15
ATOM     14  C   UNL     1       0.921   3.583  19.431  0.00  0.00    +0.000 C 
ATOM     15  O   UNL     1       1.552   4.053  18.239  0.00  0.00    +0.000 OA
ENDBRANCH  12  15
ENDBRANCH   1  12
TORSDOF 2
ENDMDL
MODEL 8
REMARK VINA RESULT:      -5.3      1.100      1.511
REMARK  Name = 
REMARK  5 active torsions:
REMARK  status: ('A' for Active; 'I' for Inactive)
REMARK    1  A    between atoms: C_1  and  O_2
REMARK    2  A    between atoms: O_2  and  C_3
REMARK    3  A    between atoms: C_3  and  C_5
REMARK    4  A    between atoms: C_6  and  C_7
REMARK    5  A    between atoms: C_12  and  C_13
REMARK                            x       y       z     vdW  Elec       q    Type
REMARK                         _______ _______ _______ _____ _____    ______ ____
ROOT
ATOM      1  C   UNL     1       3.459   4.249  19.663  0.00  0.00    +0.000 C 
ATOM      2  C   UNL     1       4.322   3.238  19.420  0.00  0.00    +0.000 C 
ATOM      3  C   UNL     1       4.163   1.773  19.747  0.00  0.00    +0.000 C 
ATOM      4  N   UNL     1       5.527   3.527  18.815  0.00  0.00    +0.000 N 
ATOM      5  C   UNL     1       5.978   4.772  18.521  0.00  0.00    +0.000 C 
ATOM      6  S   UNL     1       7.481   5.023  17.864  0.00  0.00    +0.000 S 
ATOM      7  N   UNL     1       5.160   5.807  18.820  0.00  0.00    +0.000 N 
ATOM      8  C   UNL     1       3.775   5.673  19.254  0.00  0.00    +0.000 C 
ATOM      9  C   UNL     1       2.860   6.188  18.139  0.00  0.00    +0.000 C 
ATOM     10  H   UNL     1       6.177   2.771  18.624  0.00  0.00    +0.000 HD
ATOM     11  H   UNL     1       5.516   6.732  18.606  0.00  0.00    +0.000 HD
ENDROOT
BRANCH   1  12
ATOM     12  C   UNL     1       2.152   4.025  20.348  0.00  0.00    +0.000 C 
ATOM     13  O   UNL     1       1.993   3.911  21.553  0.00  0.00    +0.000 OA
BRANCH  12  15
ATOM     14  C   UNL     1       0.732   2.622  19.137  0.00  0.00    +0.000 C 
ATOM     15  O   UNL     1       1.150   3.955  19.436  0.00  0.00    +0.000 OA
ENDBRANCH  12  15
ENDBRANCH   1  12
TORSDOF 2
ENDMDL
MODEL 9
REMARK VINA RESULT:      -5.2      2.624      3.531
REMARK  Name = 
REMARK  5 active torsions:
REMARK  status: ('A' for Active; 'I' for Inactive)
REMARK    1  A    between atoms: C_1  and  O_2
REMARK    2  A    between atoms: O_2  and  C_3
REMARK    3  A    between atoms: C_3  and  C_5
REMARK    4  A    between atoms: C_6  and  C_7
REMARK    5  A    between atoms: C_12  and  C_13
REMARK                            x       y       z     vdW  Elec       q    Type
REMARK                         _______ _______ _______ _____ _____    ______ ____
ROOT
ATOM      1  C   UNL     1       3.555   3.997  19.703  0.00  0.00    +0.000 C 
ATOM      2  C   UNL     1       2.611   4.199  20.649  0.00  0.00    +0.000 C 
ATOM      3  C   UNL     1       1.992   3.190  21.583  0.00  0.00    +0.000 C 
ATOM      4  N   UNL     1       2.098   5.469  20.810  0.00  0.00    +0.000 N 
ATOM      5  C   UNL     1       2.389   6.538  20.028  0.00  0.00    +0.000 C 
ATOM      6  S   UNL     1       1.656   8.010  20.254  0.00  0.00    +0.000 S 
ATOM      7  N   UNL     1       3.280   6.343  19.029  0.00  0.00    +0.000 N 
ATOM      8  C   UNL     1       4.078   5.137  18.853  0.00  0.00    +0.000 C 
ATOM      9  C   UNL     1       5.544   5.472  19.145  0.00  0.00    +0.000 C 
ATOM     10  H   UNL     1       1.392   5.629  21.523  0.00  0.00    +0.000 HD
ATOM     11  H   UNL     1       3.477   7.147  18.445  0.00  0.00    +0.000 HD
ENDROOT
BRANCH   1  12
ATOM     12  C   UNL     1       4.133   2.647  19.439  0.00  0.00    +0.000 C 
ATOM     13  O   UNL     1       4.791   1.990  20.230  0.00  0.00    +0.000 OA
BRANCH  12  15
ATOM     14  C   UNL     1       2.445   1.980  17.970  0.00  0.00    +0.000 C 
ATOM     15  O   UNL     1       3.833   2.246  18.177  0.00  0.00    +0.000 OA
ENDBRANCH  12  15
ENDBRANCH   1  12
TORSDOF 2
ENDMDL
