MODEL 1
REMARK VINA RESULT:      -7.2      0.000      0.000
REMARK  Name = 
REMARK  11 active torsions:
REMARK  status: ('A' for Active; 'I' for Inactive)
REMARK    1  A    between atoms: C_1  and  O_2
REMARK    2  A    between atoms: O_2  and  C_3
REMARK    3  A    between atoms: C_3  and  C_5
REMARK    4  A    between atoms: C_5  and  C_6
REMARK    5  A    between atoms: C_6  and  C_7
REMARK    6  A    between atoms: C_7  and  N_8
REMARK    7  A    between atoms: C_7  and  C_19
REMARK    8  A    between atoms: C_9  and  C_11
REMARK    9  A    between atoms: C_12  and  C_13
REMARK   10  A    between atoms: C_19  and  O_21
REMARK   11  A    between atoms: O_21  and  C_22
REMARK                            x       y       z     vdW  Elec       q    Type
REMARK                         _______ _______ _______ _____ _____    ______ ____
ROOT
ATOM      1  N   UNL     1       7.026   6.958  16.664  0.00  0.00    +0.000 N 
ATOM      2  C   UNL     1       7.705   7.320  17.798  0.00  0.00    +0.000 C 
ATOM      3  O   UNL     1       7.944   6.549  18.719  0.00  0.00    +0.000 OA
ATOM      4  H   UNL     1       6.864   7.626  15.918  0.00  0.00    +0.000 HD
ENDROOT
BRANCH   2   5
ATOM      5  C   UNL     1       8.111   8.749  17.816  0.00  0.00    +0.000 C 
ATOM      6  C   UNL     1       8.891   9.217  18.805  0.00  0.00    +0.000 C 
BRANCH   6   7
ATOM      7  C   UNL     1       9.274  10.630  18.974  0.00  0.00    +0.000 A 
ATOM      8  C   UNL     1       8.963  11.542  17.954  0.00  0.00    +0.000 A 
ATOM      9  C   UNL     1       9.330  12.887  18.058  0.00  0.00    +0.000 A 
ATOM     10  C   UNL     1      10.001  13.342  19.190  0.00  0.00    +0.000 A 
ATOM     11  C   UNL     1      10.292  12.455  20.224  0.00  0.00    +0.000 A 
ATOM     12  C   UNL     1       9.924  11.109  20.120  0.00  0.00    +0.000 A 
ENDBRANCH   6   7
ENDBRANCH   2   5
BRANCH   1  13
ATOM     13  C   UNL     1       6.461   5.613  16.494  0.00  0.00    +0.000 C 
BRANCH  13  14
ATOM     14  C   UNL     1       6.969   5.055  15.161  0.00  0.00    +0.000 C 
ATOM     15  O   UNL     1       7.861   5.564  14.493  0.00  0.00    +0.000 OA
BRANCH  14  16
ATOM     16  O   UNL     1       6.262   3.942  14.816  0.00  0.00    +0.000 OA
ATOM     17  C   UNL     1       6.121   3.738  13.410  0.00  0.00    +0.000 C 
ENDBRANCH  14  16
ENDBRANCH  13  14
BRANCH  13  18
ATOM     18  C   UNL     1       4.926   5.659  16.523  0.00  0.00    +0.000 C 
BRANCH  18  19
ATOM     19  C   UNL     1       4.321   5.185  17.849  0.00  0.00    +0.000 C 
BRANCH  19  20
ATOM     20  C   UNL     1       3.015   4.456  17.641  0.00  0.00    +0.000 C 
ATOM     21  O   UNL     1       2.879   3.417  17.016  0.00  0.00    +0.000 OA
BRANCH  20  23
ATOM     22  C   UNL     1       2.463   5.921  19.381  0.00  0.00    +0.000 C 
ATOM     23  O   UNL     1       2.011   5.119  18.287  0.00  0.00    +0.000 OA
ENDBRANCH  20  23
ENDBRANCH  19  20
ENDBRANCH  18  19
ENDBRANCH  13  18
ENDBRANCH   1  13
TORSDOF 9
ENDMDL
MODEL 2
REMARK VINA RESULT:      -7.2      1.073      1.530
REMARK  Name = 
REMARK  11 active torsions:
REMARK  status: ('A' for Active; 'I' for Inactive)
REMARK    1  A    between atoms: C_1  and  O_2
REMARK    2  A    between atoms: O_2  and  C_3
REMARK    3  A    between atoms: C_3  and  C_5
REMARK    4  A    between atoms: C_5  and  C_6
REMARK    5  A    between atoms: C_6  and  C_7
REMARK    6  A    between atoms: C_7  and  N_8
REMARK    7  A    between atoms: C_7  and  C_19
REMARK    8  A    between atoms: C_9  and  C_11
REMARK    9  A    between atoms: C_12  and  C_13
REMARK   10  A    between atoms: C_19  and  O_21
REMARK   11  A    between atoms: O_21  and  C_22
REMARK                            x       y       z     vdW  Elec       q    Type
REMARK                         _______ _______ _______ _____ _____    ______ ____
ROOT
ATOM      1  N   UNL     1       7.025   6.724  16.452  0.00  0.00    +0.000 N 
ATOM      2  C   UNL     1       7.624   7.039  17.644  0.00  0.00    +0.000 C 
ATOM      3  O   UNL     1       7.838   6.222  18.530  0.00  0.00    +0.000 OA
ATOM      4  H   UNL     1       6.881   7.429  15.737  0.00  0.00    +0.000 HD
ENDROOT
BRANCH   2   5
ATOM      5  C   UNL     1       7.976   8.477  17.768  0.00  0.00    +0.000 C 
ATOM      6  C   UNL     1       8.824   8.883  18.728  0.00  0.00    +0.000 C 
BRANCH   6   7
ATOM      7  C   UNL     1       9.168  10.290  19.003  0.00  0.00    +0.000 A 
ATOM      8  C   UNL     1       9.573  10.646  20.298  0.00  0.00    +0.000 A 
ATOM      9  C   UNL     1       9.884  11.973  20.614  0.00  0.00    +0.000 A 
ATOM     10  C   UNL     1       9.808  12.959  19.634  0.00  0.00    +0.000 A 
ATOM     11  C   UNL     1       9.435  12.616  18.337  0.00  0.00    +0.000 A 
ATOM     12  C   UNL     1       9.125  11.289  18.022  0.00  0.00    +0.000 A 
ENDBRANCH   6   7
ENDBRANCH   2   5
BRANCH   1  13
ATOM     13  C   UNL     1       6.519   5.374  16.171  0.00  0.00    +0.000 C 
BRANCH  13  14
ATOM     14  C   UNL     1       6.794   5.067  14.696  0.00  0.00    +0.000 C 
ATOM     15  O   UNL     1       7.793   5.433  14.087  0.00  0.00    +0.000 OA
BRANCH  14  16
ATOM     16  O   UNL     1       5.755   4.367  14.158  0.00  0.00    +0.000 OA
ATOM     17  C   UNL     1       6.097   3.571  13.024  0.00  0.00    +0.000 C 
ENDBRANCH  14  16
ENDBRANCH  13  14
BRANCH  13  18
ATOM     18  C   UNL     1       5.019   5.278  16.484  0.00  0.00    +0.000 C 
BRANCH  18  19
ATOM     19  C   UNL     1       4.613   3.961  17.156  0.00  0.00    +0.000 C 
BRANCH  19  20
ATOM     20  C   UNL     1       4.601   4.079  18.661  0.00  0.00    +0.000 C 
ATOM     21  O   UNL     1       5.464   3.651  19.409  0.00  0.00    +0.000 OA
BRANCH  20  23
ATOM     22  C   UNL     1       2.262   4.120  18.727  0.00  0.00    +0.000 C 
ATOM     23  O   UNL     1       3.491   4.770  19.058  0.00  0.00    +0.000 OA
ENDBRANCH  20  23
ENDBRANCH  19  20
ENDBRANCH  18  19
ENDBRANCH  13  18
ENDBRANCH   1  13
TORSDOF 9
ENDMDL
MODEL 3
REMARK VINA RESULT:      -7.1      0.708      1.500
REMARK  Name = 
REMARK  11 active torsions:
REMARK  status: ('A' for Active; 'I' for Inactive)
REMARK    1  A    between atoms: C_1  and  O_2
REMARK    2  A    between atoms: O_2  and  C_3
REMARK    3  A    between atoms: C_3  and  C_5
REMARK    4  A    between atoms: C_5  and  C_6
REMARK    5  A    between atoms: C_6  and  C_7
REMARK    6  A    between atoms: C_7  and  N_8
REMARK    7  A    between atoms: C_7  and  C_19
REMARK    8  A    between atoms: C_9  and  C_11
REMARK    9  A    between atoms: C_12  and  C_13
REMARK   10  A    between atoms: C_19  and  O_21
REMARK   11  A    between atoms: O_21  and  C_22
REMARK                            x       y       z     vdW  Elec       q    Type
REMARK                         _______ _______ _______ _____ _____    ______ ____
ROOT
ATOM      1  N   UNL     1       6.976   6.814  16.570  0.00  0.00    +0.000 N 
ATOM      2  C   UNL     1       7.616   7.154  17.734  0.00  0.00    +0.000 C 
ATOM      3  O   UNL     1       7.864   6.355  18.628  0.00  0.00    +0.000 OA
ATOM      4  H   UNL     1       6.804   7.505  15.848  0.00  0.00    +0.000 HD
ENDROOT
BRANCH   2   5
ATOM      5  C   UNL     1       7.967   8.595  17.818  0.00  0.00    +0.000 C 
ATOM      6  C   UNL     1       8.828   9.026  18.755  0.00  0.00    +0.000 C 
BRANCH   6   7
ATOM      7  C   UNL     1       9.174  10.439  18.991  0.00  0.00    +0.000 A 
ATOM      8  C   UNL     1       9.443  10.860  20.302  0.00  0.00    +0.000 A 
ATOM      9  C   UNL     1       9.750  12.197  20.577  0.00  0.00    +0.000 A 
ATOM     10  C   UNL     1       9.805  13.127  19.544  0.00  0.00    +0.000 A 
ATOM     11  C   UNL     1       9.568  12.719  18.234  0.00  0.00    +0.000 A 
ATOM     12  C   UNL     1       9.263  11.382  17.958  0.00  0.00    +0.000 A 
ENDBRANCH   6   7
ENDBRANCH   2   5
BRANCH   1  13
ATOM     13  C   UNL     1       6.464   5.457  16.334  0.00  0.00    +0.000 C 
BRANCH  13  14
ATOM     14  C   UNL     1       6.787   5.080  14.885  0.00  0.00    +0.000 C 
ATOM     15  O   UNL     1       7.800   5.425  14.289  0.00  0.00    +0.000 OA
BRANCH  14  16
ATOM     16  O   UNL     1       5.770   4.345  14.352  0.00  0.00    +0.000 OA
ATOM     17  C   UNL     1       6.102   3.654  13.148  0.00  0.00    +0.000 C 
ENDBRANCH  14  16
ENDBRANCH  13  14
BRANCH  13  18
ATOM     18  C   UNL     1       4.953   5.390  16.598  0.00  0.00    +0.000 C 
BRANCH  18  19
ATOM     19  C   UNL     1       4.596   4.942  18.021  0.00  0.00    +0.000 C 
BRANCH  19  20
ATOM     20  C   UNL     1       3.164   4.475  18.119  0.00  0.00    +0.000 C 
ATOM     21  O   UNL     1       2.187   5.119  17.773  0.00  0.00    +0.000 OA
BRANCH  20  23
ATOM     22  C   UNL     1       2.402   2.284  17.809  0.00  0.00    +0.000 C 
ATOM     23  O   UNL     1       3.128   3.207  18.624  0.00  0.00    +0.000 OA
ENDBRANCH  20  23
ENDBRANCH  19  20
ENDBRANCH  18  19
ENDBRANCH  13  18
ENDBRANCH   1  13
TORSDOF 9
ENDMDL
MODEL 4
REMARK VINA RESULT:      -7.0      1.016      1.298
REMARK  Name = 
REMARK  11 active torsions:
REMARK  status: ('A' for Active; 'I' for Inactive)
REMARK    1  A    between atoms: C_1  and  O_2
REMARK    2  A    between atoms: O_2  and  C_3
REMARK    3  A    between atoms: C_3  and  C_5
REMARK    4  A    between atoms: C_5  and  C_6
REMARK    5  A    between atoms: C_6  and  C_7
REMARK    6  A    between atoms: C_7  and  N_8
REMARK    7  A    between atoms: C_7  and  C_19
REMARK    8  A    between atoms: C_9  and  C_11
REMARK    9  A    between atoms: C_12  and  C_13
REMARK   10  A    between atoms: C_19  and  O_21
REMARK   11  A    between atoms: O_21  and  C_22
REMARK                            x       y       z     vdW  Elec       q    Type
REMARK                         _______ _______ _______ _____ _____    ______ ____
ROOT
ATOM      1  N   UNL     1       6.907   7.460  17.103  0.00  0.00    +0.000 N 
ATOM      2  C   UNL     1       7.887   7.772  18.010  0.00  0.00    +0.000 C 
ATOM      3  O   UNL     1       8.327   6.977  18.831  0.00  0.00    +0.000 OA
ATOM      4  H   UNL     1       6.582   8.146  16.430  0.00  0.00    +0.000 HD
ENDROOT
BRANCH   2   5
ATOM      5  C   UNL     1       8.355   9.180  17.916  0.00  0.00    +0.000 C 
ATOM      6  C   UNL     1       9.084   9.715  18.910  0.00  0.00    +0.000 C 
BRANCH   6   7
ATOM      7  C   UNL     1       9.519  11.122  18.967  0.00  0.00    +0.000 A 
ATOM      8  C   UNL     1       9.099  12.001  17.956  0.00  0.00    +0.000 A 
ATOM      9  C   UNL     1       9.508  13.338  17.953  0.00  0.00    +0.000 A 
ATOM     10  C   UNL     1      10.330  13.819  18.969  0.00  0.00    +0.000 A 
ATOM     11  C   UNL     1      10.731  12.967  19.994  0.00  0.00    +0.000 A 
ATOM     12  C   UNL     1      10.321  11.629  19.997  0.00  0.00    +0.000 A 
ENDBRANCH   6   7
ENDBRANCH   2   5
BRANCH   1  13
ATOM     13  C   UNL     1       6.248   6.148  17.094  0.00  0.00    +0.000 C 
BRANCH  13  14
ATOM     14  C   UNL     1       6.947   5.279  16.045  0.00  0.00    +0.000 C 
ATOM     15  O   UNL     1       7.865   4.504  16.288  0.00  0.00    +0.000 OA
BRANCH  14  16
ATOM     16  O   UNL     1       6.428   5.523  14.809  0.00  0.00    +0.000 OA
ATOM     17  C   UNL     1       7.029   4.774  13.752  0.00  0.00    +0.000 C 
ENDBRANCH  14  16
ENDBRANCH  13  14
BRANCH  13  18
ATOM     18  C   UNL     1       4.751   6.291  16.783  0.00  0.00    +0.000 C 
BRANCH  18  19
ATOM     19  C   UNL     1       3.917   5.074  17.197  0.00  0.00    +0.000 C 
BRANCH  19  20
ATOM     20  C   UNL     1       2.886   5.429  18.242  0.00  0.00    +0.000 C 
ATOM     21  O   UNL     1       3.098   6.090  19.244  0.00  0.00    +0.000 OA
BRANCH  20  23
ATOM     22  C   UNL     1       1.506   3.539  18.193  0.00  0.00    +0.000 C 
ATOM     23  O   UNL     1       1.671   4.923  17.878  0.00  0.00    +0.000 OA
ENDBRANCH  20  23
ENDBRANCH  19  20
ENDBRANCH  18  19
ENDBRANCH  13  18
ENDBRANCH   1  13
TORSDOF 9
ENDMDL
MODEL 5
REMARK VINA RESULT:      -7.0      0.982      1.505
REMARK  Name = 
REMARK  11 active torsions:
REMARK  status: ('A' for Active; 'I' for Inactive)
REMARK    1  A    between atoms: C_1  and  O_2
REMARK    2  A    between atoms: O_2  and  C_3
REMARK    3  A    between atoms: C_3  and  C_5
REMARK    4  A    between atoms: C_5  and  C_6
REMARK    5  A    between atoms: C_6  and  C_7
REMARK    6  A    between atoms: C_7  and  N_8
REMARK    7  A    between atoms: C_7  and  C_19
REMARK    8  A    between atoms: C_9  and  C_11
REMARK    9  A    between atoms: C_12  and  C_13
REMARK   10  A    between atoms: C_19  and  O_21
REMARK   11  A    between atoms: O_21  and  C_22
REMARK                            x       y       z     vdW  Elec       q    Type
REMARK                         _______ _______ _______ _____ _____    ______ ____
ROOT
ATOM      1  N   UNL     1       7.270   6.572  16.548  0.00  0.00    +0.000 N 
ATOM      2  C   UNL     1       7.710   6.998  17.774  0.00  0.00    +0.000 C 
ATOM      3  O   UNL     1       7.839   6.259  18.742  0.00  0.00    +0.000 OA
ATOM      4  H   UNL     1       7.193   7.216  15.768  0.00  0.00    +0.000 HD
ENDROOT
BRANCH   2   5
ATOM      5  C   UNL     1       8.001   8.455  17.826  0.00  0.00    +0.000 C 
ATOM      6  C   UNL     1       8.822   8.945  18.770  0.00  0.00    +0.000 C 
BRANCH   6   7
ATOM      7  C   UNL     1       9.106  10.377  18.973  0.00  0.00    +0.000 A 
ATOM      8  C   UNL     1       9.457  10.821  20.257  0.00  0.00    +0.000 A 
ATOM      9  C   UNL     1       9.709  12.174  20.504  0.00  0.00    +0.000 A 
ATOM     10  C   UNL     1       9.626  13.100  19.467  0.00  0.00    +0.000 A 
ATOM     11  C   UNL     1       9.306  12.671  18.182  0.00  0.00    +0.000 A 
ATOM     12  C   UNL     1       9.056  11.317  17.935  0.00  0.00    +0.000 A 
ENDBRANCH   6   7
ENDBRANCH   2   5
BRANCH   1  13
ATOM     13  C   UNL     1       6.842   5.186  16.316  0.00  0.00    +0.000 C 
BRANCH  13  14
ATOM     14  C   UNL     1       7.029   4.879  14.828  0.00  0.00    +0.000 C 
ATOM     15  O   UNL     1       7.805   5.476  14.090  0.00  0.00    +0.000 OA
BRANCH  14  16
ATOM     16  O   UNL     1       6.185   3.881  14.442  0.00  0.00    +0.000 OA
ATOM     17  C   UNL     1       6.139   3.650  13.034  0.00  0.00    +0.000 C 
ENDBRANCH  14  16
ENDBRANCH  13  14
BRANCH  13  18
ATOM     18  C   UNL     1       5.380   4.988  16.741  0.00  0.00    +0.000 C 
BRANCH  18  19
ATOM     19  C   UNL     1       4.584   6.295  16.835  0.00  0.00    +0.000 C 
BRANCH  19  20
ATOM     20  C   UNL     1       3.394   6.162  17.754  0.00  0.00    +0.000 C 
ATOM     21  O   UNL     1       2.693   5.170  17.862  0.00  0.00    +0.000 OA
BRANCH  20  23
ATOM     22  C   UNL     1       2.460   8.308  17.807  0.00  0.00    +0.000 C 
ATOM     23  O   UNL     1       3.239   7.313  18.474  0.00  0.00    +0.000 OA
ENDBRANCH  20  23
ENDBRANCH  19  20
ENDBRANCH  18  19
ENDBRANCH  13  18
ENDBRANCH   1  13
TORSDOF 9
ENDMDL
MODEL 6
REMARK VINA RESULT:      -6.9      1.138      1.917
REMARK  Name = 
REMARK  11 active torsions:
REMARK  status: ('A' for Active; 'I' for Inactive)
REMARK    1  A    between atoms: C_1  and  O_2
REMARK    2  A    between atoms: O_2  and  C_3
REMARK    3  A    between atoms: C_3  and  C_5
REMARK    4  A    between atoms: C_5  and  C_6
REMARK    5  A    between atoms: C_6  and  C_7
REMARK    6  A    between atoms: C_7  and  N_8
REMARK    7  A    between atoms: C_7  and  C_19
REMARK    8  A    between atoms: C_9  and  C_11
REMARK    9  A    between atoms: C_12  and  C_13
REMARK   10  A    between atoms: C_19  and  O_21
REMARK   11  A    between atoms: O_21  and  C_22
REMARK                            x       y       z     vdW  Elec       q    Type
REMARK                         _______ _______ _______ _____ _____    ______ ____
ROOT
ATOM      1  N   UNL     1       6.773   6.957  16.800  0.00  0.00    +0.000 N 
ATOM      2  C   UNL     1       7.618   7.327  17.814  0.00  0.00    +0.000 C 
ATOM      3  O   UNL     1       7.930   6.588  18.739  0.00  0.00    +0.000 OA
ATOM      4  H   UNL     1       6.554   7.596  16.044  0.00  0.00    +0.000 HD
ENDROOT
BRANCH   2   5
ATOM      5  C   UNL     1       8.108   8.725  17.696  0.00  0.00    +0.000 C 
ATOM      6  C   UNL     1       8.784   9.291  18.711  0.00  0.00    +0.000 C 
BRANCH   6   7
ATOM      7  C   UNL     1       9.233  10.694  18.740  0.00  0.00    +0.000 A 
ATOM      8  C   UNL     1      10.158  11.088  19.719  0.00  0.00    +0.000 A 
ATOM      9  C   UNL     1      10.592  12.415  19.803  0.00  0.00    +0.000 A 
ATOM     10  C   UNL     1      10.118  13.363  18.901  0.00  0.00    +0.000 A 
ATOM     11  C   UNL     1       9.220  12.982  17.906  0.00  0.00    +0.000 A 
ATOM     12  C   UNL     1       8.787  11.654  17.821  0.00  0.00    +0.000 A 
ENDBRANCH   6   7
ENDBRANCH   2   5
BRANCH   1  13
ATOM     13  C   UNL     1       6.109   5.647  16.783  0.00  0.00    +0.000 C 
BRANCH  13  14
ATOM     14  C   UNL     1       6.649   4.862  15.584  0.00  0.00    +0.000 C 
ATOM     15  O   UNL     1       6.370   3.694  15.339  0.00  0.00    +0.000 OA
BRANCH  14  16
ATOM     16  O   UNL     1       7.506   5.637  14.861  0.00  0.00    +0.000 OA
ATOM     17  C   UNL     1       7.653   5.248  13.495  0.00  0.00    +0.000 C 
ENDBRANCH  14  16
ENDBRANCH  13  14
BRANCH  13  18
ATOM     18  C   UNL     1       4.585   5.809  16.696  0.00  0.00    +0.000 C 
BRANCH  18  19
ATOM     19  C   UNL     1       3.807   4.753  17.490  0.00  0.00    +0.000 C 
BRANCH  19  20
ATOM     20  C   UNL     1       4.065   4.864  18.973  0.00  0.00    +0.000 C 
ATOM     21  O   UNL     1       3.793   5.830  19.667  0.00  0.00    +0.000 OA
BRANCH  20  23
ATOM     22  C   UNL     1       3.889   2.531  19.063  0.00  0.00    +0.000 C 
ATOM     23  O   UNL     1       4.621   3.703  19.430  0.00  0.00    +0.000 OA
ENDBRANCH  20  23
ENDBRANCH  19  20
ENDBRANCH  18  19
ENDBRANCH  13  18
ENDBRANCH   1  13
TORSDOF 9
ENDMDL
MODEL 7
REMARK VINA RESULT:      -6.8      1.132      1.424
REMARK  Name = 
REMARK  11 active torsions:
REMARK  status: ('A' for Active; 'I' for Inactive)
REMARK    1  A    between atoms: C_1  and  O_2
REMARK    2  A    between atoms: O_2  and  C_3
REMARK    3  A    between atoms: C_3  and  C_5
REMARK    4  A    between atoms: C_5  and  C_6
REMARK    5  A    between atoms: C_6  and  C_7
REMARK    6  A    between atoms: C_7  and  N_8
REMARK    7  A    between atoms: C_7  and  C_19
REMARK    8  A    between atoms: C_9  and  C_11
REMARK    9  A    between atoms: C_12  and  C_13
REMARK   10  A    between atoms: C_19  and  O_21
REMARK   11  A    between atoms: O_21  and  C_22
REMARK                            x       y       z     vdW  Elec       q    Type
REMARK                         _______ _______ _______ _____ _____    ______ ____
ROOT
ATOM      1  N   UNL     1       6.960   7.627  16.956  0.00  0.00    +0.000 N 
ATOM      2  C   UNL     1       7.859   7.879  17.960  0.00  0.00    +0.000 C 
ATOM      3  O   UNL     1       8.217   7.038  18.774  0.00  0.00    +0.000 OA
ATOM      4  H   UNL     1       6.703   8.350  16.292  0.00  0.00    +0.000 HD
ENDROOT
BRANCH   2   5
ATOM      5  C   UNL     1       8.348   9.282  17.979  0.00  0.00    +0.000 C 
ATOM      6  C   UNL     1       9.194   9.687  18.941  0.00  0.00    +0.000 C 
BRANCH   6   7
ATOM      7  C   UNL     1       9.667  11.073  19.112  0.00  0.00    +0.000 A 
ATOM      8  C   UNL     1       9.726  11.911  17.989  0.00  0.00    +0.000 A 
ATOM      9  C   UNL     1      10.193  13.225  18.097  0.00  0.00    +0.000 A 
ATOM     10  C   UNL     1      10.593  13.723  19.334  0.00  0.00    +0.000 A 
ATOM     11  C   UNL     1      10.514  12.912  20.464  0.00  0.00    +0.000 A 
ATOM     12  C   UNL     1      10.046  11.599  20.355  0.00  0.00    +0.000 A 
ENDBRANCH   6   7
ENDBRANCH   2   5
BRANCH   1  13
ATOM     13  C   UNL     1       6.290   6.327  16.822  0.00  0.00    +0.000 C 
BRANCH  13  14
ATOM     14  C   UNL     1       7.033   5.524  15.749  0.00  0.00    +0.000 C 
ATOM     15  O   UNL     1       6.872   5.667  14.543  0.00  0.00    +0.000 OA
BRANCH  14  16
ATOM     16  O   UNL     1       7.859   4.611  16.332  0.00  0.00    +0.000 OA
ATOM     17  C   UNL     1       7.509   4.258  17.671  0.00  0.00    +0.000 C 
ENDBRANCH  14  16
ENDBRANCH  13  14
BRANCH  13  18
ATOM     18  C   UNL     1       4.812   6.510  16.449  0.00  0.00    +0.000 C 
BRANCH  18  19
ATOM     19  C   UNL     1       3.856   6.381  17.641  0.00  0.00    +0.000 C 
BRANCH  19  20
ATOM     20  C   UNL     1       3.363   4.965  17.814  0.00  0.00    +0.000 C 
ATOM     21  O   UNL     1       3.971   3.961  17.482  0.00  0.00    +0.000 OA
BRANCH  20  23
ATOM     22  C   UNL     1       1.368   3.800  18.189  0.00  0.00    +0.000 C 
ATOM     23  O   UNL     1       2.144   4.975  18.430  0.00  0.00    +0.000 OA
ENDBRANCH  20  23
ENDBRANCH  19  20
ENDBRANCH  18  19
ENDBRANCH  13  18
ENDBRANCH   1  13
TORSDOF 9
ENDMDL
MODEL 8
REMARK VINA RESULT:      -6.8      1.412      1.817
REMARK  Name = 
REMARK  11 active torsions:
REMARK  status: ('A' for Active; 'I' for Inactive)
REMARK    1  A    between atoms: C_1  and  O_2
REMARK    2  A    between atoms: O_2  and  C_3
REMARK    3  A    between atoms: C_3  and  C_5
REMARK    4  A    between atoms: C_5  and  C_6
REMARK    5  A    between atoms: C_6  and  C_7
REMARK    6  A    between atoms: C_7  and  N_8
REMARK    7  A    between atoms: C_7  and  C_19
REMARK    8  A    between atoms: C_9  and  C_11
REMARK    9  A    between atoms: C_12  and  C_13
REMARK   10  A    between atoms: C_19  and  O_21
REMARK   11  A    between atoms: O_21  and  C_22
REMARK                            x       y       z     vdW  Elec       q    Type
REMARK                         _______ _______ _______ _____ _____    ______ ____
ROOT
ATOM      1  N   UNL     1       6.882   7.355  17.070  0.00  0.00    +0.000 N 
ATOM      2  C   UNL     1       7.827   7.674  18.010  0.00  0.00    +0.000 C 
ATOM      3  O   UNL     1       8.268   6.875  18.826  0.00  0.00    +0.000 OA
ATOM      4  H   UNL     1       6.556   8.045  16.402  0.00  0.00    +0.000 HD
ENDROOT
BRANCH   2   5
ATOM      5  C   UNL     1       8.258   9.096  17.959  0.00  0.00    +0.000 C 
ATOM      6  C   UNL     1       9.068   9.590  18.910  0.00  0.00    +0.000 C 
BRANCH   6   7
ATOM      7  C   UNL     1       9.479  11.002  19.011  0.00  0.00    +0.000 A 
ATOM      8  C   UNL     1      10.127  11.435  20.177  0.00  0.00    +0.000 A 
ATOM      9  C   UNL     1      10.512  12.771  20.329  0.00  0.00    +0.000 A 
ATOM     10  C   UNL     1      10.267  13.688  19.311  0.00  0.00    +0.000 A 
ATOM     11  C   UNL     1       9.650  13.267  18.136  0.00  0.00    +0.000 A 
ATOM     12  C   UNL     1       9.266  11.931  17.983  0.00  0.00    +0.000 A 
ENDBRANCH   6   7
ENDBRANCH   2   5
BRANCH   1  13
ATOM     13  C   UNL     1       6.261   6.025  17.016  0.00  0.00    +0.000 C 
BRANCH  13  14
ATOM     14  C   UNL     1       6.004   5.687  15.544  0.00  0.00    +0.000 C 
ATOM     15  O   UNL     1       5.259   6.323  14.807  0.00  0.00    +0.000 OA
BRANCH  14  16
ATOM     16  O   UNL     1       6.689   4.562  15.192  0.00  0.00    +0.000 OA
ATOM     17  C   UNL     1       6.185   3.895  14.035  0.00  0.00    +0.000 C 
ENDBRANCH  14  16
ENDBRANCH  13  14
BRANCH  13  18
ATOM     18  C   UNL     1       4.956   5.999  17.824  0.00  0.00    +0.000 C 
BRANCH  18  19
ATOM     19  C   UNL     1       4.168   4.692  17.678  0.00  0.00    +0.000 C 
BRANCH  19  20
ATOM     20  C   UNL     1       4.448   3.738  18.815  0.00  0.00    +0.000 C 
ATOM     21  O   UNL     1       5.492   3.677  19.444  0.00  0.00    +0.000 OA
BRANCH  20  23
ATOM     22  C   UNL     1       3.017   2.854  20.443  0.00  0.00    +0.000 C 
ATOM     23  O   UNL     1       3.342   2.973  19.056  0.00  0.00    +0.000 OA
ENDBRANCH  20  23
ENDBRANCH  19  20
ENDBRANCH  18  19
ENDBRANCH  13  18
ENDBRANCH   1  13
TORSDOF 9
ENDMDL
MODEL 9
REMARK VINA RESULT:      -6.8      4.978      6.836
REMARK  Name = 
REMARK  11 active torsions:
REMARK  status: ('A' for Active; 'I' for Inactive)
REMARK    1  A    between atoms: C_1  and  O_2
REMARK    2  A    between atoms: O_2  and  C_3
REMARK    3  A    between atoms: C_3  and  C_5
REMARK    4  A    between atoms: C_5  and  C_6
REMARK    5  A    between atoms: C_6  and  C_7
REMARK    6  A    between atoms: C_7  and  N_8
REMARK    7  A    between atoms: C_7  and  C_19
REMARK    8  A    between atoms: C_9  and  C_11
REMARK    9  A    between atoms: C_12  and  C_13
REMARK   10  A    between atoms: C_19  and  O_21
REMARK   11  A    between atoms: O_21  and  C_22
REMARK                            x       y       z     vdW  Elec       q    Type
REMARK                         _______ _______ _______ _____ _____    ______ ____
ROOT
ATOM      1  N   UNL     1       4.618   4.776  18.369  0.00  0.00    +0.000 N 
ATOM      2  C   UNL     1       5.989   4.743  18.361  0.00  0.00    +0.000 C 
ATOM      3  O   UNL     1       6.673   4.818  19.373  0.00  0.00    +0.000 OA
ATOM      4  H   UNL     1       4.089   4.694  17.507  0.00  0.00    +0.000 HD
ENDROOT
BRANCH   2   5
ATOM      5  C   UNL     1       6.571   4.624  16.999  0.00  0.00    +0.000 C 
ATOM      6  C   UNL     1       5.784   4.741  15.916  0.00  0.00    +0.000 C 
BRANCH   6   7
ATOM      7  C   UNL     1       6.235   4.547  14.527  0.00  0.00    +0.000 A 
ATOM      8  C   UNL     1       5.546   3.634  13.713  0.00  0.00    +0.000 A 
ATOM      9  C   UNL     1       5.953   3.397  12.397  0.00  0.00    +0.000 A 
ATOM     10  C   UNL     1       7.046   4.081  11.871  0.00  0.00    +0.000 A 
ATOM     11  C   UNL     1       7.722   5.011  12.656  0.00  0.00    +0.000 A 
ATOM     12  C   UNL     1       7.314   5.249  13.972  0.00  0.00    +0.000 A 
ENDBRANCH   6   7
ENDBRANCH   2   5
BRANCH   1  13
ATOM     13  C   UNL     1       3.854   4.981  19.606  0.00  0.00    +0.000 C 
BRANCH  13  14
ATOM     14  C   UNL     1       3.049   3.707  19.878  0.00  0.00    +0.000 C 
ATOM     15  O   UNL     1       3.521   2.675  20.340  0.00  0.00    +0.000 OA
BRANCH  14  16
ATOM     16  O   UNL     1       1.752   3.879  19.495  0.00  0.00    +0.000 OA
ATOM     17  C   UNL     1       1.279   2.923  18.546  0.00  0.00    +0.000 C 
ENDBRANCH  14  16
ENDBRANCH  13  14
BRANCH  13  18
ATOM     18  C   UNL     1       2.930   6.202  19.480  0.00  0.00    +0.000 C 
BRANCH  18  19
ATOM     19  C   UNL     1       3.074   6.948  18.149  0.00  0.00    +0.000 C 
BRANCH  19  20
ATOM     20  C   UNL     1       2.321   8.257  18.156  0.00  0.00    +0.000 C 
ATOM     21  O   UNL     1       2.262   9.042  17.224  0.00  0.00    +0.000 OA
BRANCH  20  23
ATOM     22  C   UNL     1       0.956   9.639  19.461  0.00  0.00    +0.000 C 
ATOM     23  O   UNL     1       1.687   8.415  19.355  0.00  0.00    +0.000 OA
ENDBRANCH  20  23
ENDBRANCH  19  20
ENDBRANCH  18  19
ENDBRANCH  13  18
ENDBRANCH   1  13
TORSDOF 9
ENDMDL
