MODEL 1
REMARK VINA RESULT:      -6.2      0.000      0.000
REMARK  Name = 
REMARK  2 active torsions:
REMARK  status: ('A' for Active; 'I' for Inactive)
REMARK    1  A    between atoms: O_1  and  C_2
REMARK    2  A    between atoms: C_6  and  O_7
REMARK                            x       y       z     vdW  Elec       q    Type
REMARK                         _______ _______ _______ _____ _____    ______ ____
ROOT
ATOM      1  C   UNL     1       6.351   4.107  13.693  0.00  0.00    +0.000 A 
ATOM      2  N   UNL     1       7.268   5.060  14.055  0.00  0.00    +0.000 NA
ATOM      3  C   UNL     1       6.954   5.245  15.300  0.00  0.00    +0.000 A 
ATOM      4  N   UNL     1       7.564   6.086  16.174  0.00  0.00    +0.000 NA
ATOM      5  C   UNL     1       7.051   6.080  17.355  0.00  0.00    +0.000 A 
ATOM      6  N   UNL     1       5.973   5.346  17.824  0.00  0.00    +0.000 N 
ATOM      7  C   UNL     1       5.365   4.436  16.935  0.00  0.00    +0.000 A 
ATOM      8  C   UNL     1       5.827   4.382  15.675  0.00  0.00    +0.000 A 
ATOM      9  N   UNL     1       5.494   3.662  14.557  0.00  0.00    +0.000 NA
ATOM     10  S   UNL     1       4.029   3.370  17.331  0.00  0.00    +0.000 S 
ATOM     11  C   UNL     1       4.102   3.436  19.130  0.00  0.00    +0.000 C 
ATOM     12  C   UNL     1       4.241   4.875  19.584  0.00  0.00    +0.000 C 
ATOM     13  C   UNL     1       5.615   5.437  19.245  0.00  0.00    +0.000 C 
ENDROOT
BRANCH   1  14
ATOM     14  O   UNL     1       6.442   3.714  12.425  0.00  0.00    +0.000 OA
ATOM     15  H   UNL     1       7.335   3.936  12.123  0.00  0.00    +0.000 HD
ENDBRANCH   1  14
BRANCH   5  16
ATOM     16  O   UNL     1       7.644   6.884  18.252  0.00  0.00    +0.000 OA
ATOM     17  H   UNL     1       6.958   7.151  18.888  0.00  0.00    +0.000 HD
ENDBRANCH   5  16
TORSDOF 2
ENDMDL
MODEL 2
REMARK VINA RESULT:      -6.2      1.179      1.252
REMARK  Name = 
REMARK  2 active torsions:
REMARK  status: ('A' for Active; 'I' for Inactive)
REMARK    1  A    between atoms: O_1  and  C_2
REMARK    2  A    between atoms: C_6  and  O_7
REMARK                            x       y       z     vdW  Elec       q    Type
REMARK                         _______ _______ _______ _____ _____    ______ ____
ROOT
ATOM      1  C   UNL     1       6.654   4.626  14.399  0.00  0.00    +0.000 A 
ATOM      2  N   UNL     1       7.616   5.117  15.245  0.00  0.00    +0.000 NA
ATOM      3  C   UNL     1       7.011   5.018  16.389  0.00  0.00    +0.000 A 
ATOM      4  N   UNL     1       7.517   5.350  17.605  0.00  0.00    +0.000 NA
ATOM      5  C   UNL     1       6.705   5.156  18.584  0.00  0.00    +0.000 A 
ATOM      6  N   UNL     1       5.406   4.672  18.545  0.00  0.00    +0.000 N 
ATOM      7  C   UNL     1       4.892   4.281  17.291  0.00  0.00    +0.000 A 
ATOM      8  C   UNL     1       5.666   4.459  16.209  0.00  0.00    +0.000 A 
ATOM      9  N   UNL     1       5.514   4.225  14.866  0.00  0.00    +0.000 NA
ATOM     10  S   UNL     1       3.301   3.592  17.018  0.00  0.00    +0.000 S 
ATOM     11  C   UNL     1       2.878   3.110  18.702  0.00  0.00    +0.000 C 
ATOM     12  C   UNL     1       3.190   4.247  19.654  0.00  0.00    +0.000 C 
ATOM     13  C   UNL     1       4.692   4.449  19.808  0.00  0.00    +0.000 C 
ENDROOT
BRANCH   1  14
ATOM     14  O   UNL     1       7.010   4.607  13.118  0.00  0.00    +0.000 OA
ATOM     15  H   UNL     1       7.770   4.011  13.044  0.00  0.00    +0.000 HD
ENDBRANCH   1  14
BRANCH   5  16
ATOM     16  O   UNL     1       7.181   5.452  19.804  0.00  0.00    +0.000 OA
ATOM     17  H   UNL     1       8.123   5.667  19.694  0.00  0.00    +0.000 HD
ENDBRANCH   5  16
TORSDOF 2
ENDMDL
MODEL 3
REMARK VINA RESULT:      -6.2      2.477      3.036
REMARK  Name = 
REMARK  2 active torsions:
REMARK  status: ('A' for Active; 'I' for Inactive)
REMARK    1  A    between atoms: O_1  and  C_2
REMARK    2  A    between atoms: C_6  and  O_7
REMARK                            x       y       z     vdW  Elec       q    Type
REMARK                         _______ _______ _______ _____ _____    ______ ____
ROOT
ATOM      1  C   UNL     1       6.402   5.239  15.716  0.00  0.00    +0.000 A 
ATOM      2  N   UNL     1       5.949   6.491  16.046  0.00  0.00    +0.000 NA
ATOM      3  C   UNL     1       4.927   6.195  16.790  0.00  0.00    +0.000 A 
ATOM      4  N   UNL     1       4.101   7.072  17.417  0.00  0.00    +0.000 NA
ATOM      5  C   UNL     1       3.159   6.513  18.094  0.00  0.00    +0.000 A 
ATOM      6  N   UNL     1       2.889   5.162  18.246  0.00  0.00    +0.000 N 
ATOM      7  C   UNL     1       3.771   4.247  17.635  0.00  0.00    +0.000 A 
ATOM      8  C   UNL     1       4.779   4.739  16.897  0.00  0.00    +0.000 A 
ATOM      9  N   UNL     1       5.795   4.185  16.162  0.00  0.00    +0.000 NA
ATOM     10  S   UNL     1       3.653   2.499  17.743  0.00  0.00    +0.000 S 
ATOM     11  C   UNL     1       2.539   2.349  19.151  0.00  0.00    +0.000 C 
ATOM     12  C   UNL     1       1.371   3.299  18.983  0.00  0.00    +0.000 C 
ATOM     13  C   UNL     1       1.804   4.750  19.144  0.00  0.00    +0.000 C 
ENDROOT
BRANCH   1  14
ATOM     14  O   UNL     1       7.477   5.235  14.933  0.00  0.00    +0.000 OA
ATOM     15  H   UNL     1       7.737   4.310  14.813  0.00  0.00    +0.000 HD
ENDBRANCH   1  14
BRANCH   5  16
ATOM     16  O   UNL     1       2.336   7.350  18.747  0.00  0.00    +0.000 OA
ATOM     17  H   UNL     1       2.897   8.015  19.180  0.00  0.00    +0.000 HD
ENDBRANCH   5  16
TORSDOF 2
ENDMDL
MODEL 4
REMARK VINA RESULT:      -6.1      2.941      3.805
REMARK  Name = 
REMARK  2 active torsions:
REMARK  status: ('A' for Active; 'I' for Inactive)
REMARK    1  A    between atoms: O_1  and  C_2
REMARK    2  A    between atoms: C_6  and  O_7
REMARK                            x       y       z     vdW  Elec       q    Type
REMARK                         _______ _______ _______ _____ _____    ______ ____
ROOT
ATOM      1  C   UNL     1       5.233   5.675  16.115  0.00  0.00    +0.000 A 
ATOM      2  N   UNL     1       4.960   6.780  16.882  0.00  0.00    +0.000 NA
ATOM      3  C   UNL     1       4.087   6.295  17.710  0.00  0.00    +0.000 A 
ATOM      4  N   UNL     1       3.477   6.960  18.725  0.00  0.00    +0.000 NA
ATOM      5  C   UNL     1       2.646   6.243  19.398  0.00  0.00    +0.000 A 
ATOM      6  N   UNL     1       2.299   4.915  19.207  0.00  0.00    +0.000 N 
ATOM      7  C   UNL     1       2.963   4.207  18.183  0.00  0.00    +0.000 A 
ATOM      8  C   UNL     1       3.841   4.877  17.421  0.00  0.00    +0.000 A 
ATOM      9  N   UNL     1       4.641   4.548  16.357  0.00  0.00    +0.000 NA
ATOM     10  S   UNL     1       2.723   2.510  17.804  0.00  0.00    +0.000 S 
ATOM     11  C   UNL     1       1.903   1.967  19.314  0.00  0.00    +0.000 C 
ATOM     12  C   UNL     1       0.807   2.947  19.682  0.00  0.00    +0.000 C 
ATOM     13  C   UNL     1       1.384   4.274  20.159  0.00  0.00    +0.000 C 
ENDROOT
BRANCH   1  14
ATOM     14  O   UNL     1       6.128   5.885  15.153  0.00  0.00    +0.000 OA
ATOM     15  H   UNL     1       7.002   5.744  15.544  0.00  0.00    +0.000 HD
ENDBRANCH   1  14
BRANCH   5  16
ATOM     16  O   UNL     1       2.041   6.862  20.425  0.00  0.00    +0.000 OA
ATOM     17  H   UNL     1       1.446   6.211  20.834  0.00  0.00    +0.000 HD
ENDBRANCH   5  16
TORSDOF 2
ENDMDL
MODEL 5
REMARK VINA RESULT:      -6.1      2.637      3.789
REMARK  Name = 
REMARK  2 active torsions:
REMARK  status: ('A' for Active; 'I' for Inactive)
REMARK    1  A    between atoms: O_1  and  C_2
REMARK    2  A    between atoms: C_6  and  O_7
REMARK                            x       y       z     vdW  Elec       q    Type
REMARK                         _______ _______ _______ _____ _____    ______ ____
ROOT
ATOM      1  C   UNL     1       6.713   4.663  17.557  0.00  0.00    +0.000 A 
ATOM      2  N   UNL     1       6.169   5.891  17.279  0.00  0.00    +0.000 NA
ATOM      3  C   UNL     1       5.054   5.821  17.940  0.00  0.00    +0.000 A 
ATOM      4  N   UNL     1       4.107   6.791  18.036  0.00  0.00    +0.000 NA
ATOM      5  C   UNL     1       3.091   6.463  18.754  0.00  0.00    +0.000 A 
ATOM      6  N   UNL     1       2.848   5.267  19.412  0.00  0.00    +0.000 N 
ATOM      7  C   UNL     1       3.848   4.274  19.354  0.00  0.00    +0.000 A 
ATOM      8  C   UNL     1       4.941   4.524  18.617  0.00  0.00    +0.000 A 
ATOM      9  N   UNL     1       6.081   3.823  18.315  0.00  0.00    +0.000 NA
ATOM     10  S   UNL     1       3.776   2.715  20.155  0.00  0.00    +0.000 S 
ATOM     11  C   UNL     1       2.459   3.035  21.342  0.00  0.00    +0.000 C 
ATOM     12  C   UNL     1       1.299   3.719  20.647  0.00  0.00    +0.000 C 
ATOM     13  C   UNL     1       1.649   5.147  20.251  0.00  0.00    +0.000 C 
ENDROOT
BRANCH   1  14
ATOM     14  O   UNL     1       7.898   4.449  16.992  0.00  0.00    +0.000 OA
ATOM     15  H   UNL     1       8.563   4.859  17.566  0.00  0.00    +0.000 HD
ENDBRANCH   1  14
BRANCH   5  16
ATOM     16  O   UNL     1       2.145   7.406  18.892  0.00  0.00    +0.000 OA
ATOM     17  H   UNL     1       2.298   7.834  19.752  0.00  0.00    +0.000 HD
ENDBRANCH   5  16
TORSDOF 2
ENDMDL
MODEL 6
REMARK VINA RESULT:      -6.0      3.629      4.737
REMARK  Name = 
REMARK  2 active torsions:
REMARK  status: ('A' for Active; 'I' for Inactive)
REMARK    1  A    between atoms: O_1  and  C_2
REMARK    2  A    between atoms: C_6  and  O_7
REMARK                            x       y       z     vdW  Elec       q    Type
REMARK                         _______ _______ _______ _____ _____    ______ ____
ROOT
ATOM      1  C   UNL     1       2.716   7.870  17.885  0.00  0.00    +0.000 A 
ATOM      2  N   UNL     1       3.955   7.436  17.490  0.00  0.00    +0.000 NA
ATOM      3  C   UNL     1       4.029   6.301  18.116  0.00  0.00    +0.000 A 
ATOM      4  N   UNL     1       5.058   5.416  18.070  0.00  0.00    +0.000 NA
ATOM      5  C   UNL     1       4.879   4.364  18.790  0.00  0.00    +0.000 A 
ATOM      6  N   UNL     1       3.796   4.041  19.593  0.00  0.00    +0.000 N 
ATOM      7  C   UNL     1       2.705   4.935  19.608  0.00  0.00    +0.000 A 
ATOM      8  C   UNL     1       2.808   6.067  18.895  0.00  0.00    +0.000 A 
ATOM      9  N   UNL     1       1.992   7.149  18.683  0.00  0.00    +0.000 NA
ATOM     10  S   UNL     1       1.215   4.700  20.506  0.00  0.00    +0.000 S 
ATOM     11  C   UNL     1       1.340   2.938  20.860  0.00  0.00    +0.000 C 
ATOM     12  C   UNL     1       2.730   2.615  21.368  0.00  0.00    +0.000 C 
ATOM     13  C   UNL     1       3.770   2.735  20.261  0.00  0.00    +0.000 C 
ENDROOT
BRANCH   1  14
ATOM     14  O   UNL     1       2.362   9.049  17.379  0.00  0.00    +0.000 OA
ATOM     15  H   UNL     1       2.249   9.655  18.126  0.00  0.00    +0.000 HD
ENDBRANCH   1  14
BRANCH   5  16
ATOM     16  O   UNL     1       5.866   3.455  18.750  0.00  0.00    +0.000 OA
ATOM     17  H   UNL     1       5.454   2.602  18.530  0.00  0.00    +0.000 HD
ENDBRANCH   5  16
TORSDOF 2
ENDMDL
MODEL 7
REMARK VINA RESULT:      -6.0      3.062      4.062
REMARK  Name = 
REMARK  2 active torsions:
REMARK  status: ('A' for Active; 'I' for Inactive)
REMARK    1  A    between atoms: O_1  and  C_2
REMARK    2  A    between atoms: C_6  and  O_7
REMARK                            x       y       z     vdW  Elec       q    Type
REMARK                         _______ _______ _______ _____ _____    ______ ____
ROOT
ATOM      1  C   UNL     1       4.965   6.054  16.267  0.00  0.00    +0.000 A 
ATOM      2  N   UNL     1       5.244   4.746  15.964  0.00  0.00    +0.000 NA
ATOM      3  C   UNL     1       4.598   4.132  16.908  0.00  0.00    +0.000 A 
ATOM      4  N   UNL     1       4.509   2.788  17.087  0.00  0.00    +0.000 NA
ATOM      5  C   UNL     1       3.805   2.440  18.107  0.00  0.00    +0.000 A 
ATOM      6  N   UNL     1       3.156   3.250  19.026  0.00  0.00    +0.000 N 
ATOM      7  C   UNL     1       3.206   4.644  18.817  0.00  0.00    +0.000 A 
ATOM      8  C   UNL     1       3.928   5.101  17.782  0.00  0.00    +0.000 A 
ATOM      9  N   UNL     1       4.219   6.346  17.285  0.00  0.00    +0.000 NA
ATOM     10  S   UNL     1       2.413   5.848  19.818  0.00  0.00    +0.000 S 
ATOM     11  C   UNL     1       1.241   4.798  20.697  0.00  0.00    +0.000 C 
ATOM     12  C   UNL     1       1.948   3.559  21.208  0.00  0.00    +0.000 C 
ATOM     13  C   UNL     1       2.333   2.626  20.068  0.00  0.00    +0.000 C 
ENDROOT
BRANCH   1  14
ATOM     14  O   UNL     1       5.515   6.937  15.437  0.00  0.00    +0.000 OA
ATOM     15  H   UNL     1       5.458   7.803  15.866  0.00  0.00    +0.000 HD
ENDBRANCH   1  14
BRANCH   5  16
ATOM     16  O   UNL     1       3.676   1.118  18.302  0.00  0.00    +0.000 OA
ATOM     17  H   UNL     1       4.302   0.875  19.005  0.00  0.00    +0.000 HD
ENDBRANCH   5  16
TORSDOF 2
ENDMDL
MODEL 8
REMARK VINA RESULT:      -6.0      2.718      3.461
REMARK  Name = 
REMARK  2 active torsions:
REMARK  status: ('A' for Active; 'I' for Inactive)
REMARK    1  A    between atoms: O_1  and  C_2
REMARK    2  A    between atoms: C_6  and  O_7
REMARK                            x       y       z     vdW  Elec       q    Type
REMARK                         _______ _______ _______ _____ _____    ______ ____
ROOT
ATOM      1  C   UNL     1       5.317   4.381  16.072  0.00  0.00    +0.000 A 
ATOM      2  N   UNL     1       5.048   5.718  16.218  0.00  0.00    +0.000 NA
ATOM      3  C   UNL     1       4.238   5.697  17.231  0.00  0.00    +0.000 A 
ATOM      4  N   UNL     1       3.661   6.771  17.831  0.00  0.00    +0.000 NA
ATOM      5  C   UNL     1       2.893   6.471  18.819  0.00  0.00    +0.000 A 
ATOM      6  N   UNL     1       2.583   5.218  19.323  0.00  0.00    +0.000 N 
ATOM      7  C   UNL     1       3.215   4.102  18.735  0.00  0.00    +0.000 A 
ATOM      8  C   UNL     1       4.027   4.318  17.688  0.00  0.00    +0.000 A 
ATOM      9  N   UNL     1       4.779   3.514  16.870  0.00  0.00    +0.000 NA
ATOM     10  S   UNL     1       3.015   2.436  19.248  0.00  0.00    +0.000 S 
ATOM     11  C   UNL     1       2.297   2.698  20.880  0.00  0.00    +0.000 C 
ATOM     12  C   UNL     1       1.190   3.728  20.793  0.00  0.00    +0.000 C 
ATOM     13  C   UNL     1       1.744   5.121  20.523  0.00  0.00    +0.000 C 
ENDROOT
BRANCH   1  14
ATOM     14  O   UNL     1       6.150   4.096  15.074  0.00  0.00    +0.000 OA
ATOM     15  H   UNL     1       7.044   4.306  15.383  0.00  0.00    +0.000 HD
ENDBRANCH   1  14
BRANCH   5  16
ATOM     16  O   UNL     1       2.324   7.511  19.451  0.00  0.00    +0.000 OA
ATOM     17  H   UNL     1       2.783   8.311  19.144  0.00  0.00    +0.000 HD
ENDBRANCH   5  16
TORSDOF 2
ENDMDL
MODEL 9
REMARK VINA RESULT:      -5.9      2.893      3.803
REMARK  Name = 
REMARK  2 active torsions:
REMARK  status: ('A' for Active; 'I' for Inactive)
REMARK    1  A    between atoms: O_1  and  C_2
REMARK    2  A    between atoms: C_6  and  O_7
REMARK                            x       y       z     vdW  Elec       q    Type
REMARK                         _______ _______ _______ _____ _____    ______ ____
ROOT
ATOM      1  C   UNL     1       5.079   5.688  16.223  0.00  0.00    +0.000 A 
ATOM      2  N   UNL     1       4.527   6.863  16.667  0.00  0.00    +0.000 NA
ATOM      3  C   UNL     1       3.899   6.455  17.726  0.00  0.00    +0.000 A 
ATOM      4  N   UNL     1       3.179   7.220  18.587  0.00  0.00    +0.000 NA
ATOM      5  C   UNL     1       2.652   6.563  19.560  0.00  0.00    +0.000 A 
ATOM      6  N   UNL     1       2.721   5.203  19.821  0.00  0.00    +0.000 N 
ATOM      7  C   UNL     1       3.506   4.411  18.958  0.00  0.00    +0.000 A 
ATOM      8  C   UNL     1       4.085   5.010  17.905  0.00  0.00    +0.000 A 
ATOM      9  N   UNL     1       4.880   4.585  16.872  0.00  0.00    +0.000 NA
ATOM     10  S   UNL     1       3.778   2.686  19.131  0.00  0.00    +0.000 S 
ATOM     11  C   UNL     1       3.261   2.460  20.843  0.00  0.00    +0.000 C 
ATOM     12  C   UNL     1       1.942   3.169  21.076  0.00  0.00    +0.000 C 
ATOM     13  C   UNL     1       2.109   4.682  21.050  0.00  0.00    +0.000 C 
ENDROOT
BRANCH   1  14
ATOM     14  O   UNL     1       5.803   5.810  15.113  0.00  0.00    +0.000 OA
ATOM     15  H   UNL     1       5.200   6.094  14.411  0.00  0.00    +0.000 HD
ENDBRANCH   1  14
BRANCH   5  16
ATOM     16  O   UNL     1       1.952   7.291  20.445  0.00  0.00    +0.000 OA
ATOM     17  H   UNL     1       2.267   7.038  21.329  0.00  0.00    +0.000 HD
ENDBRANCH   5  16
TORSDOF 2
ENDMDL
