MODEL 1
REMARK VINA RESULT:      -8.0      0.000      0.000
REMARK  Name = 
REMARK  5 active torsions:
REMARK  status: ('A' for Active; 'I' for Inactive)
REMARK    1  A    between atoms: C_1  and  C_2
REMARK    2  A    between atoms: C_5  and  N_6
REMARK    3  A    between atoms: N_6  and  S_7
REMARK    4  A    between atoms: S_7  and  C_10
REMARK    5  A    between atoms: C_14  and  C_15
REMARK                            x       y       z     vdW  Elec       q    Type
REMARK                         _______ _______ _______ _____ _____    ______ ____
ROOT
ATOM      1  C   UNL     1       1.427   8.687  20.230  0.00  0.00    +0.000 A 
ATOM      2  C   UNL     1       1.238   9.340  19.009  0.00  0.00    +0.000 A 
ATOM      3  C   UNL     1       1.755   8.782  17.843  0.00  0.00    +0.000 A 
ATOM      4  C   UNL     1       2.447   7.570  17.900  0.00  0.00    +0.000 A 
ATOM      5  C   UNL     1       2.715   6.949  19.127  0.00  0.00    +0.000 A 
ATOM      6  C   UNL     1       2.169   7.501  20.298  0.00  0.00    +0.000 A 
ENDROOT
BRANCH   5   7
ATOM      7  C   UNL     1       3.446   5.648  19.225  0.00  0.00    +0.000 C 
ATOM      8  O   UNL     1       4.668   5.688  19.072  0.00  0.00    +0.000 OA
ATOM      9  N   UNL     1       2.773   4.450  19.491  0.00  0.00    +0.000 N 
ATOM     10  C   UNL     1       3.566   3.283  19.891  0.00  0.00    +0.000 C 
ATOM     11  C   UNL     1       3.255   2.065  19.025  0.00  0.00    +0.000 C 
ATOM     12  C   UNL     1       1.757   1.771  19.005  0.00  0.00    +0.000 C 
ATOM     13  C   UNL     1       0.979   3.007  18.572  0.00  0.00    +0.000 C 
ATOM     14  C   UNL     1       1.328   4.223  19.426  0.00  0.00    +0.000 C 
ENDBRANCH   5   7
BRANCH   1  15
ATOM     15  S   UNL     1       0.601   9.311  21.678  0.00  0.00    +0.000 S 
ATOM     16  O   UNL     1       1.565   9.331  22.760  0.00  0.00    +0.000 OA
ATOM     17  O   UNL     1      -0.656   8.606  21.824  0.00  0.00    +0.000 OA
BRANCH  15  18
ATOM     18  N   UNL     1       0.315  10.908  21.281  0.00  0.00    +0.000 N 
ATOM     19  H   UNL     1       1.135  11.478  21.093  0.00  0.00    +0.000 HD
BRANCH  18  24
ATOM     20  C   UNL     1      -4.709  13.261  22.641  0.00  0.00    +0.000 C 
ATOM     21  C   UNL     1      -3.391  12.652  22.261  0.00  0.00    +0.000 A 
ATOM     22  C   UNL     1      -2.958  12.629  20.927  0.00  0.00    +0.000 A 
ATOM     23  C   UNL     1      -1.724  12.063  20.593  0.00  0.00    +0.000 A 
ATOM     24  C   UNL     1      -0.923  11.518  21.592  0.00  0.00    +0.000 A 
ATOM     25  C   UNL     1      -1.348  11.518  22.918  0.00  0.00    +0.000 A 
ATOM     26  C   UNL     1      -2.574  12.090  23.251  0.00  0.00    +0.000 A 
ENDBRANCH  18  24
ENDBRANCH  15  18
ENDBRANCH   1  15
TORSDOF 4
ENDMDL
MODEL 2
REMARK VINA RESULT:      -8.0      1.111      1.334
REMARK  Name = 
REMARK  5 active torsions:
REMARK  status: ('A' for Active; 'I' for Inactive)
REMARK    1  A    between atoms: C_1  and  C_2
REMARK    2  A    between atoms: C_5  and  N_6
REMARK    3  A    between atoms: N_6  and  S_7
REMARK    4  A    between atoms: S_7  and  C_10
REMARK    5  A    between atoms: C_14  and  C_15
REMARK                            x       y       z     vdW  Elec       q    Type
REMARK                         _______ _______ _______ _____ _____    ______ ____
ROOT
ATOM      1  C   UNL     1       1.266   8.631  20.218  0.00  0.00    +0.000 A 
ATOM      2  C   UNL     1       1.221   9.324  19.006  0.00  0.00    +0.000 A 
ATOM      3  C   UNL     1       1.888   8.812  17.896  0.00  0.00    +0.000 A 
ATOM      4  C   UNL     1       2.585   7.606  17.998  0.00  0.00    +0.000 A 
ATOM      5  C   UNL     1       2.706   6.946  19.228  0.00  0.00    +0.000 A 
ATOM      6  C   UNL     1       2.010   7.450  20.339  0.00  0.00    +0.000 A 
ENDROOT
BRANCH   5   7
ATOM      7  C   UNL     1       3.437   5.648  19.373  0.00  0.00    +0.000 C 
ATOM      8  O   UNL     1       4.668   5.701  19.332  0.00  0.00    +0.000 OA
ATOM      9  N   UNL     1       2.754   4.441  19.559  0.00  0.00    +0.000 N 
ATOM     10  C   UNL     1       3.518   3.275  20.012  0.00  0.00    +0.000 C 
ATOM     11  C   UNL     1       3.298   2.068  19.104  0.00  0.00    +0.000 C 
ATOM     12  C   UNL     1       1.811   1.762  18.944  0.00  0.00    +0.000 C 
ATOM     13  C   UNL     1       1.064   2.998  18.460  0.00  0.00    +0.000 C 
ATOM     14  C   UNL     1       1.323   4.204  19.360  0.00  0.00    +0.000 C 
ENDBRANCH   5   7
BRANCH   1  15
ATOM     15  S   UNL     1       0.257   9.196  21.572  0.00  0.00    +0.000 S 
ATOM     16  O   UNL     1       1.145   9.677  22.611  0.00  0.00    +0.000 OA
ATOM     17  O   UNL     1      -0.730   8.176  21.860  0.00  0.00    +0.000 OA
BRANCH  15  18
ATOM     18  N   UNL     1      -0.491  10.547  20.936  0.00  0.00    +0.000 N 
ATOM     19  H   UNL     1      -0.530  10.603  19.922  0.00  0.00    +0.000 HD
BRANCH  18  24
ATOM     20  C   UNL     1      -1.377  15.211  24.111  0.00  0.00    +0.000 C 
ATOM     21  C   UNL     1      -1.124  13.997  23.268  0.00  0.00    +0.000 A 
ATOM     22  C   UNL     1      -0.145  13.999  22.263  0.00  0.00    +0.000 A 
ATOM     23  C   UNL     1       0.081  12.855  21.491  0.00  0.00    +0.000 A 
ATOM     24  C   UNL     1      -0.673  11.708  21.723  0.00  0.00    +0.000 A 
ATOM     25  C   UNL     1      -1.660  11.698  22.704  0.00  0.00    +0.000 A 
ATOM     26  C   UNL     1      -1.879  12.835  23.479  0.00  0.00    +0.000 A 
ENDBRANCH  18  24
ENDBRANCH  15  18
ENDBRANCH   1  15
TORSDOF 4
ENDMDL
MODEL 3
REMARK VINA RESULT:      -8.0      4.467      9.675
REMARK  Name = 
REMARK  5 active torsions:
REMARK  status: ('A' for Active; 'I' for Inactive)
REMARK    1  A    between atoms: C_1  and  C_2
REMARK    2  A    between atoms: C_5  and  N_6
REMARK    3  A    between atoms: N_6  and  S_7
REMARK    4  A    between atoms: S_7  and  C_10
REMARK    5  A    between atoms: C_14  and  C_15
REMARK                            x       y       z     vdW  Elec       q    Type
REMARK                         _______ _______ _______ _____ _____    ______ ____
ROOT
ATOM      1  C   UNL     1       4.869   5.742  17.731  0.00  0.00    +0.000 A 
ATOM      2  C   UNL     1       4.164   4.540  17.829  0.00  0.00    +0.000 A 
ATOM      3  C   UNL     1       2.792   4.564  18.061  0.00  0.00    +0.000 A 
ATOM      4  C   UNL     1       2.129   5.788  18.183  0.00  0.00    +0.000 A 
ATOM      5  C   UNL     1       2.837   6.997  18.170  0.00  0.00    +0.000 A 
ATOM      6  C   UNL     1       4.217   6.969  17.908  0.00  0.00    +0.000 A 
ENDROOT
BRANCH   5   7
ATOM      7  C   UNL     1       2.159   8.325  18.290  0.00  0.00    +0.000 C 
ATOM      8  O   UNL     1       2.309   9.108  17.350  0.00  0.00    +0.000 OA
ATOM      9  N   UNL     1       1.382   8.651  19.407  0.00  0.00    +0.000 N 
ATOM     10  C   UNL     1       0.496   9.815  19.320  0.00  0.00    +0.000 C 
ATOM     11  C   UNL     1       0.719  10.784  20.479  0.00  0.00    +0.000 C 
ATOM     12  C   UNL     1       0.609  10.069  21.823  0.00  0.00    +0.000 C 
ATOM     13  C   UNL     1       1.557   8.878  21.870  0.00  0.00    +0.000 C 
ATOM     14  C   UNL     1       1.343   7.939  20.686  0.00  0.00    +0.000 C 
ENDBRANCH   5   7
BRANCH   1  15
ATOM     15  S   UNL     1       6.582   5.701  17.246  0.00  0.00    +0.000 S 
ATOM     16  O   UNL     1       7.007   4.316  17.251  0.00  0.00    +0.000 OA
ATOM     17  O   UNL     1       7.297   6.695  18.019  0.00  0.00    +0.000 OA
BRANCH  15  18
ATOM     18  N   UNL     1       6.522   6.163  15.641  0.00  0.00    +0.000 N 
ATOM     19  H   UNL     1       6.301   7.140  15.463  0.00  0.00    +0.000 HD
BRANCH  18  24
ATOM     20  C   UNL     1       5.983   2.361  11.414  0.00  0.00    +0.000 C 
ATOM     21  C   UNL     1       6.103   3.352  12.534  0.00  0.00    +0.000 A 
ATOM     22  C   UNL     1       5.048   3.566  13.433  0.00  0.00    +0.000 A 
ATOM     23  C   UNL     1       5.181   4.489  14.475  0.00  0.00    +0.000 A 
ATOM     24  C   UNL     1       6.370   5.199  14.618  0.00  0.00    +0.000 A 
ATOM     25  C   UNL     1       7.419   5.009  13.723  0.00  0.00    +0.000 A 
ATOM     26  C   UNL     1       7.288   4.083  12.690  0.00  0.00    +0.000 A 
ENDBRANCH  18  24
ENDBRANCH  15  18
ENDBRANCH   1  15
TORSDOF 4
ENDMDL
MODEL 4
REMARK VINA RESULT:      -7.9      0.509      1.091
REMARK  Name = 
REMARK  5 active torsions:
REMARK  status: ('A' for Active; 'I' for Inactive)
REMARK    1  A    between atoms: C_1  and  C_2
REMARK    2  A    between atoms: C_5  and  N_6
REMARK    3  A    between atoms: N_6  and  S_7
REMARK    4  A    between atoms: S_7  and  C_10
REMARK    5  A    between atoms: C_14  and  C_15
REMARK                            x       y       z     vdW  Elec       q    Type
REMARK                         _______ _______ _______ _____ _____    ______ ____
ROOT
ATOM      1  C   UNL     1       1.311   8.905  20.225  0.00  0.00    +0.000 A 
ATOM      2  C   UNL     1       1.020   9.652  19.080  0.00  0.00    +0.000 A 
ATOM      3  C   UNL     1       1.437   9.193  17.834  0.00  0.00    +0.000 A 
ATOM      4  C   UNL     1       2.133   7.985  17.735  0.00  0.00    +0.000 A 
ATOM      5  C   UNL     1       2.503   7.270  18.882  0.00  0.00    +0.000 A 
ATOM      6  C   UNL     1       2.056   7.722  20.135  0.00  0.00    +0.000 A 
ENDROOT
BRANCH   5   7
ATOM      7  C   UNL     1       3.240   5.970  18.814  0.00  0.00    +0.000 C 
ATOM      8  O   UNL     1       4.264   5.952  18.129  0.00  0.00    +0.000 OA
ATOM      9  N   UNL     1       2.792   4.839  19.506  0.00  0.00    +0.000 N 
ATOM     10  C   UNL     1       3.714   3.710  19.659  0.00  0.00    +0.000 C 
ATOM     11  C   UNL     1       3.087   2.400  19.189  0.00  0.00    +0.000 C 
ATOM     12  C   UNL     1       1.747   2.153  19.877  0.00  0.00    +0.000 C 
ATOM     13  C   UNL     1       0.820   3.346  19.678  0.00  0.00    +0.000 C 
ATOM     14  C   UNL     1       1.476   4.651  20.120  0.00  0.00    +0.000 C 
ENDBRANCH   5   7
BRANCH   1  15
ATOM     15  S   UNL     1       0.610   9.405  21.783  0.00  0.00    +0.000 S 
ATOM     16  O   UNL     1       1.662   9.345  22.778  0.00  0.00    +0.000 OA
ATOM     17  O   UNL     1      -0.630   8.683  21.976  0.00  0.00    +0.000 OA
BRANCH  15  18
ATOM     18  N   UNL     1       0.291  11.027  21.540  0.00  0.00    +0.000 N 
ATOM     19  H   UNL     1       1.099  11.644  21.511  0.00  0.00    +0.000 HD
BRANCH  18  24
ATOM     20  C   UNL     1      -4.895  13.257  22.408  0.00  0.00    +0.000 C 
ATOM     21  C   UNL     1      -3.533  12.663  22.203  0.00  0.00    +0.000 A 
ATOM     22  C   UNL     1      -2.789  12.158  23.280  0.00  0.00    +0.000 A 
ATOM     23  C   UNL     1      -1.524  11.603  23.069  0.00  0.00    +0.000 A 
ATOM     24  C   UNL     1      -1.000  11.552  21.781  0.00  0.00    +0.000 A 
ATOM     25  C   UNL     1      -1.719  12.065  20.705  0.00  0.00    +0.000 A 
ATOM     26  C   UNL     1      -2.984  12.611  20.915  0.00  0.00    +0.000 A 
ENDBRANCH  18  24
ENDBRANCH  15  18
ENDBRANCH   1  15
TORSDOF 4
ENDMDL
MODEL 5
REMARK VINA RESULT:      -7.9      4.643      9.828
REMARK  Name = 
REMARK  5 active torsions:
REMARK  status: ('A' for Active; 'I' for Inactive)
REMARK    1  A    between atoms: C_1  and  C_2
REMARK    2  A    between atoms: C_5  and  N_6
REMARK    3  A    between atoms: N_6  and  S_7
REMARK    4  A    between atoms: S_7  and  C_10
REMARK    5  A    between atoms: C_14  and  C_15
REMARK                            x       y       z     vdW  Elec       q    Type
REMARK                         _______ _______ _______ _____ _____    ______ ____
ROOT
ATOM      1  C   UNL     1       4.775   5.019  17.562  0.00  0.00    +0.000 A 
ATOM      2  C   UNL     1       4.151   3.900  17.004  0.00  0.00    +0.000 A 
ATOM      3  C   UNL     1       2.840   3.594  17.361  0.00  0.00    +0.000 A 
ATOM      4  C   UNL     1       2.157   4.412  18.264  0.00  0.00    +0.000 A 
ATOM      5  C   UNL     1       2.799   5.487  18.893  0.00  0.00    +0.000 A 
ATOM      6  C   UNL     1       4.112   5.809  18.509  0.00  0.00    +0.000 A 
ENDROOT
BRANCH   5   7
ATOM      7  C   UNL     1       2.096   6.388  19.857  0.00  0.00    +0.000 C 
ATOM      8  O   UNL     1       1.647   5.863  20.877  0.00  0.00    +0.000 OA
ATOM      9  N   UNL     1       1.969   7.761  19.616  0.00  0.00    +0.000 N 
ATOM     10  C   UNL     1       1.566   8.627  20.728  0.00  0.00    +0.000 C 
ATOM     11  C   UNL     1       0.369   9.499  20.359  0.00  0.00    +0.000 C 
ATOM     12  C   UNL     1       0.633  10.285  19.078  0.00  0.00    +0.000 C 
ATOM     13  C   UNL     1       1.035   9.343  17.950  0.00  0.00    +0.000 C 
ATOM     14  C   UNL     1       2.210   8.455  18.348  0.00  0.00    +0.000 C 
ENDBRANCH   5   7
BRANCH   1  15
ATOM     15  S   UNL     1       6.377   5.505  16.955  0.00  0.00    +0.000 S 
ATOM     16  O   UNL     1       7.196   4.312  16.869  0.00  0.00    +0.000 OA
ATOM     17  O   UNL     1       6.823   6.653  17.717  0.00  0.00    +0.000 OA
BRANCH  15  18
ATOM     18  N   UNL     1       6.052   5.960  15.380  0.00  0.00    +0.000 N 
ATOM     19  H   UNL     1       5.419   6.747  15.262  0.00  0.00    +0.000 HD
BRANCH  18  24
ATOM     20  C   UNL     1       7.091   2.482  10.971  0.00  0.00    +0.000 C 
ATOM     21  C   UNL     1       6.799   3.382  12.135  0.00  0.00    +0.000 A 
ATOM     22  C   UNL     1       5.603   3.270  12.859  0.00  0.00    +0.000 A 
ATOM     23  C   UNL     1       5.350   4.114  13.945  0.00  0.00    +0.000 A 
ATOM     24  C   UNL     1       6.294   5.070  14.308  0.00  0.00    +0.000 A 
ATOM     25  C   UNL     1       7.477   5.205  13.587  0.00  0.00    +0.000 A 
ATOM     26  C   UNL     1       7.731   4.358  12.511  0.00  0.00    +0.000 A 
ENDBRANCH  18  24
ENDBRANCH  15  18
ENDBRANCH   1  15
TORSDOF 4
ENDMDL
MODEL 6
REMARK VINA RESULT:      -7.9      5.832      9.246
REMARK  Name = 
REMARK  5 active torsions:
REMARK  status: ('A' for Active; 'I' for Inactive)
REMARK    1  A    between atoms: C_1  and  C_2
REMARK    2  A    between atoms: C_5  and  N_6
REMARK    3  A    between atoms: N_6  and  S_7
REMARK    4  A    between atoms: S_7  and  C_10
REMARK    5  A    between atoms: C_14  and  C_15
REMARK                            x       y       z     vdW  Elec       q    Type
REMARK                         _______ _______ _______ _____ _____    ______ ____
ROOT
ATOM      1  C   UNL     1       5.410   6.060  17.185  0.00  0.00    +0.000 A 
ATOM      2  C   UNL     1       5.067   7.414  17.178  0.00  0.00    +0.000 A 
ATOM      3  C   UNL     1       3.760   7.795  17.467  0.00  0.00    +0.000 A 
ATOM      4  C   UNL     1       2.805   6.823  17.774  0.00  0.00    +0.000 A 
ATOM      5  C   UNL     1       3.116   5.458  17.704  0.00  0.00    +0.000 A 
ATOM      6  C   UNL     1       4.442   5.079  17.438  0.00  0.00    +0.000 A 
ENDROOT
BRANCH   5   7
ATOM      7  C   UNL     1       2.121   4.391  18.035  0.00  0.00    +0.000 C 
ATOM      8  O   UNL     1       1.195   4.233  17.237  0.00  0.00    +0.000 OA
ATOM      9  N   UNL     1       2.248   3.605  19.186  0.00  0.00    +0.000 N 
ATOM     10  C   UNL     1       1.442   2.384  19.285  0.00  0.00    +0.000 C 
ATOM     11  C   UNL     1       0.649   2.335  20.588  0.00  0.00    +0.000 C 
ATOM     12  C   UNL     1       1.561   2.528  21.796  0.00  0.00    +0.000 C 
ATOM     13  C   UNL     1       2.366   3.813  21.654  0.00  0.00    +0.000 C 
ATOM     14  C   UNL     1       3.125   3.861  20.331  0.00  0.00    +0.000 C 
ENDBRANCH   5   7
BRANCH   1  15
ATOM     15  S   UNL     1       7.121   5.602  17.001  0.00  0.00    +0.000 S 
ATOM     16  O   UNL     1       7.215   4.168  17.190  0.00  0.00    +0.000 OA
ATOM     17  O   UNL     1       7.922   6.505  17.801  0.00  0.00    +0.000 OA
BRANCH  15  18
ATOM     18  N   UNL     1       7.404   5.877  15.378  0.00  0.00    +0.000 N 
ATOM     19  H   UNL     1       7.700   6.816  15.127  0.00  0.00    +0.000 HD
BRANCH  18  24
ATOM     20  C   UNL     1       5.304   2.468  11.305  0.00  0.00    +0.000 C 
ATOM     21  C   UNL     1       5.837   3.356  12.390  0.00  0.00    +0.000 A 
ATOM     22  C   UNL     1       5.115   3.576  13.572  0.00  0.00    +0.000 A 
ATOM     23  C   UNL     1       5.631   4.401  14.575  0.00  0.00    +0.000 A 
ATOM     24  C   UNL     1       6.871   5.009  14.396  0.00  0.00    +0.000 A 
ATOM     25  C   UNL     1       7.590   4.815  13.220  0.00  0.00    +0.000 A 
ATOM     26  C   UNL     1       7.079   3.985  12.225  0.00  0.00    +0.000 A 
ENDBRANCH  18  24
ENDBRANCH  15  18
ENDBRANCH   1  15
TORSDOF 4
ENDMDL
MODEL 7
REMARK VINA RESULT:      -7.8      3.327      8.500
REMARK  Name = 
REMARK  5 active torsions:
REMARK  status: ('A' for Active; 'I' for Inactive)
REMARK    1  A    between atoms: C_1  and  C_2
REMARK    2  A    between atoms: C_5  and  N_6
REMARK    3  A    between atoms: N_6  and  S_7
REMARK    4  A    between atoms: S_7  and  C_10
REMARK    5  A    between atoms: C_14  and  C_15
REMARK                            x       y       z     vdW  Elec       q    Type
REMARK                         _______ _______ _______ _____ _____    ______ ____
ROOT
ATOM      1  C   UNL     1       2.564   4.384  18.871  0.00  0.00    +0.000 A 
ATOM      2  C   UNL     1       2.359   4.125  20.228  0.00  0.00    +0.000 A 
ATOM      3  C   UNL     1       2.056   5.175  21.091  0.00  0.00    +0.000 A 
ATOM      4  C   UNL     1       1.948   6.475  20.592  0.00  0.00    +0.000 A 
ATOM      5  C   UNL     1       2.233   6.759  19.250  0.00  0.00    +0.000 A 
ATOM      6  C   UNL     1       2.511   5.694  18.377  0.00  0.00    +0.000 A 
ENDROOT
BRANCH   5   7
ATOM      7  C   UNL     1       2.119   8.138  18.680  0.00  0.00    +0.000 C 
ATOM      8  O   UNL     1       2.801   8.381  17.683  0.00  0.00    +0.000 OA
ATOM      9  N   UNL     1       1.268   9.094  19.246  0.00  0.00    +0.000 N 
ATOM     10  C   UNL     1       0.961  10.297  18.466  0.00  0.00    +0.000 C 
ATOM     11  C   UNL     1       1.232  11.571  19.261  0.00  0.00    +0.000 C 
ATOM     12  C   UNL     1       0.507  11.548  20.603  0.00  0.00    +0.000 C 
ATOM     13  C   UNL     1       0.869  10.289  21.382  0.00  0.00    +0.000 C 
ATOM     14  C   UNL     1       0.623   9.027  20.559  0.00  0.00    +0.000 C 
ENDBRANCH   5   7
BRANCH   1  15
ATOM     15  S   UNL     1       2.761   3.014  17.751  0.00  0.00    +0.000 S 
ATOM     16  O   UNL     1       2.210   3.409  16.470  0.00  0.00    +0.000 OA
ATOM     17  O   UNL     1       2.297   1.813  18.415  0.00  0.00    +0.000 OA
BRANCH  15  18
ATOM     18  N   UNL     1       4.418   2.944  17.543  0.00  0.00    +0.000 N 
ATOM     19  H   UNL     1       4.851   2.036  17.693  0.00  0.00    +0.000 HD
BRANCH  18  24
ATOM     20  C   UNL     1       7.619   7.673  17.523  0.00  0.00    +0.000 C 
ATOM     21  C   UNL     1       6.782   6.429  17.553  0.00  0.00    +0.000 A 
ATOM     22  C   UNL     1       6.692   5.638  18.708  0.00  0.00    +0.000 A 
ATOM     23  C   UNL     1       5.901   4.486  18.719  0.00  0.00    +0.000 A 
ATOM     24  C   UNL     1       5.199   4.122  17.573  0.00  0.00    +0.000 A 
ATOM     25  C   UNL     1       5.292   4.887  16.414  0.00  0.00    +0.000 A 
ATOM     26  C   UNL     1       6.074   6.040  16.407  0.00  0.00    +0.000 A 
ENDBRANCH  18  24
ENDBRANCH  15  18
ENDBRANCH   1  15
TORSDOF 4
ENDMDL
MODEL 8
REMARK VINA RESULT:      -7.7      4.299      9.493
REMARK  Name = 
REMARK  5 active torsions:
REMARK  status: ('A' for Active; 'I' for Inactive)
REMARK    1  A    between atoms: C_1  and  C_2
REMARK    2  A    between atoms: C_5  and  N_6
REMARK    3  A    between atoms: N_6  and  S_7
REMARK    4  A    between atoms: S_7  and  C_10
REMARK    5  A    between atoms: C_14  and  C_15
REMARK                            x       y       z     vdW  Elec       q    Type
REMARK                         _______ _______ _______ _____ _____    ______ ____
ROOT
ATOM      1  C   UNL     1       5.132   5.638  18.130  0.00  0.00    +0.000 A 
ATOM      2  C   UNL     1       4.458   4.427  18.303  0.00  0.00    +0.000 A 
ATOM      3  C   UNL     1       3.074   4.426  18.456  0.00  0.00    +0.000 A 
ATOM      4  C   UNL     1       2.370   5.632  18.424  0.00  0.00    +0.000 A 
ATOM      5  C   UNL     1       3.042   6.858  18.335  0.00  0.00    +0.000 A 
ATOM      6  C   UNL     1       4.435   6.854  18.153  0.00  0.00    +0.000 A 
ENDROOT
BRANCH   5   7
ATOM      7  C   UNL     1       2.320   8.167  18.290  0.00  0.00    +0.000 C 
ATOM      8  O   UNL     1       2.488   8.856  17.282  0.00  0.00    +0.000 OA
ATOM      9  N   UNL     1       1.485   8.578  19.336  0.00  0.00    +0.000 N 
ATOM     10  C   UNL     1       0.569   9.696  19.093  0.00  0.00    +0.000 C 
ATOM     11  C   UNL     1       0.712  10.784  20.155  0.00  0.00    +0.000 C 
ATOM     12  C   UNL     1       0.564  10.206  21.559  0.00  0.00    +0.000 C 
ATOM     13  C   UNL     1       1.544   9.058  21.767  0.00  0.00    +0.000 C 
ATOM     14  C   UNL     1       1.411   7.997  20.678  0.00  0.00    +0.000 C 
ENDBRANCH   5   7
BRANCH   1  15
ATOM     15  S   UNL     1       6.870   5.611  17.746  0.00  0.00    +0.000 S 
ATOM     16  O   UNL     1       7.278   4.224  17.649  0.00  0.00    +0.000 OA
ATOM     17  O   UNL     1       7.550   6.517  18.649  0.00  0.00    +0.000 OA
BRANCH  15  18
ATOM     18  N   UNL     1       6.914   6.219  16.191  0.00  0.00    +0.000 N 
ATOM     19  H   UNL     1       6.857   7.230  16.102  0.00  0.00    +0.000 HD
BRANCH  18  24
ATOM     20  C   UNL     1       5.684   2.765  11.812  0.00  0.00    +0.000 C 
ATOM     21  C   UNL     1       6.028   3.680  12.950  0.00  0.00    +0.000 A 
ATOM     22  C   UNL     1       7.275   4.319  13.020  0.00  0.00    +0.000 A 
ATOM     23  C   UNL     1       7.574   5.173  14.086  0.00  0.00    +0.000 A 
ATOM     24  C   UNL     1       6.628   5.388  15.083  0.00  0.00    +0.000 A 
ATOM     25  C   UNL     1       5.393   4.746  15.036  0.00  0.00    +0.000 A 
ATOM     26  C   UNL     1       5.092   3.902  13.969  0.00  0.00    +0.000 A 
ENDBRANCH  18  24
ENDBRANCH  15  18
ENDBRANCH   1  15
TORSDOF 4
ENDMDL
MODEL 9
REMARK VINA RESULT:      -7.6      1.503      2.135
REMARK  Name = 
REMARK  5 active torsions:
REMARK  status: ('A' for Active; 'I' for Inactive)
REMARK    1  A    between atoms: C_1  and  C_2
REMARK    2  A    between atoms: C_5  and  N_6
REMARK    3  A    between atoms: N_6  and  S_7
REMARK    4  A    between atoms: S_7  and  C_10
REMARK    5  A    between atoms: C_14  and  C_15
REMARK                            x       y       z     vdW  Elec       q    Type
REMARK                         _______ _______ _______ _____ _____    ______ ____
ROOT
ATOM      1  C   UNL     1       1.542   8.809  19.746  0.00  0.00    +0.000 A 
ATOM      2  C   UNL     1       1.684   9.343  18.462  0.00  0.00    +0.000 A 
ATOM      3  C   UNL     1       2.399   8.637  17.499  0.00  0.00    +0.000 A 
ATOM      4  C   UNL     1       2.959   7.398  17.817  0.00  0.00    +0.000 A 
ATOM      5  C   UNL     1       2.895   6.891  19.122  0.00  0.00    +0.000 A 
ATOM      6  C   UNL     1       2.150   7.593  20.085  0.00  0.00    +0.000 A 
ENDROOT
BRANCH   5   7
ATOM      7  C   UNL     1       3.476   5.565  19.497  0.00  0.00    +0.000 C 
ATOM      8  O   UNL     1       4.693   5.528  19.685  0.00  0.00    +0.000 OA
ATOM      9  N   UNL     1       2.671   4.428  19.640  0.00  0.00    +0.000 N 
ATOM     10  C   UNL     1       3.239   3.256  20.312  0.00  0.00    +0.000 C 
ATOM     11  C   UNL     1       3.087   1.993  19.470  0.00  0.00    +0.000 C 
ATOM     12  C   UNL     1       1.634   1.778  19.056  0.00  0.00    +0.000 C 
ATOM     13  C   UNL     1       1.094   3.015  18.350  0.00  0.00    +0.000 C 
ATOM     14  C   UNL     1       1.285   4.274  19.192  0.00  0.00    +0.000 C 
ENDBRANCH   5   7
BRANCH   1  15
ATOM     15  S   UNL     1       0.470   9.627  20.907  0.00  0.00    +0.000 S 
ATOM     16  O   UNL     1       1.279  10.046  22.034  0.00  0.00    +0.000 OA
ATOM     17  O   UNL     1      -0.701   8.799  21.107  0.00  0.00    +0.000 OA
BRANCH  15  18
ATOM     18  N   UNL     1       0.045  11.025  20.096  0.00  0.00    +0.000 N 
ATOM     19  H   UNL     1       0.611  11.846  20.291  0.00  0.00    +0.000 HD
BRANCH  18  24
ATOM     20  C   UNL     1      -5.078  11.567  17.629  0.00  0.00    +0.000 C 
ATOM     21  C   UNL     1      -3.740  11.439  18.296  0.00  0.00    +0.000 A 
ATOM     22  C   UNL     1      -3.414  12.200  19.428  0.00  0.00    +0.000 A 
ATOM     23  C   UNL     1      -2.165  12.061  20.040  0.00  0.00    +0.000 A 
ATOM     24  C   UNL     1      -1.239  11.162  19.519  0.00  0.00    +0.000 A 
ATOM     25  C   UNL     1      -1.542  10.413  18.385  0.00  0.00    +0.000 A 
ATOM     26  C   UNL     1      -2.791  10.546  17.782  0.00  0.00    +0.000 A 
ENDBRANCH  18  24
ENDBRANCH  15  18
ENDBRANCH   1  15
TORSDOF 4
ENDMDL
