MODEL 1
REMARK VINA RESULT:      -9.4      0.000      0.000
REMARK  Name = 
REMARK  7 active torsions:
REMARK  status: ('A' for Active; 'I' for Inactive)
REMARK    1  A    between atoms: C_1  and  O_2
REMARK    2  A    between atoms: O_2  and  C_3
REMARK    3  A    between atoms: C_6  and  C_7
REMARK    4  A    between atoms: C_8  and  C_9
REMARK    5  A    between atoms: C_12  and  C_13
REMARK    6  A    between atoms: C_19  and  C_20
REMARK    7  A    between atoms: C_20  and  O_22
REMARK                            x       y       z     vdW  Elec       q    Type
REMARK                         _______ _______ _______ _____ _____    ______ ____
ROOT
ATOM      1  C   UNL     1       7.497   7.485  18.035  0.00  0.00    +0.000 A 
ATOM      2  C   UNL     1       6.359   7.611  17.233  0.00  0.00    +0.000 A 
ATOM      3  C   UNL     1       5.547   6.496  16.972  0.00  0.00    +0.000 A 
ATOM      4  C   UNL     1       5.880   5.243  17.502  0.00  0.00    +0.000 A 
ATOM      5  C   UNL     1       7.049   5.129  18.265  0.00  0.00    +0.000 A 
ATOM      6  C   UNL     1       7.835   6.244  18.558  0.00  0.00    +0.000 A 
ENDROOT
BRANCH   4   7
ATOM      7  C   UNL     1       5.076   4.042  17.111  0.00  0.00    +0.000 C 
ATOM      8  O   UNL     1       5.124   3.658  15.942  0.00  0.00    +0.000 OA
ATOM      9  N   UNL     1       4.333   3.365  18.078  0.00  0.00    +0.000 N 
ATOM     10  C   UNL     1       3.724   2.090  17.728  0.00  0.00    +0.000 C 
ATOM     11  C   UNL     1       2.212   2.147  17.902  0.00  0.00    +0.000 C 
ATOM     12  C   UNL     1       1.833   2.632  19.301  0.00  0.00    +0.000 C 
ATOM     13  C   UNL     1       2.500   3.968  19.639  0.00  0.00    +0.000 C 
ATOM     14  C   UNL     1       4.006   3.885  19.407  0.00  0.00    +0.000 C 
BRANCH  13  15
ATOM     15  C   UNL     1       2.259   4.357  21.085  0.00  0.00    +0.000 C 
ATOM     16  O   UNL     1       2.172   3.568  22.014  0.00  0.00    +0.000 OA
BRANCH  15  17
ATOM     17  O   UNL     1       2.168   5.692  21.280  0.00  0.00    +0.000 OA
ATOM     18  H   UNL     1       1.615   6.169  20.634  0.00  0.00    +0.000 HD
ENDBRANCH  15  17
ENDBRANCH  13  15
ENDBRANCH   4   7
BRANCH   1  20
ATOM     19  C   UNL     1       8.987   9.597  18.573  0.00  0.00    +0.000 C 
ATOM     20  C   UNL     1       8.319   8.616  18.324  0.00  0.00    +0.000 C 
BRANCH  19  24
ATOM     21  C   UNL     1      11.329  13.033  19.353  0.00  0.00    +0.000 A 
ATOM     22  C   UNL     1      10.726  12.335  20.399  0.00  0.00    +0.000 A 
ATOM     23  C   UNL     1       9.946  11.204  20.139  0.00  0.00    +0.000 A 
ATOM     24  C   UNL     1       9.750  10.774  18.824  0.00  0.00    +0.000 A 
ATOM     25  C   UNL     1      10.337  11.485  17.775  0.00  0.00    +0.000 A 
ATOM     26  C   UNL     1      11.121  12.615  18.038  0.00  0.00    +0.000 A 
BRANCH  21  28
ATOM     27  C   UNL     1      11.553  15.374  19.481  0.00  0.00    +0.000 C 
ATOM     28  O   UNL     1      12.116  14.089  19.725  0.00  0.00    +0.000 OA
ENDBRANCH  21  28
ENDBRANCH  19  24
ENDBRANCH   1  20
TORSDOF 6
ENDMDL
MODEL 2
REMARK VINA RESULT:      -9.3      0.324      1.152
REMARK  Name = 
REMARK  7 active torsions:
REMARK  status: ('A' for Active; 'I' for Inactive)
REMARK    1  A    between atoms: C_1  and  O_2
REMARK    2  A    between atoms: O_2  and  C_3
REMARK    3  A    between atoms: C_6  and  C_7
REMARK    4  A    between atoms: C_8  and  C_9
REMARK    5  A    between atoms: C_12  and  C_13
REMARK    6  A    between atoms: C_19  and  C_20
REMARK    7  A    between atoms: C_20  and  O_22
REMARK                            x       y       z     vdW  Elec       q    Type
REMARK                         _______ _______ _______ _____ _____    ______ ____
ROOT
ATOM      1  C   UNL     1       7.552   7.629  17.995  0.00  0.00    +0.000 A 
ATOM      2  C   UNL     1       6.417   7.697  17.181  0.00  0.00    +0.000 A 
ATOM      3  C   UNL     1       5.641   6.552  16.948  0.00  0.00    +0.000 A 
ATOM      4  C   UNL     1       6.005   5.325  17.517  0.00  0.00    +0.000 A 
ATOM      5  C   UNL     1       7.171   5.269  18.292  0.00  0.00    +0.000 A 
ATOM      6  C   UNL     1       7.922   6.415  18.557  0.00  0.00    +0.000 A 
ENDROOT
BRANCH   4   7
ATOM      7  C   UNL     1       5.240   4.090  17.156  0.00  0.00    +0.000 C 
ATOM      8  O   UNL     1       5.433   3.581  16.052  0.00  0.00    +0.000 OA
ATOM      9  N   UNL     1       4.367   3.524  18.085  0.00  0.00    +0.000 N 
ATOM     10  C   UNL     1       3.788   2.220  17.798  0.00  0.00    +0.000 C 
ATOM     11  C   UNL     1       2.268   2.298  17.765  0.00  0.00    +0.000 C 
ATOM     12  C   UNL     1       1.717   2.934  19.041  0.00  0.00    +0.000 C 
ATOM     13  C   UNL     1       2.356   4.297  19.318  0.00  0.00    +0.000 C 
ATOM     14  C   UNL     1       3.878   4.187  19.295  0.00  0.00    +0.000 C 
BRANCH  13  15
ATOM     15  C   UNL     1       1.936   4.843  20.669  0.00  0.00    +0.000 C 
ATOM     16  O   UNL     1       1.497   5.967  20.860  0.00  0.00    +0.000 OA
BRANCH  15  17
ATOM     17  O   UNL     1       2.065   3.953  21.678  0.00  0.00    +0.000 OA
ATOM     18  H   UNL     1       1.316   3.337  21.787  0.00  0.00    +0.000 HD
ENDBRANCH  15  17
ENDBRANCH  13  15
ENDBRANCH   4   7
BRANCH   1  20
ATOM     19  C   UNL     1       9.034   9.758  18.490  0.00  0.00    +0.000 C 
ATOM     20  C   UNL     1       8.339   8.792  18.256  0.00  0.00    +0.000 C 
BRANCH  19  24
ATOM     21  C   UNL     1      11.398  13.142  19.417  0.00  0.00    +0.000 A 
ATOM     22  C   UNL     1      11.263  12.712  18.097  0.00  0.00    +0.000 A 
ATOM     23  C   UNL     1      10.488  11.589  17.792  0.00  0.00    +0.000 A 
ATOM     24  C   UNL     1       9.855  10.876  18.814  0.00  0.00    +0.000 A 
ATOM     25  C   UNL     1      10.006  11.294  20.138  0.00  0.00    +0.000 A 
ATOM     26  C   UNL     1      10.780  12.421  20.440  0.00  0.00    +0.000 A 
BRANCH  21  28
ATOM     27  C   UNL     1      11.368  15.455  19.857  0.00  0.00    +0.000 C 
ATOM     28  O   UNL     1      12.131  14.283  19.594  0.00  0.00    +0.000 OA
ENDBRANCH  21  28
ENDBRANCH  19  24
ENDBRANCH   1  20
TORSDOF 6
ENDMDL
MODEL 3
REMARK VINA RESULT:      -9.2      0.372      1.362
REMARK  Name = 
REMARK  7 active torsions:
REMARK  status: ('A' for Active; 'I' for Inactive)
REMARK    1  A    between atoms: C_1  and  O_2
REMARK    2  A    between atoms: O_2  and  C_3
REMARK    3  A    between atoms: C_6  and  C_7
REMARK    4  A    between atoms: C_8  and  C_9
REMARK    5  A    between atoms: C_12  and  C_13
REMARK    6  A    between atoms: C_19  and  C_20
REMARK    7  A    between atoms: C_20  and  O_22
REMARK                            x       y       z     vdW  Elec       q    Type
REMARK                         _______ _______ _______ _____ _____    ______ ____
ROOT
ATOM      1  C   UNL     1       7.490   7.397  17.907  0.00  0.00    +0.000 A 
ATOM      2  C   UNL     1       7.837   6.143  18.422  0.00  0.00    +0.000 A 
ATOM      3  C   UNL     1       7.094   5.004  18.075  0.00  0.00    +0.000 A 
ATOM      4  C   UNL     1       5.988   5.116  17.223  0.00  0.00    +0.000 A 
ATOM      5  C   UNL     1       5.631   6.387  16.756  0.00  0.00    +0.000 A 
ATOM      6  C   UNL     1       6.392   7.515  17.067  0.00  0.00    +0.000 A 
ENDROOT
BRANCH   4   7
ATOM      7  C   UNL     1       5.133   3.914  16.966  0.00  0.00    +0.000 C 
ATOM      8  O   UNL     1       5.191   3.377  15.860  0.00  0.00    +0.000 OA
ATOM      9  N   UNL     1       4.331   3.408  17.989  0.00  0.00    +0.000 N 
ATOM     10  C   UNL     1       3.665   2.129  17.789  0.00  0.00    +0.000 C 
ATOM     11  C   UNL     1       2.155   2.281  17.904  0.00  0.00    +0.000 C 
ATOM     12  C   UNL     1       1.765   2.966  19.215  0.00  0.00    +0.000 C 
ATOM     13  C   UNL     1       2.492   4.300  19.397  0.00  0.00    +0.000 C 
ATOM     14  C   UNL     1       3.997   4.115  19.227  0.00  0.00    +0.000 C 
BRANCH  13  15
ATOM     15  C   UNL     1       2.235   4.889  20.771  0.00  0.00    +0.000 C 
ATOM     16  O   UNL     1       2.253   4.254  21.815  0.00  0.00    +0.000 OA
BRANCH  15  17
ATOM     17  O   UNL     1       2.000   6.219  20.757  0.00  0.00    +0.000 OA
ATOM     18  H   UNL     1       1.245   6.513  21.302  0.00  0.00    +0.000 HD
ENDBRANCH  15  17
ENDBRANCH  13  15
ENDBRANCH   4   7
BRANCH   1  20
ATOM     19  C   UNL     1       8.899   9.536  18.549  0.00  0.00    +0.000 C 
ATOM     20  C   UNL     1       8.250   8.560  18.236  0.00  0.00    +0.000 C 
BRANCH  19  24
ATOM     21  C   UNL     1      10.978  13.031  19.717  0.00  0.00    +0.000 A 
ATOM     22  C   UNL     1      10.922  12.655  18.375  0.00  0.00    +0.000 A 
ATOM     23  C   UNL     1      10.241  11.496  17.991  0.00  0.00    +0.000 A 
ATOM     24  C   UNL     1       9.625  10.693  18.954  0.00  0.00    +0.000 A 
ATOM     25  C   UNL     1       9.698  11.058  20.301  0.00  0.00    +0.000 A 
ATOM     26  C   UNL     1      10.377  12.222  20.682  0.00  0.00    +0.000 A 
BRANCH  21  28
ATOM     27  C   UNL     1      11.269  15.288  19.110  0.00  0.00    +0.000 C 
ATOM     28  O   UNL     1      11.621  14.211  19.972  0.00  0.00    +0.000 OA
ENDBRANCH  21  28
ENDBRANCH  19  24
ENDBRANCH   1  20
TORSDOF 6
ENDMDL
MODEL 4
REMARK VINA RESULT:      -9.2      0.436      1.186
REMARK  Name = 
REMARK  7 active torsions:
REMARK  status: ('A' for Active; 'I' for Inactive)
REMARK    1  A    between atoms: C_1  and  O_2
REMARK    2  A    between atoms: O_2  and  C_3
REMARK    3  A    between atoms: C_6  and  C_7
REMARK    4  A    between atoms: C_8  and  C_9
REMARK    5  A    between atoms: C_12  and  C_13
REMARK    6  A    between atoms: C_19  and  C_20
REMARK    7  A    between atoms: C_20  and  O_22
REMARK                            x       y       z     vdW  Elec       q    Type
REMARK                         _______ _______ _______ _____ _____    ______ ____
ROOT
ATOM      1  C   UNL     1       7.561   7.506  17.961  0.00  0.00    +0.000 A 
ATOM      2  C   UNL     1       7.891   6.272  18.532  0.00  0.00    +0.000 A 
ATOM      3  C   UNL     1       7.173   5.116  18.190  0.00  0.00    +0.000 A 
ATOM      4  C   UNL     1       6.108   5.190  17.284  0.00  0.00    +0.000 A 
ATOM      5  C   UNL     1       5.763   6.443  16.759  0.00  0.00    +0.000 A 
ATOM      6  C   UNL     1       6.501   7.586  17.067  0.00  0.00    +0.000 A 
ENDROOT
BRANCH   4   7
ATOM      7  C   UNL     1       5.273   3.974  17.029  0.00  0.00    +0.000 C 
ATOM      8  O   UNL     1       5.421   3.373  15.964  0.00  0.00    +0.000 OA
ATOM      9  N   UNL     1       4.389   3.526  18.010  0.00  0.00    +0.000 N 
ATOM     10  C   UNL     1       3.739   2.236  17.831  0.00  0.00    +0.000 C 
ATOM     11  C   UNL     1       2.224   2.391  17.813  0.00  0.00    +0.000 C 
ATOM     12  C   UNL     1       1.730   3.150  19.045  0.00  0.00    +0.000 C 
ATOM     13  C   UNL     1       2.443   4.494  19.208  0.00  0.00    +0.000 C 
ATOM     14  C   UNL     1       3.956   4.303  19.173  0.00  0.00    +0.000 C 
BRANCH  13  15
ATOM     15  C   UNL     1       2.075   5.161  20.519  0.00  0.00    +0.000 C 
ATOM     16  O   UNL     1       1.661   6.306  20.627  0.00  0.00    +0.000 OA
BRANCH  15  17
ATOM     17  O   UNL     1       2.223   4.358  21.597  0.00  0.00    +0.000 OA
ATOM     18  H   UNL     1       1.439   3.824  21.827  0.00  0.00    +0.000 HD
ENDBRANCH  15  17
ENDBRANCH  13  15
ENDBRANCH   4   7
BRANCH   1  20
ATOM     19  C   UNL     1       8.937   9.686  18.527  0.00  0.00    +0.000 C 
ATOM     20  C   UNL     1       8.296   8.685  18.285  0.00  0.00    +0.000 C 
BRANCH  19  24
ATOM     21  C   UNL     1      11.382  13.036  19.364  0.00  0.00    +0.000 A 
ATOM     22  C   UNL     1      10.875  12.252  20.400  0.00  0.00    +0.000 A 
ATOM     23  C   UNL     1      10.061  11.150  20.123  0.00  0.00    +0.000 A 
ATOM     24  C   UNL     1       9.734  10.835  18.802  0.00  0.00    +0.000 A 
ATOM     25  C   UNL     1      10.224  11.632  17.765  0.00  0.00    +0.000 A 
ATOM     26  C   UNL     1      11.042  12.733  18.044  0.00  0.00    +0.000 A 
BRANCH  21  28
ATOM     27  C   UNL     1      12.040  15.273  19.029  0.00  0.00    +0.000 C 
ATOM     28  O   UNL     1      12.212  14.054  19.746  0.00  0.00    +0.000 OA
ENDBRANCH  21  28
ENDBRANCH  19  24
ENDBRANCH   1  20
TORSDOF 6
ENDMDL
MODEL 5
REMARK VINA RESULT:      -9.0      0.753      1.031
REMARK  Name = 
REMARK  7 active torsions:
REMARK  status: ('A' for Active; 'I' for Inactive)
REMARK    1  A    between atoms: C_1  and  O_2
REMARK    2  A    between atoms: O_2  and  C_3
REMARK    3  A    between atoms: C_6  and  C_7
REMARK    4  A    between atoms: C_8  and  C_9
REMARK    5  A    between atoms: C_12  and  C_13
REMARK    6  A    between atoms: C_19  and  C_20
REMARK    7  A    between atoms: C_20  and  O_22
REMARK                            x       y       z     vdW  Elec       q    Type
REMARK                         _______ _______ _______ _____ _____    ______ ____
ROOT
ATOM      1  C   UNL     1       7.194   7.589  17.742  0.00  0.00    +0.000 A 
ATOM      2  C   UNL     1       5.920   7.605  17.165  0.00  0.00    +0.000 A 
ATOM      3  C   UNL     1       5.204   6.411  16.993  0.00  0.00    +0.000 A 
ATOM      4  C   UNL     1       5.765   5.189  17.385  0.00  0.00    +0.000 A 
ATOM      5  C   UNL     1       7.060   5.190  17.919  0.00  0.00    +0.000 A 
ATOM      6  C   UNL     1       7.758   6.380  18.127  0.00  0.00    +0.000 A 
ENDROOT
BRANCH   4   7
ATOM      7  C   UNL     1       5.041   3.915  17.079  0.00  0.00    +0.000 C 
ATOM      8  O   UNL     1       5.088   3.473  15.931  0.00  0.00    +0.000 OA
ATOM      9  N   UNL     1       4.373   3.239  18.100  0.00  0.00    +0.000 N 
ATOM     10  C   UNL     1       3.849   1.907  17.833  0.00  0.00    +0.000 C 
ATOM     11  C   UNL     1       2.342   1.866  18.046  0.00  0.00    +0.000 C 
ATOM     12  C   UNL     1       1.963   2.397  19.428  0.00  0.00    +0.000 C 
ATOM     13  C   UNL     1       2.539   3.793  19.679  0.00  0.00    +0.000 C 
ATOM     14  C   UNL     1       4.041   3.805  19.409  0.00  0.00    +0.000 C 
BRANCH  13  15
ATOM     15  C   UNL     1       2.306   4.241  21.109  0.00  0.00    +0.000 C 
ATOM     16  O   UNL     1       2.221   3.489  22.069  0.00  0.00    +0.000 OA
BRANCH  15  17
ATOM     17  O   UNL     1       2.221   5.582  21.251  0.00  0.00    +0.000 OA
ATOM     18  H   UNL     1       3.013   6.011  21.626  0.00  0.00    +0.000 HD
ENDBRANCH  15  17
ENDBRANCH  13  15
ENDBRANCH   4   7
BRANCH   1  20
ATOM     19  C   UNL     1       8.566   9.819  18.080  0.00  0.00    +0.000 C 
ATOM     20  C   UNL     1       7.925   8.799  17.941  0.00  0.00    +0.000 C 
BRANCH  19  24
ATOM     21  C   UNL     1      10.863  13.327  18.644  0.00  0.00    +0.000 A 
ATOM     22  C   UNL     1       9.702  13.356  17.871  0.00  0.00    +0.000 A 
ATOM     23  C   UNL     1       8.948  12.195  17.679  0.00  0.00    +0.000 A 
ATOM     24  C   UNL     1       9.363  10.988  18.247  0.00  0.00    +0.000 A 
ATOM     25  C   UNL     1      10.537  10.953  19.004  0.00  0.00    +0.000 A 
ATOM     26  C   UNL     1      11.288  12.118  19.198  0.00  0.00    +0.000 A 
BRANCH  21  28
ATOM     27  C   UNL     1      12.329  14.929  17.731  0.00  0.00    +0.000 C 
ATOM     28  O   UNL     1      11.492  14.530  18.812  0.00  0.00    +0.000 OA
ENDBRANCH  21  28
ENDBRANCH  19  24
ENDBRANCH   1  20
TORSDOF 6
ENDMDL
MODEL 6
REMARK VINA RESULT:      -8.6      1.049      1.650
REMARK  Name = 
REMARK  7 active torsions:
REMARK  status: ('A' for Active; 'I' for Inactive)
REMARK    1  A    between atoms: C_1  and  O_2
REMARK    2  A    between atoms: O_2  and  C_3
REMARK    3  A    between atoms: C_6  and  C_7
REMARK    4  A    between atoms: C_8  and  C_9
REMARK    5  A    between atoms: C_12  and  C_13
REMARK    6  A    between atoms: C_19  and  C_20
REMARK    7  A    between atoms: C_20  and  O_22
REMARK                            x       y       z     vdW  Elec       q    Type
REMARK                         _______ _______ _______ _____ _____    ______ ____
ROOT
ATOM      1  C   UNL     1       7.873   8.088  18.050  0.00  0.00    +0.000 A 
ATOM      2  C   UNL     1       8.209   6.877  18.664  0.00  0.00    +0.000 A 
ATOM      3  C   UNL     1       7.524   5.699  18.330  0.00  0.00    +0.000 A 
ATOM      4  C   UNL     1       6.486   5.728  17.390  0.00  0.00    +0.000 A 
ATOM      5  C   UNL     1       6.135   6.960  16.821  0.00  0.00    +0.000 A 
ATOM      6  C   UNL     1       6.841   8.125  17.122  0.00  0.00    +0.000 A 
ENDROOT
BRANCH   4   7
ATOM      7  C   UNL     1       5.684   4.489  17.140  0.00  0.00    +0.000 C 
ATOM      8  O   UNL     1       5.939   3.814  16.143  0.00  0.00    +0.000 OA
ATOM      9  N   UNL     1       4.704   4.106  18.057  0.00  0.00    +0.000 N 
ATOM     10  C   UNL     1       4.077   2.801  17.907  0.00  0.00    +0.000 C 
ATOM     11  C   UNL     1       2.572   2.942  17.724  0.00  0.00    +0.000 C 
ATOM     12  C   UNL     1       1.954   3.784  18.841  0.00  0.00    +0.000 C 
ATOM     13  C   UNL     1       2.645   5.143  18.977  0.00  0.00    +0.000 C 
ATOM     14  C   UNL     1       4.155   4.962  19.110  0.00  0.00    +0.000 C 
BRANCH  13  15
ATOM     15  C   UNL     1       2.145   5.900  20.192  0.00  0.00    +0.000 C 
ATOM     16  O   UNL     1       1.870   7.090  20.206  0.00  0.00    +0.000 OA
BRANCH  15  17
ATOM     17  O   UNL     1       2.000   5.127  21.292  0.00  0.00    +0.000 OA
ATOM     18  H   UNL     1       1.799   5.612  22.115  0.00  0.00    +0.000 HD
ENDBRANCH  15  17
ENDBRANCH  13  15
ENDBRANCH   4   7
BRANCH   1  20
ATOM     19  C   UNL     1       9.201  10.300  18.612  0.00  0.00    +0.000 C 
ATOM     20  C   UNL     1       8.576   9.290  18.366  0.00  0.00    +0.000 C 
BRANCH  19  24
ATOM     21  C   UNL     1      11.442  13.746  19.612  0.00  0.00    +0.000 A 
ATOM     22  C   UNL     1      10.144  13.864  19.115  0.00  0.00    +0.000 A 
ATOM     23  C   UNL     1       9.407  12.726  18.778  0.00  0.00    +0.000 A 
ATOM     24  C   UNL     1       9.974  11.456  18.920  0.00  0.00    +0.000 A 
ATOM     25  C   UNL     1      11.281  11.338  19.398  0.00  0.00    +0.000 A 
ATOM     26  C   UNL     1      12.016  12.480  19.739  0.00  0.00    +0.000 A 
BRANCH  21  28
ATOM     27  C   UNL     1      11.937  15.967  19.003  0.00  0.00    +0.000 C 
ATOM     28  O   UNL     1      12.049  14.921  19.963  0.00  0.00    +0.000 OA
ENDBRANCH  21  28
ENDBRANCH  19  24
ENDBRANCH   1  20
TORSDOF 6
ENDMDL
MODEL 7
REMARK VINA RESULT:      -8.0      6.250      8.693
REMARK  Name = 
REMARK  7 active torsions:
REMARK  status: ('A' for Active; 'I' for Inactive)
REMARK    1  A    between atoms: C_1  and  O_2
REMARK    2  A    between atoms: O_2  and  C_3
REMARK    3  A    between atoms: C_6  and  C_7
REMARK    4  A    between atoms: C_8  and  C_9
REMARK    5  A    between atoms: C_12  and  C_13
REMARK    6  A    between atoms: C_19  and  C_20
REMARK    7  A    between atoms: C_20  and  O_22
REMARK                            x       y       z     vdW  Elec       q    Type
REMARK                         _______ _______ _______ _____ _____    ______ ____
ROOT
ATOM      1  C   UNL     1       1.363   8.851  19.885  0.00  0.00    +0.000 A 
ATOM      2  C   UNL     1       1.686   7.658  20.540  0.00  0.00    +0.000 A 
ATOM      3  C   UNL     1       2.309   6.611  19.842  0.00  0.00    +0.000 A 
ATOM      4  C   UNL     1       2.600   6.748  18.479  0.00  0.00    +0.000 A 
ATOM      5  C   UNL     1       2.227   7.933  17.832  0.00  0.00    +0.000 A 
ATOM      6  C   UNL     1       1.644   8.989  18.532  0.00  0.00    +0.000 A 
ENDROOT
BRANCH   4   7
ATOM      7  C   UNL     1       3.148   5.577  17.723  0.00  0.00    +0.000 C 
ATOM      8  O   UNL     1       2.462   4.558  17.640  0.00  0.00    +0.000 OA
ATOM      9  N   UNL     1       4.392   5.681  17.100  0.00  0.00    +0.000 N 
ATOM     10  C   UNL     1       4.817   4.614  16.205  0.00  0.00    +0.000 C 
ATOM     11  C   UNL     1       6.119   3.990  16.688  0.00  0.00    +0.000 C 
ATOM     12  C   UNL     1       7.194   5.053  16.913  0.00  0.00    +0.000 C 
ATOM     13  C   UNL     1       6.708   6.163  17.848  0.00  0.00    +0.000 C 
ATOM     14  C   UNL     1       5.379   6.730  17.357  0.00  0.00    +0.000 C 
BRANCH  13  15
ATOM     15  C   UNL     1       7.711   7.298  17.930  0.00  0.00    +0.000 C 
ATOM     16  O   UNL     1       7.789   8.218  17.129  0.00  0.00    +0.000 OA
BRANCH  15  17
ATOM     17  O   UNL     1       8.527   7.226  19.005  0.00  0.00    +0.000 OA
ATOM     18  H   UNL     1       9.429   6.904  18.821  0.00  0.00    +0.000 HD
ENDBRANCH  15  17
ENDBRANCH  13  15
ENDBRANCH   4   7
BRANCH   1  20
ATOM     19  C   UNL     1       0.215  10.824  21.212  0.00  0.00    +0.000 C 
ATOM     20  C   UNL     1       0.748   9.930  20.588  0.00  0.00    +0.000 C 
BRANCH  19  24
ATOM     21  C   UNL     1      -1.820  13.891  23.298  0.00  0.00    +0.000 A 
ATOM     22  C   UNL     1      -0.711  14.188  22.506  0.00  0.00    +0.000 A 
ATOM     23  C   UNL     1      -0.035  13.173  21.823  0.00  0.00    +0.000 A 
ATOM     24  C   UNL     1      -0.455  11.846  21.944  0.00  0.00    +0.000 A 
ATOM     25  C   UNL     1      -1.553  11.545  22.754  0.00  0.00    +0.000 A 
ATOM     26  C   UNL     1      -2.231  12.564  23.433  0.00  0.00    +0.000 A 
BRANCH  21  28
ATOM     27  C   UNL     1      -3.040  14.708  25.139  0.00  0.00    +0.000 C 
ATOM     28  O   UNL     1      -2.439  14.966  23.874  0.00  0.00    +0.000 OA
ENDBRANCH  21  28
ENDBRANCH  19  24
ENDBRANCH   1  20
TORSDOF 6
ENDMDL
MODEL 8
REMARK VINA RESULT:      -7.8      8.053     11.670
REMARK  Name = 
REMARK  7 active torsions:
REMARK  status: ('A' for Active; 'I' for Inactive)
REMARK    1  A    between atoms: C_1  and  O_2
REMARK    2  A    between atoms: O_2  and  C_3
REMARK    3  A    between atoms: C_6  and  C_7
REMARK    4  A    between atoms: C_8  and  C_9
REMARK    5  A    between atoms: C_12  and  C_13
REMARK    6  A    between atoms: C_19  and  C_20
REMARK    7  A    between atoms: C_20  and  O_22
REMARK                            x       y       z     vdW  Elec       q    Type
REMARK                         _______ _______ _______ _____ _____    ______ ____
ROOT
ATOM      1  C   UNL     1       0.422   9.572  21.562  0.00  0.00    +0.000 A 
ATOM      2  C   UNL     1      -0.402   9.560  22.692  0.00  0.00    +0.000 A 
ATOM      3  C   UNL     1      -1.043  10.734  23.115  0.00  0.00    +0.000 A 
ATOM      4  C   UNL     1      -0.851  11.933  22.417  0.00  0.00    +0.000 A 
ATOM      5  C   UNL     1       0.015  11.933  21.316  0.00  0.00    +0.000 A 
ATOM      6  C   UNL     1       0.622  10.759  20.870  0.00  0.00    +0.000 A 
ENDROOT
BRANCH   4   7
ATOM      7  C   UNL     1      -1.439  13.200  22.956  0.00  0.00    +0.000 C 
ATOM      8  O   UNL     1      -0.854  13.777  23.872  0.00  0.00    +0.000 OA
ATOM      9  N   UNL     1      -2.602  13.717  22.384  0.00  0.00    +0.000 N 
ATOM     10  C   UNL     1      -3.046  15.046  22.780  0.00  0.00    +0.000 C 
ATOM     11  C   UNL     1      -4.443  14.992  23.382  0.00  0.00    +0.000 C 
ATOM     12  C   UNL     1      -5.423  14.282  22.447  0.00  0.00    +0.000 C 
ATOM     13  C   UNL     1      -4.919  12.895  22.043  0.00  0.00    +0.000 C 
ATOM     14  C   UNL     1      -3.499  12.984  21.489  0.00  0.00    +0.000 C 
BRANCH  13  15
ATOM     15  C   UNL     1      -5.806  12.269  20.984  0.00  0.00    +0.000 C 
ATOM     16  O   UNL     1      -5.655  12.405  19.779  0.00  0.00    +0.000 OA
BRANCH  15  17
ATOM     17  O   UNL     1      -6.799  11.503  21.490  0.00  0.00    +0.000 OA
ATOM     18  H   UNL     1      -6.544  10.940  22.245  0.00  0.00    +0.000 HD
ENDBRANCH  15  17
ENDBRANCH  13  15
ENDBRANCH   4   7
BRANCH   1  20
ATOM     19  C   UNL     1       1.605   7.378  20.690  0.00  0.00    +0.000 C 
ATOM     20  C   UNL     1       1.064   8.379  21.109  0.00  0.00    +0.000 C 
BRANCH  19  24
ATOM     21  C   UNL     1       3.456   3.886  19.180  0.00  0.00    +0.000 A 
ATOM     22  C   UNL     1       3.614   5.110  18.530  0.00  0.00    +0.000 A 
ATOM     23  C   UNL     1       2.996   6.262  19.025  0.00  0.00    +0.000 A 
ATOM     24  C   UNL     1       2.198   6.191  20.170  0.00  0.00    +0.000 A 
ATOM     25  C   UNL     1       2.022   4.962  20.810  0.00  0.00    +0.000 A 
ATOM     26  C   UNL     1       2.645   3.811  20.314  0.00  0.00    +0.000 A 
BRANCH  21  28
ATOM     27  C   UNL     1       3.364   1.693  18.327  0.00  0.00    +0.000 C 
ATOM     28  O   UNL     1       4.150   2.837  18.642  0.00  0.00    +0.000 OA
ENDBRANCH  21  28
ENDBRANCH  19  24
ENDBRANCH   1  20
TORSDOF 6
ENDMDL
MODEL 9
REMARK VINA RESULT:      -7.8      6.773      8.984
REMARK  Name = 
REMARK  7 active torsions:
REMARK  status: ('A' for Active; 'I' for Inactive)
REMARK    1  A    between atoms: C_1  and  O_2
REMARK    2  A    between atoms: O_2  and  C_3
REMARK    3  A    between atoms: C_6  and  C_7
REMARK    4  A    between atoms: C_8  and  C_9
REMARK    5  A    between atoms: C_12  and  C_13
REMARK    6  A    between atoms: C_19  and  C_20
REMARK    7  A    between atoms: C_20  and  O_22
REMARK                            x       y       z     vdW  Elec       q    Type
REMARK                         _______ _______ _______ _____ _____    ______ ____
ROOT
ATOM      1  C   UNL     1       0.763   9.605  20.442  0.00  0.00    +0.000 A 
ATOM      2  C   UNL     1       1.037   9.913  19.106  0.00  0.00    +0.000 A 
ATOM      3  C   UNL     1       1.792   9.033  18.315  0.00  0.00    +0.000 A 
ATOM      4  C   UNL     1       2.291   7.845  18.863  0.00  0.00    +0.000 A 
ATOM      5  C   UNL     1       2.045   7.578  20.216  0.00  0.00    +0.000 A 
ATOM      6  C   UNL     1       1.260   8.432  20.993  0.00  0.00    +0.000 A 
ENDROOT
BRANCH   4   7
ATOM      7  C   UNL     1       3.200   6.982  18.044  0.00  0.00    +0.000 C 
ATOM      8  O   UNL     1       3.925   7.520  17.207  0.00  0.00    +0.000 OA
ATOM      9  N   UNL     1       3.237   5.607  18.274  0.00  0.00    +0.000 N 
ATOM     10  C   UNL     1       4.265   4.814  17.616  0.00  0.00    +0.000 C 
ATOM     11  C   UNL     1       3.639   3.739  16.737  0.00  0.00    +0.000 C 
ATOM     12  C   UNL     1       2.636   2.894  17.524  0.00  0.00    +0.000 C 
ATOM     13  C   UNL     1       1.579   3.761  18.212  0.00  0.00    +0.000 C 
ATOM     14  C   UNL     1       2.244   4.854  19.043  0.00  0.00    +0.000 C 
BRANCH  13  15
ATOM     15  C   UNL     1       0.695   2.935  19.127  0.00  0.00    +0.000 C 
ATOM     16  O   UNL     1       0.185   1.867  18.824  0.00  0.00    +0.000 OA
BRANCH  15  17
ATOM     17  O   UNL     1       0.526   3.477  20.353  0.00  0.00    +0.000 OA
ATOM     18  H   UNL     1       0.586   4.450  20.389  0.00  0.00    +0.000 HD
ENDBRANCH  15  17
ENDBRANCH  13  15
ENDBRANCH   4   7
BRANCH   1  20
ATOM     19  C   UNL     1      -0.684  11.253  21.913  0.00  0.00    +0.000 C 
ATOM     20  C   UNL     1      -0.022  10.482  21.251  0.00  0.00    +0.000 C 
BRANCH  19  24
ATOM     21  C   UNL     1      -2.898  14.095  24.131  0.00  0.00    +0.000 A 
ATOM     22  C   UNL     1      -1.622  14.402  23.660  0.00  0.00    +0.000 A 
ATOM     23  C   UNL     1      -0.888  13.460  22.933  0.00  0.00    +0.000 A 
ATOM     24  C   UNL     1      -1.423  12.193  22.689  0.00  0.00    +0.000 A 
ATOM     25  C   UNL     1      -2.692  11.877  23.179  0.00  0.00    +0.000 A 
ATOM     26  C   UNL     1      -3.427  12.824  23.903  0.00  0.00    +0.000 A 
BRANCH  21  28
ATOM     27  C   UNL     1      -4.711  15.599  24.120  0.00  0.00    +0.000 C 
ATOM     28  O   UNL     1      -3.548  15.109  24.780  0.00  0.00    +0.000 OA
ENDBRANCH  21  28
ENDBRANCH  19  24
ENDBRANCH   1  20
TORSDOF 6
ENDMDL
