MODEL 1
REMARK VINA RESULT:      -8.4      0.000      0.000
REMARK  Name = 
REMARK  5 active torsions:
REMARK  status: ('A' for Active; 'I' for Inactive)
REMARK    1  A    between atoms: C_1  and  O_2
REMARK    2  A    between atoms: O_2  and  C_3
REMARK    3  A    between atoms: C_9  and  C_10
REMARK    4  A    between atoms: C_10  and  N_11
REMARK    5  A    between atoms: C_12  and  C_14
REMARK                            x       y       z     vdW  Elec       q    Type
REMARK                         _______ _______ _______ _____ _____    ______ ____
ROOT
ATOM      1  N   UNL     1       3.053   5.470  17.867  0.00  0.00    +0.000 N 
ATOM      2  C   UNL     1       2.811   5.938  19.149  0.00  0.00    +0.000 C 
ATOM      3  O   UNL     1       3.114   5.324  20.167  0.00  0.00    +0.000 OA
ATOM      4  H   UNL     1       2.959   6.103  17.086  0.00  0.00    +0.000 HD
ENDROOT
BRANCH   2   5
ATOM      5  C   UNL     1       2.187   7.289  19.252  0.00  0.00    +0.000 A 
ATOM      6  C   UNL     1       2.117   8.083  18.099  0.00  0.00    +0.000 A 
ATOM      7  C   UNL     1       1.551   9.359  18.124  0.00  0.00    +0.000 A 
ATOM      8  C   UNL     1       1.074   9.820  19.355  0.00  0.00    +0.000 A 
ATOM      9  C   UNL     1       1.148   9.060  20.521  0.00  0.00    +0.000 A 
ATOM     10  C   UNL     1       1.713   7.777  20.482  0.00  0.00    +0.000 A 
ATOM     11  N   UNL     1       0.612   9.744  21.588  0.00  0.00    +0.000 NA
ATOM     12  C   UNL     1       0.212  10.903  21.106  0.00  0.00    +0.000 A 
ATOM     13  N   UNL     1       0.473  10.990  19.760  0.00  0.00    +0.000 N 
ATOM     14  C   UNL     1       0.123  12.118  18.921  0.00  0.00    +0.000 C 
ATOM     15  C   UNL     1      -1.385  12.344  18.853  0.00  0.00    +0.000 C 
ATOM     16  C   UNL     1      -1.946  13.064  20.080  0.00  0.00    +0.000 C 
ATOM     17  C   UNL     1      -1.879  12.264  21.384  0.00  0.00    +0.000 C 
ATOM     18  C   UNL     1      -0.457  11.991  21.877  0.00  0.00    +0.000 C 
ENDBRANCH   2   5
BRANCH   1  19
ATOM     19  C   UNL     1       3.720   4.203  17.614  0.00  0.00    +0.000 C 
BRANCH  19  26
ATOM     20  C   UNL     1       6.226   4.757  17.416  0.00  0.00    +0.000 A 
ATOM     21  C   UNL     1       7.384   4.842  16.626  0.00  0.00    +0.000 A 
ATOM     22  C   UNL     1       7.344   4.561  15.262  0.00  0.00    +0.000 A 
ATOM     23  C   UNL     1       6.144   4.174  14.679  0.00  0.00    +0.000 A 
ATOM     24 BR   UNL     1       6.101   3.751  12.839  0.00  0.00    +0.000 Br
ATOM     25  C   UNL     1       4.984   4.078  15.447  0.00  0.00    +0.000 A 
ATOM     26  C   UNL     1       5.005   4.371  16.826  0.00  0.00    +0.000 A 
BRANCH  20  28
ATOM     27  C   UNL     1       7.343   5.749  19.256  0.00  0.00    +0.000 C 
ATOM     28  O   UNL     1       6.234   4.992  18.769  0.00  0.00    +0.000 OA
ENDBRANCH  20  28
ENDBRANCH  19  26
ENDBRANCH   1  19
TORSDOF 4
ENDMDL
MODEL 2
REMARK VINA RESULT:      -8.0      3.503      4.836
REMARK  Name = 
REMARK  5 active torsions:
REMARK  status: ('A' for Active; 'I' for Inactive)
REMARK    1  A    between atoms: C_1  and  O_2
REMARK    2  A    between atoms: O_2  and  C_3
REMARK    3  A    between atoms: C_9  and  C_10
REMARK    4  A    between atoms: C_10  and  N_11
REMARK    5  A    between atoms: C_12  and  C_14
REMARK                            x       y       z     vdW  Elec       q    Type
REMARK                         _______ _______ _______ _____ _____    ______ ____
ROOT
ATOM      1  N   UNL     1       1.500   8.689  18.118  0.00  0.00    +0.000 N 
ATOM      2  C   UNL     1       1.185  10.035  18.220  0.00  0.00    +0.000 C 
ATOM      3  O   UNL     1       2.022  10.931  18.239  0.00  0.00    +0.000 OA
ATOM      4  H   UNL     1       0.767   8.027  17.912  0.00  0.00    +0.000 HD
ENDROOT
BRANCH   2   5
ATOM      5  C   UNL     1      -0.268  10.372  18.260  0.00  0.00    +0.000 A 
ATOM      6  C   UNL     1      -1.123   9.755  17.337  0.00  0.00    +0.000 A 
ATOM      7  C   UNL     1      -2.493  10.027  17.313  0.00  0.00    +0.000 A 
ATOM      8  C   UNL     1      -2.971  10.959  18.239  0.00  0.00    +0.000 A 
ATOM      9  C   UNL     1      -2.142  11.602  19.155  0.00  0.00    +0.000 A 
ATOM     10  C   UNL     1      -0.769  11.317  19.173  0.00  0.00    +0.000 A 
ATOM     11  N   UNL     1      -2.861  12.469  19.946  0.00  0.00    +0.000 NA
ATOM     12  C   UNL     1      -4.110  12.373  19.539  0.00  0.00    +0.000 A 
ATOM     13  N   UNL     1      -4.221  11.471  18.507  0.00  0.00    +0.000 N 
ATOM     14  C   UNL     1      -5.463  11.105  17.858  0.00  0.00    +0.000 C 
ATOM     15  C   UNL     1      -6.445  10.439  18.819  0.00  0.00    +0.000 C 
ATOM     16  C   UNL     1      -7.188  11.435  19.713  0.00  0.00    +0.000 C 
ATOM     17  C   UNL     1      -6.309  12.167  20.731  0.00  0.00    +0.000 C 
ATOM     18  C   UNL     1      -5.278  13.108  20.106  0.00  0.00    +0.000 C 
ENDBRANCH   2   5
BRANCH   1  19
ATOM     19  C   UNL     1       2.870   8.218  17.998  0.00  0.00    +0.000 C 
BRANCH  19  26
ATOM     20  C   UNL     1       3.882   5.948  17.330  0.00  0.00    +0.000 A 
ATOM     21  C   UNL     1       3.953   4.557  17.514  0.00  0.00    +0.000 A 
ATOM     22  C   UNL     1       3.131   3.913  18.436  0.00  0.00    +0.000 A 
ATOM     23  C   UNL     1       2.241   4.660  19.197  0.00  0.00    +0.000 A 
ATOM     24 BR   UNL     1       1.159   3.791  20.479  0.00  0.00    +0.000 Br
ATOM     25  C   UNL     1       2.159   6.043  19.034  0.00  0.00    +0.000 A 
ATOM     26  C   UNL     1       2.974   6.708  18.095  0.00  0.00    +0.000 A 
BRANCH  20  28
ATOM     27  C   UNL     1       5.560   5.803  15.663  0.00  0.00    +0.000 C 
ATOM     28  O   UNL     1       4.699   6.621  16.456  0.00  0.00    +0.000 OA
ENDBRANCH  20  28
ENDBRANCH  19  26
ENDBRANCH   1  19
TORSDOF 4
ENDMDL
MODEL 3
REMARK VINA RESULT:      -8.0      4.444      9.593
REMARK  Name = 
REMARK  5 active torsions:
REMARK  status: ('A' for Active; 'I' for Inactive)
REMARK    1  A    between atoms: C_1  and  O_2
REMARK    2  A    between atoms: O_2  and  C_3
REMARK    3  A    between atoms: C_9  and  C_10
REMARK    4  A    between atoms: C_10  and  N_11
REMARK    5  A    between atoms: C_12  and  C_14
REMARK                            x       y       z     vdW  Elec       q    Type
REMARK                         _______ _______ _______ _____ _____    ______ ____
ROOT
ATOM      1  N   UNL     1      -0.812  10.996  18.851  0.00  0.00    +0.000 N 
ATOM      2  C   UNL     1       0.362  10.891  19.580  0.00  0.00    +0.000 C 
ATOM      3  O   UNL     1       0.823  11.799  20.264  0.00  0.00    +0.000 OA
ATOM      4  H   UNL     1      -1.233  10.159  18.474  0.00  0.00    +0.000 HD
ENDROOT
BRANCH   2   5
ATOM      5  C   UNL     1       1.047   9.566  19.542  0.00  0.00    +0.000 A 
ATOM      6  C   UNL     1       0.949   8.730  20.661  0.00  0.00    +0.000 A 
ATOM      7  C   UNL     1       1.570   7.479  20.696  0.00  0.00    +0.000 A 
ATOM      8  C   UNL     1       2.311   7.106  19.571  0.00  0.00    +0.000 A 
ATOM      9  C   UNL     1       2.442   7.925  18.452  0.00  0.00    +0.000 A 
ATOM     10  C   UNL     1       1.810   9.176  18.426  0.00  0.00    +0.000 A 
ATOM     11  N   UNL     1       3.222   7.324  17.491  0.00  0.00    +0.000 NA
ATOM     12  C   UNL     1       3.573   6.157  17.993  0.00  0.00    +0.000 A 
ATOM     13  N   UNL     1       3.044   5.985  19.250  0.00  0.00    +0.000 N 
ATOM     14  C   UNL     1       3.207   4.796  20.060  0.00  0.00    +0.000 C 
ATOM     15  C   UNL     1       2.592   3.561  19.408  0.00  0.00    +0.000 C 
ATOM     16  C   UNL     1       3.470   2.953  18.312  0.00  0.00    +0.000 C 
ATOM     17  C   UNL     1       3.643   3.826  17.066  0.00  0.00    +0.000 C 
ATOM     18  C   UNL     1       4.410   5.125  17.315  0.00  0.00    +0.000 C 
ENDBRANCH   2   5
BRANCH   1  19
ATOM     19  C   UNL     1      -1.624  12.202  18.853  0.00  0.00    +0.000 C 
BRANCH  19  26
ATOM     20  C   UNL     1      -3.460  11.411  17.231  0.00  0.00    +0.000 A 
ATOM     21  C   UNL     1      -4.815  11.139  16.983  0.00  0.00    +0.000 A 
ATOM     22  C   UNL     1      -5.784  11.380  17.954  0.00  0.00    +0.000 A 
ATOM     23  C   UNL     1      -5.402  11.883  19.191  0.00  0.00    +0.000 A 
ATOM     24 BR   UNL     1      -6.712  12.168  20.522  0.00  0.00    +0.000 Br
ATOM     25  C   UNL     1      -4.061  12.155  19.459  0.00  0.00    +0.000 A 
ATOM     26  C   UNL     1      -3.069  11.929  18.484  0.00  0.00    +0.000 A 
BRANCH  20  28
ATOM     27  C   UNL     1      -2.857  10.331  15.210  0.00  0.00    +0.000 C 
ATOM     28  O   UNL     1      -2.473  11.154  16.312  0.00  0.00    +0.000 OA
ENDBRANCH  20  28
ENDBRANCH  19  26
ENDBRANCH   1  19
TORSDOF 4
ENDMDL
MODEL 4
REMARK VINA RESULT:      -8.0      4.269      9.616
REMARK  Name = 
REMARK  5 active torsions:
REMARK  status: ('A' for Active; 'I' for Inactive)
REMARK    1  A    between atoms: C_1  and  O_2
REMARK    2  A    between atoms: O_2  and  C_3
REMARK    3  A    between atoms: C_9  and  C_10
REMARK    4  A    between atoms: C_10  and  N_11
REMARK    5  A    between atoms: C_12  and  C_14
REMARK                            x       y       z     vdW  Elec       q    Type
REMARK                         _______ _______ _______ _____ _____    ______ ____
ROOT
ATOM      1  N   UNL     1       0.031  10.696  19.285  0.00  0.00    +0.000 N 
ATOM      2  C   UNL     1       1.278  10.338  18.796  0.00  0.00    +0.000 C 
ATOM      3  O   UNL     1       2.040  11.120  18.237  0.00  0.00    +0.000 OA
ATOM      4  H   UNL     1      -0.456  10.061  19.900  0.00  0.00    +0.000 HD
ENDROOT
BRANCH   2   5
ATOM      5  C   UNL     1       1.696   8.925  19.023  0.00  0.00    +0.000 A 
ATOM      6  C   UNL     1       1.373   8.320  20.245  0.00  0.00    +0.000 A 
ATOM      7  C   UNL     1       1.737   7.002  20.527  0.00  0.00    +0.000 A 
ATOM      8  C   UNL     1       2.457   6.317  19.544  0.00  0.00    +0.000 A 
ATOM      9  C   UNL     1       2.808   6.899  18.327  0.00  0.00    +0.000 A 
ATOM     10  C   UNL     1       2.431   8.221  18.053  0.00  0.00    +0.000 A 
ATOM     11  N   UNL     1       3.512   6.013  17.543  0.00  0.00    +0.000 NA
ATOM     12  C   UNL     1       3.601   4.904  18.248  0.00  0.00    +0.000 A 
ATOM     13  N   UNL     1       2.976   5.044  19.465  0.00  0.00    +0.000 N 
ATOM     14  C   UNL     1       2.860   3.999  20.460  0.00  0.00    +0.000 C 
ATOM     15  C   UNL     1       2.057   2.803  19.955  0.00  0.00    +0.000 C 
ATOM     16  C   UNL     1       2.863   1.871  19.048  0.00  0.00    +0.000 C 
ATOM     17  C   UNL     1       3.274   2.476  17.703  0.00  0.00    +0.000 C 
ATOM     18  C   UNL     1       4.261   3.638  17.814  0.00  0.00    +0.000 C 
ENDBRANCH   2   5
BRANCH   1  19
ATOM     19  C   UNL     1      -0.477  12.055  19.200  0.00  0.00    +0.000 C 
BRANCH  19  26
ATOM     20  C   UNL     1      -2.752  11.557  18.103  0.00  0.00    +0.000 A 
ATOM     21  C   UNL     1      -4.155  11.599  18.160  0.00  0.00    +0.000 A 
ATOM     22  C   UNL     1      -4.810  12.186  19.240  0.00  0.00    +0.000 A 
ATOM     23  C   UNL     1      -4.066  12.722  20.283  0.00  0.00    +0.000 A 
ATOM     24 BR   UNL     1      -4.957  13.477  21.767  0.00  0.00    +0.000 Br
ATOM     25  C   UNL     1      -2.672  12.684  20.248  0.00  0.00    +0.000 A 
ATOM     26  C   UNL     1      -1.993  12.106  19.156  0.00  0.00    +0.000 A 
BRANCH  20  28
ATOM     27  C   UNL     1      -2.774  10.881  15.832  0.00  0.00    +0.000 C 
ATOM     28  O   UNL     1      -2.072  10.956  17.072  0.00  0.00    +0.000 OA
ENDBRANCH  20  28
ENDBRANCH  19  26
ENDBRANCH   1  19
TORSDOF 4
ENDMDL
MODEL 5
REMARK VINA RESULT:      -7.8      0.882      1.869
REMARK  Name = 
REMARK  5 active torsions:
REMARK  status: ('A' for Active; 'I' for Inactive)
REMARK    1  A    between atoms: C_1  and  O_2
REMARK    2  A    between atoms: O_2  and  C_3
REMARK    3  A    between atoms: C_9  and  C_10
REMARK    4  A    between atoms: C_10  and  N_11
REMARK    5  A    between atoms: C_12  and  C_14
REMARK                            x       y       z     vdW  Elec       q    Type
REMARK                         _______ _______ _______ _____ _____    ______ ____
ROOT
ATOM      1  N   UNL     1       3.081   5.468  18.001  0.00  0.00    +0.000 N 
ATOM      2  C   UNL     1       2.891   5.812  19.330  0.00  0.00    +0.000 C 
ATOM      3  O   UNL     1       3.297   5.139  20.272  0.00  0.00    +0.000 OA
ATOM      4  H   UNL     1       2.896   6.156  17.284  0.00  0.00    +0.000 HD
ENDROOT
BRANCH   2   5
ATOM      5  C   UNL     1       2.188   7.102  19.585  0.00  0.00    +0.000 A 
ATOM      6  C   UNL     1       1.554   7.285  20.822  0.00  0.00    +0.000 A 
ATOM      7  C   UNL     1       0.874   8.466  21.127  0.00  0.00    +0.000 A 
ATOM      8  C   UNL     1       0.835   9.451  20.136  0.00  0.00    +0.000 A 
ATOM      9  C   UNL     1       1.439   9.289  18.891  0.00  0.00    +0.000 A 
ATOM     10  C   UNL     1       2.125   8.101  18.598  0.00  0.00    +0.000 A 
ATOM     11  N   UNL     1       1.251  10.402  18.104  0.00  0.00    +0.000 NA
ATOM     12  C   UNL     1       0.547  11.242  18.835  0.00  0.00    +0.000 A 
ATOM     13  N   UNL     1       0.273  10.707  20.071  0.00  0.00    +0.000 N 
ATOM     14  C   UNL     1      -0.449  11.387  21.126  0.00  0.00    +0.000 C 
ATOM     15  C   UNL     1       0.272  12.645  21.603  0.00  0.00    +0.000 C 
ATOM     16  C   UNL     1       0.075  13.846  20.675  0.00  0.00    +0.000 C 
ATOM     17  C   UNL     1       0.721  13.704  19.293  0.00  0.00    +0.000 C 
ATOM     18  C   UNL     1       0.105  12.607  18.424  0.00  0.00    +0.000 C 
ENDBRANCH   2   5
BRANCH   1  19
ATOM     19  C   UNL     1       3.811   4.277  17.602  0.00  0.00    +0.000 C 
BRANCH  19  26
ATOM     20  C   UNL     1       6.110   5.342  17.143  0.00  0.00    +0.000 A 
ATOM     21  C   UNL     1       7.190   5.551  16.271  0.00  0.00    +0.000 A 
ATOM     22  C   UNL     1       7.175   5.039  14.976  0.00  0.00    +0.000 A 
ATOM     23  C   UNL     1       6.083   4.296  14.547  0.00  0.00    +0.000 A 
ATOM     24 BR   UNL     1       6.084   3.565  12.805  0.00  0.00    +0.000 Br
ATOM     25  C   UNL     1       5.003   4.072  15.399  0.00  0.00    +0.000 A 
ATOM     26  C   UNL     1       4.996   4.594  16.709  0.00  0.00    +0.000 A 
BRANCH  20  28
ATOM     27  C   UNL     1       7.337   5.669  19.143  0.00  0.00    +0.000 C 
ATOM     28  O   UNL     1       6.104   5.801  18.437  0.00  0.00    +0.000 OA
ENDBRANCH  20  28
ENDBRANCH  19  26
ENDBRANCH   1  19
TORSDOF 4
ENDMDL
MODEL 6
REMARK VINA RESULT:      -7.8      3.859      9.487
REMARK  Name = 
REMARK  5 active torsions:
REMARK  status: ('A' for Active; 'I' for Inactive)
REMARK    1  A    between atoms: C_1  and  O_2
REMARK    2  A    between atoms: O_2  and  C_3
REMARK    3  A    between atoms: C_9  and  C_10
REMARK    4  A    between atoms: C_10  and  N_11
REMARK    5  A    between atoms: C_12  and  C_14
REMARK                            x       y       z     vdW  Elec       q    Type
REMARK                         _______ _______ _______ _____ _____    ______ ____
ROOT
ATOM      1  N   UNL     1      -0.909  10.656  19.645  0.00  0.00    +0.000 N 
ATOM      2  C   UNL     1       0.381  10.728  19.144  0.00  0.00    +0.000 C 
ATOM      3  O   UNL     1       0.899  11.765  18.743  0.00  0.00    +0.000 OA
ATOM      4  H   UNL     1      -1.200   9.822  20.135  0.00  0.00    +0.000 HD
ENDROOT
BRANCH   2   5
ATOM      5  C   UNL     1       1.166   9.460  19.155  0.00  0.00    +0.000 A 
ATOM      6  C   UNL     1       1.114   8.651  20.298  0.00  0.00    +0.000 A 
ATOM      7  C   UNL     1       1.828   7.453  20.378  0.00  0.00    +0.000 A 
ATOM      8  C   UNL     1       2.613   7.105  19.276  0.00  0.00    +0.000 A 
ATOM      9  C   UNL     1       2.699   7.900  18.134  0.00  0.00    +0.000 A 
ATOM     10  C   UNL     1       1.974   9.098  18.062  0.00  0.00    +0.000 A 
ATOM     11  N   UNL     1       3.539   7.333  17.202  0.00  0.00    +0.000 NA
ATOM     12  C   UNL     1       3.969   6.211  17.743  0.00  0.00    +0.000 A 
ATOM     13  N   UNL     1       3.434   6.035  18.997  0.00  0.00    +0.000 N 
ATOM     14  C   UNL     1       3.675   4.886  19.846  0.00  0.00    +0.000 C 
ATOM     15  C   UNL     1       3.166   3.589  19.222  0.00  0.00    +0.000 C 
ATOM     16  C   UNL     1       4.106   3.019  18.158  0.00  0.00    +0.000 C 
ATOM     17  C   UNL     1       4.232   3.866  16.888  0.00  0.00    +0.000 C 
ATOM     18  C   UNL     1       4.893   5.227  17.108  0.00  0.00    +0.000 C 
ENDBRANCH   2   5
BRANCH   1  19
ATOM     19  C   UNL     1      -1.765  11.825  19.763  0.00  0.00    +0.000 C 
BRANCH  19  26
ATOM     20  C   UNL     1      -4.240  12.253  19.200  0.00  0.00    +0.000 A 
ATOM     21  C   UNL     1      -5.294  12.197  18.273  0.00  0.00    +0.000 A 
ATOM     22  C   UNL     1      -5.106  11.649  17.006  0.00  0.00    +0.000 A 
ATOM     23  C   UNL     1      -3.854  11.167  16.649  0.00  0.00    +0.000 A 
ATOM     24 BR   UNL     1      -3.590  10.465  14.916  0.00  0.00    +0.000 Br
ATOM     25  C   UNL     1      -2.793  11.217  17.553  0.00  0.00    +0.000 A 
ATOM     26  C   UNL     1      -2.969  11.757  18.844  0.00  0.00    +0.000 A 
BRANCH  20  28
ATOM     27  C   UNL     1      -5.594  12.511  21.128  0.00  0.00    +0.000 C 
ATOM     28  O   UNL     1      -4.378  12.817  20.445  0.00  0.00    +0.000 OA
ENDBRANCH  20  28
ENDBRANCH  19  26
ENDBRANCH   1  19
TORSDOF 4
ENDMDL
MODEL 7
REMARK VINA RESULT:      -7.8      2.683      4.043
REMARK  Name = 
REMARK  5 active torsions:
REMARK  status: ('A' for Active; 'I' for Inactive)
REMARK    1  A    between atoms: C_1  and  O_2
REMARK    2  A    between atoms: O_2  and  C_3
REMARK    3  A    between atoms: C_9  and  C_10
REMARK    4  A    between atoms: C_10  and  N_11
REMARK    5  A    between atoms: C_12  and  C_14
REMARK                            x       y       z     vdW  Elec       q    Type
REMARK                         _______ _______ _______ _____ _____    ______ ____
ROOT
ATOM      1  N   UNL     1       2.616   7.258  18.739  0.00  0.00    +0.000 N 
ATOM      2  C   UNL     1       2.144   8.458  18.231  0.00  0.00    +0.000 C 
ATOM      3  O   UNL     1       2.404   8.872  17.106  0.00  0.00    +0.000 OA
ATOM      4  H   UNL     1       2.211   6.889  19.586  0.00  0.00    +0.000 HD
ENDROOT
BRANCH   2   5
ATOM      5  C   UNL     1       1.234   9.238  19.119  0.00  0.00    +0.000 A 
ATOM      6  C   UNL     1       1.272   8.992  20.498  0.00  0.00    +0.000 A 
ATOM      7  C   UNL     1       0.444   9.682  21.387  0.00  0.00    +0.000 A 
ATOM      8  C   UNL     1      -0.440  10.616  20.838  0.00  0.00    +0.000 A 
ATOM      9  C   UNL     1      -0.513  10.867  19.470  0.00  0.00    +0.000 A 
ATOM     10  C   UNL     1       0.327  10.173  18.587  0.00  0.00    +0.000 A 
ATOM     11  N   UNL     1      -1.462  11.825  19.195  0.00  0.00    +0.000 NA
ATOM     12  C   UNL     1      -1.972  12.167  20.361  0.00  0.00    +0.000 A 
ATOM     13  N   UNL     1      -1.383  11.459  21.381  0.00  0.00    +0.000 N 
ATOM     14  C   UNL     1      -1.688  11.625  22.787  0.00  0.00    +0.000 C 
ATOM     15  C   UNL     1      -1.356  13.026  23.292  0.00  0.00    +0.000 C 
ATOM     16  C   UNL     1      -2.414  14.069  22.924  0.00  0.00    +0.000 C 
ATOM     17  C   UNL     1      -2.530  14.370  21.427  0.00  0.00    +0.000 C 
ATOM     18  C   UNL     1      -3.031  13.193  20.590  0.00  0.00    +0.000 C 
ENDBRANCH   2   5
BRANCH   1  19
ATOM     19  C   UNL     1       3.454   6.360  17.960  0.00  0.00    +0.000 C 
BRANCH  19  26
ATOM     20  C   UNL     1       3.607   3.843  17.443  0.00  0.00    +0.000 A 
ATOM     21  C   UNL     1       3.368   2.515  17.831  0.00  0.00    +0.000 A 
ATOM     22  C   UNL     1       2.713   2.224  19.026  0.00  0.00    +0.000 A 
ATOM     23  C   UNL     1       2.307   3.263  19.854  0.00  0.00    +0.000 A 
ATOM     24 BR   UNL     1       1.460   2.865  21.495  0.00  0.00    +0.000 Br
ATOM     25  C   UNL     1       2.540   4.588  19.489  0.00  0.00    +0.000 A 
ATOM     26  C   UNL     1       3.189   4.901  18.277  0.00  0.00    +0.000 A 
BRANCH  20  28
ATOM     27  C   UNL     1       5.692   3.969  16.324  0.00  0.00    +0.000 C 
ATOM     28  O   UNL     1       4.279   4.167  16.290  0.00  0.00    +0.000 OA
ENDBRANCH  20  28
ENDBRANCH  19  26
ENDBRANCH   1  19
TORSDOF 4
ENDMDL
MODEL 8
REMARK VINA RESULT:      -7.8      4.376      9.791
REMARK  Name = 
REMARK  5 active torsions:
REMARK  status: ('A' for Active; 'I' for Inactive)
REMARK    1  A    between atoms: C_1  and  O_2
REMARK    2  A    between atoms: O_2  and  C_3
REMARK    3  A    between atoms: C_9  and  C_10
REMARK    4  A    between atoms: C_10  and  N_11
REMARK    5  A    between atoms: C_12  and  C_14
REMARK                            x       y       z     vdW  Elec       q    Type
REMARK                         _______ _______ _______ _____ _____    ______ ____
ROOT
ATOM      1  N   UNL     1       0.434  10.873  20.828  0.00  0.00    +0.000 N 
ATOM      2  C   UNL     1       0.999  10.377  19.664  0.00  0.00    +0.000 C 
ATOM      3  O   UNL     1       1.198  11.054  18.661  0.00  0.00    +0.000 OA
ATOM      4  H   UNL     1       0.479  10.319  21.671  0.00  0.00    +0.000 HD
ENDROOT
BRANCH   2   5
ATOM      5  C   UNL     1       1.417   8.945  19.689  0.00  0.00    +0.000 A 
ATOM      6  C   UNL     1       1.169   8.197  20.848  0.00  0.00    +0.000 A 
ATOM      7  C   UNL     1       1.537   6.853  20.944  0.00  0.00    +0.000 A 
ATOM      8  C   UNL     1       2.184   6.291  19.839  0.00  0.00    +0.000 A 
ATOM      9  C   UNL     1       2.461   7.016  18.682  0.00  0.00    +0.000 A 
ATOM     10  C   UNL     1       2.081   8.363  18.595  0.00  0.00    +0.000 A 
ATOM     11  N   UNL     1       3.104   6.232  17.751  0.00  0.00    +0.000 NA
ATOM     12  C   UNL     1       3.227   5.044  18.309  0.00  0.00    +0.000 A 
ATOM     13  N   UNL     1       2.685   5.037  19.572  0.00  0.00    +0.000 N 
ATOM     14  C   UNL     1       2.623   3.878  20.439  0.00  0.00    +0.000 C 
ATOM     15  C   UNL     1       1.777   2.755  19.846  0.00  0.00    +0.000 C 
ATOM     16  C   UNL     1       2.513   1.938  18.782  0.00  0.00    +0.000 C 
ATOM     17  C   UNL     1       2.841   2.701  17.496  0.00  0.00    +0.000 C 
ATOM     18  C   UNL     1       3.845   3.839  17.682  0.00  0.00    +0.000 C 
ENDBRANCH   2   5
BRANCH   1  19
ATOM     19  C   UNL     1       0.045  12.266  20.973  0.00  0.00    +0.000 C 
BRANCH  19  26
ATOM     20  C   UNL     1      -2.321  12.487  19.983  0.00  0.00    +0.000 A 
ATOM     21  C   UNL     1      -3.706  12.599  20.182  0.00  0.00    +0.000 A 
ATOM     22  C   UNL     1      -4.242  12.674  21.466  0.00  0.00    +0.000 A 
ATOM     23  C   UNL     1      -3.394  12.619  22.565  0.00  0.00    +0.000 A 
ATOM     24 BR   UNL     1      -4.126  12.676  24.305  0.00  0.00    +0.000 Br
ATOM     25  C   UNL     1      -2.016  12.502  22.388  0.00  0.00    +0.000 A 
ATOM     26  C   UNL     1      -1.456  12.439  21.096  0.00  0.00    +0.000 A 
BRANCH  20  28
ATOM     27  C   UNL     1      -2.452  11.526  17.821  0.00  0.00    +0.000 C 
ATOM     28  O   UNL     1      -1.759  12.376  18.735  0.00  0.00    +0.000 OA
ENDBRANCH  20  28
ENDBRANCH  19  26
ENDBRANCH   1  19
TORSDOF 4
ENDMDL
MODEL 9
REMARK VINA RESULT:      -7.7      1.126      1.227
REMARK  Name = 
REMARK  5 active torsions:
REMARK  status: ('A' for Active; 'I' for Inactive)
REMARK    1  A    between atoms: C_1  and  O_2
REMARK    2  A    between atoms: O_2  and  C_3
REMARK    3  A    between atoms: C_9  and  C_10
REMARK    4  A    between atoms: C_10  and  N_11
REMARK    5  A    between atoms: C_12  and  C_14
REMARK                            x       y       z     vdW  Elec       q    Type
REMARK                         _______ _______ _______ _____ _____    ______ ____
ROOT
ATOM      1  N   UNL     1       3.570   5.960  19.587  0.00  0.00    +0.000 N 
ATOM      2  C   UNL     1       2.479   6.386  18.845  0.00  0.00    +0.000 C 
ATOM      3  O   UNL     1       1.977   5.733  17.936  0.00  0.00    +0.000 OA
ATOM      4  H   UNL     1       3.807   6.450  20.437  0.00  0.00    +0.000 HD
ENDROOT
BRANCH   2   5
ATOM      5  C   UNL     1       1.884   7.697  19.237  0.00  0.00    +0.000 A 
ATOM      6  C   UNL     1       1.903   8.744  18.306  0.00  0.00    +0.000 A 
ATOM      7  C   UNL     1       1.369   9.999  18.607  0.00  0.00    +0.000 A 
ATOM      8  C   UNL     1       0.831  10.171  19.886  0.00  0.00    +0.000 A 
ATOM      9  C   UNL     1       0.815   9.153  20.837  0.00  0.00    +0.000 A 
ATOM     10  C   UNL     1       1.350   7.895  20.522  0.00  0.00    +0.000 A 
ATOM     11  N   UNL     1       0.234   9.583  22.009  0.00  0.00    +0.000 NA
ATOM     12  C   UNL     1      -0.107  10.838  21.799  0.00  0.00    +0.000 A 
ATOM     13  N   UNL     1       0.236  11.234  20.528  0.00  0.00    +0.000 N 
ATOM     14  C   UNL     1      -0.034  12.542  19.967  0.00  0.00    +0.000 C 
ATOM     15  C   UNL     1      -1.529  12.836  19.877  0.00  0.00    +0.000 C 
ATOM     16  C   UNL     1      -2.145  13.264  21.210  0.00  0.00    +0.000 C 
ATOM     17  C   UNL     1      -2.176  12.174  22.286  0.00  0.00    +0.000 C 
ATOM     18  C   UNL     1      -0.794  11.736  22.772  0.00  0.00    +0.000 C 
ENDBRANCH   2   5
BRANCH   1  19
ATOM     19  C   UNL     1       4.207   4.673  19.365  0.00  0.00    +0.000 C 
BRANCH  19  26
ATOM     20  C   UNL     1       6.638   5.095  18.630  0.00  0.00    +0.000 A 
ATOM     21  C   UNL     1       7.610   5.088  17.617  0.00  0.00    +0.000 A 
ATOM     22  C   UNL     1       7.280   4.747  16.308  0.00  0.00    +0.000 A 
ATOM     23  C   UNL     1       5.972   4.392  16.004  0.00  0.00    +0.000 A 
ATOM     24 BR   UNL     1       5.535   3.888  14.237  0.00  0.00    +0.000 Br
ATOM     25  C   UNL     1       4.992   4.387  16.996  0.00  0.00    +0.000 A 
ATOM     26  C   UNL     1       5.307   4.742  18.323  0.00  0.00    +0.000 A 
BRANCH  20  28
ATOM     27  C   UNL     1       8.322   5.521  20.242  0.00  0.00    +0.000 C 
ATOM     28  O   UNL     1       6.933   5.392  19.938  0.00  0.00    +0.000 OA
ENDBRANCH  20  28
ENDBRANCH  19  26
ENDBRANCH   1  19
TORSDOF 4
ENDMDL
