MODEL 1
REMARK VINA RESULT:      -6.4      0.000      0.000
REMARK  Name = 
REMARK  9 active torsions:
REMARK  status: ('A' for Active; 'I' for Inactive)
REMARK    1  A    between atoms: C_1  and  C_2
REMARK    2  A    between atoms: C_2  and  C_3
REMARK    3  A    between atoms: C_3  and  N_4
REMARK    4  A    between atoms: N_4  and  C_5
REMARK    5  A    between atoms: C_5  and  C_6
REMARK    6  A    between atoms: C_6  and  C_7
REMARK    7  A    between atoms: C_8  and  C_10
REMARK    8  A    between atoms: C_10  and  C_11
REMARK    9  A    between atoms: C_12  and  C_13
REMARK                            x       y       z     vdW  Elec       q    Type
REMARK                         _______ _______ _______ _____ _____    ______ ____
ROOT
ATOM      1  C   UNL     1       2.701   6.735  18.436  0.00  0.00    +0.000 A 
ATOM      2  C   UNL     1       2.527   5.662  19.301  0.00  0.00    +0.000 A 
ATOM      3  N   UNL     1       1.797   6.043  20.408  0.00  0.00    +0.000 NA
ATOM      4  C   UNL     1       1.596   7.335  20.277  0.00  0.00    +0.000 A 
ATOM      5  C   UNL     1       0.920   8.270  21.113  0.00  0.00    +0.000 A 
ATOM      6  C   UNL     1       0.855   9.568  20.758  0.00  0.00    +0.000 A 
ATOM      7  C   UNL     1       1.472  10.057  19.529  0.00  0.00    +0.000 A 
ATOM      8  I   UNL     1       1.371  12.047  19.013  0.00  0.00    +0.000 I 
ATOM      9  C   UNL     1       2.102   9.168  18.739  0.00  0.00    +0.000 A 
ATOM     10  N   UNL     1       2.156   7.822  19.103  0.00  0.00    +0.000 N 
ENDROOT
BRANCH   2  11
ATOM     11  C   UNL     1       2.963   4.283  19.101  0.00  0.00    +0.000 A 
ATOM     12  C   UNL     1       2.288   3.395  18.255  0.00  0.00    +0.000 A 
ATOM     13  C   UNL     1       2.703   2.069  18.110  0.00  0.00    +0.000 A 
ATOM     14  C   UNL     1       3.832   1.621  18.787  0.00  0.00    +0.000 A 
ATOM     15  C   UNL     1       4.545   2.499  19.597  0.00  0.00    +0.000 A 
ATOM     16  C   UNL     1       4.114   3.822  19.754  0.00  0.00    +0.000 A 
ENDBRANCH   2  11
BRANCH   1  17
ATOM     17  C   UNL     1       3.309   6.843  17.072  0.00  0.00    +0.000 C 
BRANCH  17  19
ATOM     18  N   UNL     1       5.506   5.668  16.758  0.00  0.00    +0.000 N 
ATOM     19  C   UNL     1       4.841   6.833  17.147  0.00  0.00    +0.000 C 
ATOM     20  O   UNL     1       5.469   7.798  17.590  0.00  0.00    +0.000 OA
BRANCH  18  21
ATOM     21  C   UNL     1       6.962   5.627  16.943  0.00  0.00    +0.000 C 
BRANCH  21  23
ATOM     22  C   UNL     1       7.810   5.785  19.367  0.00  0.00    +0.000 C 
ATOM     23  C   UNL     1       7.433   4.880  18.203  0.00  0.00    +0.000 C 
ENDBRANCH  21  23
ENDBRANCH  18  21
BRANCH  18  24
ATOM     24  C   UNL     1       4.889   4.607  15.955  0.00  0.00    +0.000 C 
BRANCH  24  25
ATOM     25  C   UNL     1       5.891   3.704  15.218  0.00  0.00    +0.000 C 
ATOM     26  C   UNL     1       6.023   3.970  13.729  0.00  0.00    +0.000 C 
ENDBRANCH  24  25
ENDBRANCH  18  24
ENDBRANCH  17  19
ENDBRANCH   1  17
TORSDOF 7
ENDMDL
MODEL 2
REMARK VINA RESULT:      -6.0      6.029     10.175
REMARK  Name = 
REMARK  9 active torsions:
REMARK  status: ('A' for Active; 'I' for Inactive)
REMARK    1  A    between atoms: C_1  and  C_2
REMARK    2  A    between atoms: C_2  and  C_3
REMARK    3  A    between atoms: C_3  and  N_4
REMARK    4  A    between atoms: N_4  and  C_5
REMARK    5  A    between atoms: C_5  and  C_6
REMARK    6  A    between atoms: C_6  and  C_7
REMARK    7  A    between atoms: C_8  and  C_10
REMARK    8  A    between atoms: C_10  and  C_11
REMARK    9  A    between atoms: C_12  and  C_13
REMARK                            x       y       z     vdW  Elec       q    Type
REMARK                         _______ _______ _______ _____ _____    ______ ____
ROOT
ATOM      1  C   UNL     1      -1.081  11.739  21.171  0.00  0.00    +0.000 A 
ATOM      2  C   UNL     1      -1.265  11.752  22.547  0.00  0.00    +0.000 A 
ATOM      3  N   UNL     1      -0.449  10.822  23.157  0.00  0.00    +0.000 NA
ATOM      4  C   UNL     1       0.163  10.189  22.181  0.00  0.00    +0.000 A 
ATOM      5  C   UNL     1       1.108   9.123  22.201  0.00  0.00    +0.000 A 
ATOM      6  C   UNL     1       1.592   8.630  21.044  0.00  0.00    +0.000 A 
ATOM      7  C   UNL     1       1.167   9.155  19.751  0.00  0.00    +0.000 A 
ATOM      8  I   UNL     1       1.910   8.379  17.995  0.00  0.00    +0.000 I 
ATOM      9  C   UNL     1       0.280  10.167  19.738  0.00  0.00    +0.000 A 
ATOM     10  N   UNL     1      -0.210  10.685  20.938  0.00  0.00    +0.000 N 
ENDROOT
BRANCH   2  11
ATOM     11  C   UNL     1      -2.128  12.644  23.317  0.00  0.00    +0.000 A 
ATOM     12  C   UNL     1      -1.788  13.977  23.581  0.00  0.00    +0.000 A 
ATOM     13  C   UNL     1      -2.613  14.799  24.353  0.00  0.00    +0.000 A 
ATOM     14  C   UNL     1      -3.817  14.306  24.842  0.00  0.00    +0.000 A 
ATOM     15  C   UNL     1      -4.196  12.999  24.552  0.00  0.00    +0.000 A 
ATOM     16  C   UNL     1      -3.358  12.173  23.794  0.00  0.00    +0.000 A 
ENDBRANCH   2  11
BRANCH   1  17
ATOM     17  C   UNL     1      -1.623  12.599  20.071  0.00  0.00    +0.000 C 
BRANCH  17  19
ATOM     18  N   UNL     1      -3.345  11.724  18.467  0.00  0.00    +0.000 N 
ATOM     19  C   UNL     1      -3.074  12.227  19.741  0.00  0.00    +0.000 C 
ATOM     20  O   UNL     1      -3.986  12.418  20.550  0.00  0.00    +0.000 OA
BRANCH  18  21
ATOM     21  C   UNL     1      -4.752  11.480  18.123  0.00  0.00    +0.000 C 
BRANCH  21  23
ATOM     22  C   UNL     1      -6.589  12.991  17.143  0.00  0.00    +0.000 C 
ATOM     23  C   UNL     1      -5.268  12.274  16.910  0.00  0.00    +0.000 C 
ENDBRANCH  21  23
ENDBRANCH  18  21
BRANCH  18  24
ATOM     24  C   UNL     1      -2.319  11.190  17.566  0.00  0.00    +0.000 C 
BRANCH  24  25
ATOM     25  C   UNL     1      -2.645   9.808  16.979  0.00  0.00    +0.000 C 
ATOM     26  C   UNL     1      -2.825   9.775  15.471  0.00  0.00    +0.000 C 
ENDBRANCH  24  25
ENDBRANCH  18  24
ENDBRANCH  17  19
ENDBRANCH   1  17
TORSDOF 7
ENDMDL
MODEL 3
REMARK VINA RESULT:      -5.9      1.638      2.352
REMARK  Name = 
REMARK  9 active torsions:
REMARK  status: ('A' for Active; 'I' for Inactive)
REMARK    1  A    between atoms: C_1  and  C_2
REMARK    2  A    between atoms: C_2  and  C_3
REMARK    3  A    between atoms: C_3  and  N_4
REMARK    4  A    between atoms: N_4  and  C_5
REMARK    5  A    between atoms: C_5  and  C_6
REMARK    6  A    between atoms: C_6  and  C_7
REMARK    7  A    between atoms: C_8  and  C_10
REMARK    8  A    between atoms: C_10  and  C_11
REMARK    9  A    between atoms: C_12  and  C_13
REMARK                            x       y       z     vdW  Elec       q    Type
REMARK                         _______ _______ _______ _____ _____    ______ ____
ROOT
ATOM      1  C   UNL     1       1.782   7.397  19.276  0.00  0.00    +0.000 A 
ATOM      2  C   UNL     1       1.490   6.662  20.417  0.00  0.00    +0.000 A 
ATOM      3  N   UNL     1       1.011   7.484  21.417  0.00  0.00    +0.000 NA
ATOM      4  C   UNL     1       1.084   8.706  20.940  0.00  0.00    +0.000 A 
ATOM      5  C   UNL     1       0.744   9.962  21.520  0.00  0.00    +0.000 A 
ATOM      6  C   UNL     1       0.922  11.099  20.819  0.00  0.00    +0.000 A 
ATOM      7  C   UNL     1       1.467  11.086  19.465  0.00  0.00    +0.000 A 
ATOM      8  I   UNL     1       1.741  12.836  18.416  0.00  0.00    +0.000 I 
ATOM      9  C   UNL     1       1.778   9.896  18.919  0.00  0.00    +0.000 A 
ATOM     10  N   UNL     1       1.581   8.719  19.642  0.00  0.00    +0.000 N 
ENDROOT
BRANCH   2  11
ATOM     11  C   UNL     1       1.582   5.214  20.586  0.00  0.00    +0.000 A 
ATOM     12  C   UNL     1       2.503   4.615  21.455  0.00  0.00    +0.000 A 
ATOM     13  C   UNL     1       2.598   3.226  21.569  0.00  0.00    +0.000 A 
ATOM     14  C   UNL     1       1.738   2.412  20.839  0.00  0.00    +0.000 A 
ATOM     15  C   UNL     1       0.785   2.988  20.006  0.00  0.00    +0.000 A 
ATOM     16  C   UNL     1       0.706   4.380  19.880  0.00  0.00    +0.000 A 
ENDBRANCH   2  11
BRANCH   1  17
ATOM     17  C   UNL     1       2.217   6.995  17.900  0.00  0.00    +0.000 C 
BRANCH  17  19
ATOM     18  N   UNL     1       4.302   5.599  17.813  0.00  0.00    +0.000 N 
ATOM     19  C   UNL     1       3.745   6.879  17.815  0.00  0.00    +0.000 C 
ATOM     20  O   UNL     1       4.465   7.880  17.808  0.00  0.00    +0.000 OA
BRANCH  18  21
ATOM     21  C   UNL     1       5.767   5.500  17.848  0.00  0.00    +0.000 C 
BRANCH  21  23
ATOM     22  C   UNL     1       7.893   5.715  19.282  0.00  0.00    +0.000 C 
ATOM     23  C   UNL     1       6.382   5.528  19.258  0.00  0.00    +0.000 C 
ENDBRANCH  21  23
ENDBRANCH  18  21
BRANCH  18  24
ATOM     24  C   UNL     1       3.542   4.379  17.521  0.00  0.00    +0.000 C 
BRANCH  24  25
ATOM     25  C   UNL     1       4.095   3.111  18.191  0.00  0.00    +0.000 C 
ATOM     26  C   UNL     1       3.406   1.818  17.789  0.00  0.00    +0.000 C 
ENDBRANCH  24  25
ENDBRANCH  18  24
ENDBRANCH  17  19
ENDBRANCH   1  17
TORSDOF 7
ENDMDL
MODEL 4
REMARK VINA RESULT:      -5.8      1.567      2.315
REMARK  Name = 
REMARK  9 active torsions:
REMARK  status: ('A' for Active; 'I' for Inactive)
REMARK    1  A    between atoms: C_1  and  C_2
REMARK    2  A    between atoms: C_2  and  C_3
REMARK    3  A    between atoms: C_3  and  N_4
REMARK    4  A    between atoms: N_4  and  C_5
REMARK    5  A    between atoms: C_5  and  C_6
REMARK    6  A    between atoms: C_6  and  C_7
REMARK    7  A    between atoms: C_8  and  C_10
REMARK    8  A    between atoms: C_10  and  C_11
REMARK    9  A    between atoms: C_12  and  C_13
REMARK                            x       y       z     vdW  Elec       q    Type
REMARK                         _______ _______ _______ _____ _____    ______ ____
ROOT
ATOM      1  C   UNL     1       1.679   7.420  19.340  0.00  0.00    +0.000 A 
ATOM      2  C   UNL     1       1.442   6.656  20.476  0.00  0.00    +0.000 A 
ATOM      3  N   UNL     1       1.006   7.452  21.515  0.00  0.00    +0.000 NA
ATOM      4  C   UNL     1       1.051   8.686  21.064  0.00  0.00    +0.000 A 
ATOM      5  C   UNL     1       0.733   9.926  21.689  0.00  0.00    +0.000 A 
ATOM      6  C   UNL     1       0.873  11.080  21.008  0.00  0.00    +0.000 A 
ATOM      7  C   UNL     1       1.355  11.101  19.630  0.00  0.00    +0.000 A 
ATOM      8  I   UNL     1       1.573  12.877  18.612  0.00  0.00    +0.000 I 
ATOM      9  C   UNL     1       1.647   9.927  19.042  0.00  0.00    +0.000 A 
ATOM     10  N   UNL     1       1.488   8.732  19.746  0.00  0.00    +0.000 N 
ENDROOT
BRANCH   2  11
ATOM     11  C   UNL     1       1.549   5.206  20.606  0.00  0.00    +0.000 A 
ATOM     12  C   UNL     1       0.701   4.325  19.924  0.00  0.00    +0.000 A 
ATOM     13  C   UNL     1       0.798   2.942  20.096  0.00  0.00    +0.000 A 
ATOM     14  C   UNL     1       1.779   2.416  20.930  0.00  0.00    +0.000 A 
ATOM     15  C   UNL     1       2.662   3.272  21.581  0.00  0.00    +0.000 A 
ATOM     16  C   UNL     1       2.549   4.658  21.421  0.00  0.00    +0.000 A 
ENDBRANCH   2  11
BRANCH   1  17
ATOM     17  C   UNL     1       2.053   7.053  17.937  0.00  0.00    +0.000 C 
BRANCH  17  19
ATOM     18  N   UNL     1       4.179   5.729  17.767  0.00  0.00    +0.000 N 
ATOM     19  C   UNL     1       3.576   6.988  17.769  0.00  0.00    +0.000 C 
ATOM     20  O   UNL     1       4.259   8.013  17.697  0.00  0.00    +0.000 OA
BRANCH  18  21
ATOM     21  C   UNL     1       5.647   5.683  17.723  0.00  0.00    +0.000 C 
BRANCH  21  23
ATOM     22  C   UNL     1       7.120   4.421  16.032  0.00  0.00    +0.000 C 
ATOM     23  C   UNL     1       6.249   5.639  16.307  0.00  0.00    +0.000 C 
ENDBRANCH  21  23
ENDBRANCH  18  21
BRANCH  18  24
ATOM     24  C   UNL     1       3.450   4.476  17.548  0.00  0.00    +0.000 C 
BRANCH  24  25
ATOM     25  C   UNL     1       4.137   3.230  18.130  0.00  0.00    +0.000 C 
ATOM     26  C   UNL     1       3.462   1.910  17.802  0.00  0.00    +0.000 C 
ENDBRANCH  24  25
ENDBRANCH  18  24
ENDBRANCH  17  19
ENDBRANCH   1  17
TORSDOF 7
ENDMDL
MODEL 5
REMARK VINA RESULT:      -5.8      1.900      4.549
REMARK  Name = 
REMARK  9 active torsions:
REMARK  status: ('A' for Active; 'I' for Inactive)
REMARK    1  A    between atoms: C_1  and  C_2
REMARK    2  A    between atoms: C_2  and  C_3
REMARK    3  A    between atoms: C_3  and  N_4
REMARK    4  A    between atoms: N_4  and  C_5
REMARK    5  A    between atoms: C_5  and  C_6
REMARK    6  A    between atoms: C_6  and  C_7
REMARK    7  A    between atoms: C_8  and  C_10
REMARK    8  A    between atoms: C_10  and  C_11
REMARK    9  A    between atoms: C_12  and  C_13
REMARK                            x       y       z     vdW  Elec       q    Type
REMARK                         _______ _______ _______ _____ _____    ______ ____
ROOT
ATOM      1  C   UNL     1       3.752   6.624  18.765  0.00  0.00    +0.000 A 
ATOM      2  C   UNL     1       4.072   6.783  17.422  0.00  0.00    +0.000 A 
ATOM      3  N   UNL     1       3.361   7.830  16.873  0.00  0.00    +0.000 NA
ATOM      4  C   UNL     1       2.559   8.256  17.823  0.00  0.00    +0.000 A 
ATOM      5  C   UNL     1       1.589   9.299  17.836  0.00  0.00    +0.000 A 
ATOM      6  C   UNL     1       0.873   9.540  18.951  0.00  0.00    +0.000 A 
ATOM      7  C   UNL     1       1.057   8.751  20.164  0.00  0.00    +0.000 A 
ATOM      8  I   UNL     1      -0.056   9.130  21.854  0.00  0.00    +0.000 I 
ATOM      9  C   UNL     1       1.981   7.772  20.150  0.00  0.00    +0.000 A 
ATOM     10  N   UNL     1       2.730   7.533  18.997  0.00  0.00    +0.000 N 
ENDROOT
BRANCH   2  11
ATOM     11  C   UNL     1       5.061   6.034  16.653  0.00  0.00    +0.000 A 
ATOM     12  C   UNL     1       4.703   5.082  15.690  0.00  0.00    +0.000 A 
ATOM     13  C   UNL     1       5.669   4.350  14.995  0.00  0.00    +0.000 A 
ATOM     14  C   UNL     1       7.019   4.591  15.229  0.00  0.00    +0.000 A 
ATOM     15  C   UNL     1       7.397   5.565  16.148  0.00  0.00    +0.000 A 
ATOM     16  C   UNL     1       6.425   6.282  16.856  0.00  0.00    +0.000 A 
ENDBRANCH   2  11
BRANCH   1  17
ATOM     17  C   UNL     1       4.298   5.729  19.834  0.00  0.00    +0.000 C 
BRANCH  17  19
ATOM     18  N   UNL     1       3.188   3.498  19.528  0.00  0.00    +0.000 N 
ATOM     19  C   UNL     1       4.341   4.269  19.365  0.00  0.00    +0.000 C 
ATOM     20  O   UNL     1       5.374   3.770  18.911  0.00  0.00    +0.000 OA
BRANCH  18  21
ATOM     21  C   UNL     1       3.276   2.073  19.184  0.00  0.00    +0.000 C 
BRANCH  21  23
ATOM     22  C   UNL     1       2.444   2.931  16.905  0.00  0.00    +0.000 C 
ATOM     23  C   UNL     1       2.869   1.731  17.740  0.00  0.00    +0.000 C 
ENDBRANCH  21  23
ENDBRANCH  18  21
BRANCH  18  24
ATOM     24  C   UNL     1       1.856   4.062  19.769  0.00  0.00    +0.000 C 
BRANCH  24  25
ATOM     25  C   UNL     1       0.935   3.173  20.620  0.00  0.00    +0.000 C 
ATOM     26  C   UNL     1       1.540   2.680  21.923  0.00  0.00    +0.000 C 
ENDBRANCH  24  25
ENDBRANCH  18  24
ENDBRANCH  17  19
ENDBRANCH   1  17
TORSDOF 7
ENDMDL
MODEL 6
REMARK VINA RESULT:      -5.7      2.181      4.380
REMARK  Name = 
REMARK  9 active torsions:
REMARK  status: ('A' for Active; 'I' for Inactive)
REMARK    1  A    between atoms: C_1  and  C_2
REMARK    2  A    between atoms: C_2  and  C_3
REMARK    3  A    between atoms: C_3  and  N_4
REMARK    4  A    between atoms: N_4  and  C_5
REMARK    5  A    between atoms: C_5  and  C_6
REMARK    6  A    between atoms: C_6  and  C_7
REMARK    7  A    between atoms: C_8  and  C_10
REMARK    8  A    between atoms: C_10  and  C_11
REMARK    9  A    between atoms: C_12  and  C_13
REMARK                            x       y       z     vdW  Elec       q    Type
REMARK                         _______ _______ _______ _____ _____    ______ ____
ROOT
ATOM      1  C   UNL     1       2.562   6.978  19.532  0.00  0.00    +0.000 A 
ATOM      2  C   UNL     1       2.934   7.153  18.205  0.00  0.00    +0.000 A 
ATOM      3  N   UNL     1       2.504   8.377  17.736  0.00  0.00    +0.000 NA
ATOM      4  C   UNL     1       1.810   8.912  18.717  0.00  0.00    +0.000 A 
ATOM      5  C   UNL     1       1.118  10.153  18.809  0.00  0.00    +0.000 A 
ATOM      6  C   UNL     1       0.461  10.476  19.940  0.00  0.00    +0.000 A 
ATOM      7  C   UNL     1       0.430   9.579  21.090  0.00  0.00    +0.000 A 
ATOM      8  I   UNL     1      -0.589  10.088  22.804  0.00  0.00    +0.000 I 
ATOM      9  C   UNL     1       1.094   8.412  21.001  0.00  0.00    +0.000 A 
ATOM     10  N   UNL     1       1.783   8.084  19.833  0.00  0.00    +0.000 N 
ENDROOT
BRANCH   2  11
ATOM     11  C   UNL     1       3.729   6.247  17.381  0.00  0.00    +0.000 A 
ATOM     12  C   UNL     1       3.330   4.932  17.107  0.00  0.00    +0.000 A 
ATOM     13  C   UNL     1       4.128   4.073  16.348  0.00  0.00    +0.000 A 
ATOM     14  C   UNL     1       5.327   4.533  15.815  0.00  0.00    +0.000 A 
ATOM     15  C   UNL     1       5.719   5.850  16.035  0.00  0.00    +0.000 A 
ATOM     16  C   UNL     1       4.926   6.702  16.812  0.00  0.00    +0.000 A 
ENDBRANCH   2  11
BRANCH   1  17
ATOM     17  C   UNL     1       2.861   5.902  20.530  0.00  0.00    +0.000 C 
BRANCH  17  19
ATOM     18  N   UNL     1       2.264   3.464  20.471  0.00  0.00    +0.000 N 
ATOM     19  C   UNL     1       1.811   4.785  20.470  0.00  0.00    +0.000 C 
ATOM     20  O   UNL     1       0.609   5.038  20.367  0.00  0.00    +0.000 OA
BRANCH  18  21
ATOM     21  C   UNL     1       1.259   2.406  20.297  0.00  0.00    +0.000 C 
BRANCH  21  23
ATOM     22  C   UNL     1       1.954   1.779  17.900  0.00  0.00    +0.000 C 
ATOM     23  C   UNL     1       0.822   2.164  18.841  0.00  0.00    +0.000 C 
ENDBRANCH  21  23
ENDBRANCH  18  21
BRANCH  18  24
ATOM     24  C   UNL     1       3.613   3.064  20.884  0.00  0.00    +0.000 C 
BRANCH  24  25
ATOM     25  C   UNL     1       4.587   2.819  19.721  0.00  0.00    +0.000 C 
ATOM     26  C   UNL     1       5.615   3.916  19.502  0.00  0.00    +0.000 C 
ENDBRANCH  24  25
ENDBRANCH  18  24
ENDBRANCH  17  19
ENDBRANCH   1  17
TORSDOF 7
ENDMDL
MODEL 7
REMARK VINA RESULT:      -5.7      5.790     10.948
REMARK  Name = 
REMARK  9 active torsions:
REMARK  status: ('A' for Active; 'I' for Inactive)
REMARK    1  A    between atoms: C_1  and  C_2
REMARK    2  A    between atoms: C_2  and  C_3
REMARK    3  A    between atoms: C_3  and  N_4
REMARK    4  A    between atoms: N_4  and  C_5
REMARK    5  A    between atoms: C_5  and  C_6
REMARK    6  A    between atoms: C_6  and  C_7
REMARK    7  A    between atoms: C_8  and  C_10
REMARK    8  A    between atoms: C_10  and  C_11
REMARK    9  A    between atoms: C_12  and  C_13
REMARK                            x       y       z     vdW  Elec       q    Type
REMARK                         _______ _______ _______ _____ _____    ______ ____
ROOT
ATOM      1  C   UNL     1      -0.946  11.667  21.108  0.00  0.00    +0.000 A 
ATOM      2  C   UNL     1      -1.190  11.660  22.476  0.00  0.00    +0.000 A 
ATOM      3  N   UNL     1      -0.430  10.694  23.101  0.00  0.00    +0.000 NA
ATOM      4  C   UNL     1       0.205  10.061  22.140  0.00  0.00    +0.000 A 
ATOM      5  C   UNL     1       1.117   8.967  22.179  0.00  0.00    +0.000 A 
ATOM      6  C   UNL     1       1.636   8.481  21.034  0.00  0.00    +0.000 A 
ATOM      7  C   UNL     1       1.284   9.044  19.735  0.00  0.00    +0.000 A 
ATOM      8  I   UNL     1       2.081   8.279  17.998  0.00  0.00    +0.000 I 
ATOM      9  C   UNL     1       0.429  10.083  19.705  0.00  0.00    +0.000 A 
ATOM     10  N   UNL     1      -0.097  10.592  20.892  0.00  0.00    +0.000 N 
ENDROOT
BRANCH   2  11
ATOM     11  C   UNL     1      -2.059  12.563  23.225  0.00  0.00    +0.000 A 
ATOM     12  C   UNL     1      -1.731  13.905  23.455  0.00  0.00    +0.000 A 
ATOM     13  C   UNL     1      -2.561  14.739  24.208  0.00  0.00    +0.000 A 
ATOM     14  C   UNL     1      -3.760  14.247  24.713  0.00  0.00    +0.000 A 
ATOM     15  C   UNL     1      -4.127  12.930  24.457  0.00  0.00    +0.000 A 
ATOM     16  C   UNL     1      -3.283  12.093  23.718  0.00  0.00    +0.000 A 
ENDBRANCH   2  11
BRANCH   1  17
ATOM     17  C   UNL     1      -1.413  12.565  20.004  0.00  0.00    +0.000 C 
BRANCH  17  19
ATOM     18  N   UNL     1      -3.910  12.479  19.755  0.00  0.00    +0.000 N 
ATOM     19  C   UNL     1      -2.669  12.002  19.327  0.00  0.00    +0.000 C 
ATOM     20  O   UNL     1      -2.596  11.115  18.473  0.00  0.00    +0.000 OA
BRANCH  18  21
ATOM     21  C   UNL     1      -5.108  11.851  19.184  0.00  0.00    +0.000 C 
BRANCH  21  23
ATOM     22  C   UNL     1      -7.109  12.519  17.711  0.00  0.00    +0.000 C 
ATOM     23  C   UNL     1      -5.596  12.472  17.863  0.00  0.00    +0.000 C 
ENDBRANCH  21  23
ENDBRANCH  18  21
BRANCH  18  24
ATOM     24  C   UNL     1      -4.088  13.714  20.526  0.00  0.00    +0.000 C 
BRANCH  24  25
ATOM     25  C   UNL     1      -5.466  13.855  21.190  0.00  0.00    +0.000 C 
ATOM     26  C   UNL     1      -6.278  15.057  20.739  0.00  0.00    +0.000 C 
ENDBRANCH  24  25
ENDBRANCH  18  24
ENDBRANCH  17  19
ENDBRANCH   1  17
TORSDOF 7
ENDMDL
MODEL 8
REMARK VINA RESULT:      -5.7      2.252      4.502
REMARK  Name = 
REMARK  9 active torsions:
REMARK  status: ('A' for Active; 'I' for Inactive)
REMARK    1  A    between atoms: C_1  and  C_2
REMARK    2  A    between atoms: C_2  and  C_3
REMARK    3  A    between atoms: C_3  and  N_4
REMARK    4  A    between atoms: N_4  and  C_5
REMARK    5  A    between atoms: C_5  and  C_6
REMARK    6  A    between atoms: C_6  and  C_7
REMARK    7  A    between atoms: C_8  and  C_10
REMARK    8  A    between atoms: C_10  and  C_11
REMARK    9  A    between atoms: C_12  and  C_13
REMARK                            x       y       z     vdW  Elec       q    Type
REMARK                         _______ _______ _______ _____ _____    ______ ____
ROOT
ATOM      1  C   UNL     1       2.795   6.806  19.415  0.00  0.00    +0.000 A 
ATOM      2  C   UNL     1       3.139   6.997  18.082  0.00  0.00    +0.000 A 
ATOM      3  N   UNL     1       2.669   8.212  17.627  0.00  0.00    +0.000 NA
ATOM      4  C   UNL     1       1.978   8.723  18.622  0.00  0.00    +0.000 A 
ATOM      5  C   UNL     1       1.254   9.944  18.732  0.00  0.00    +0.000 A 
ATOM      6  C   UNL     1       0.608  10.245  19.876  0.00  0.00    +0.000 A 
ATOM      7  C   UNL     1       0.621   9.342  21.022  0.00  0.00    +0.000 A 
ATOM      8  I   UNL     1      -0.382   9.816  22.756  0.00  0.00    +0.000 I 
ATOM      9  C   UNL     1       1.314   8.193  20.916  0.00  0.00    +0.000 A 
ATOM     10  N   UNL     1       1.992   7.890  19.734  0.00  0.00    +0.000 N 
ENDROOT
BRANCH   2  11
ATOM     11  C   UNL     1       3.944   6.117  17.240  0.00  0.00    +0.000 A 
ATOM     12  C   UNL     1       5.021   6.584  16.476  0.00  0.00    +0.000 A 
ATOM     13  C   UNL     1       5.751   5.728  15.648  0.00  0.00    +0.000 A 
ATOM     14  C   UNL     1       5.435   4.374  15.603  0.00  0.00    +0.000 A 
ATOM     15  C   UNL     1       4.400   3.881  16.390  0.00  0.00    +0.000 A 
ATOM     16  C   UNL     1       3.658   4.746  17.204  0.00  0.00    +0.000 A 
ENDBRANCH   2  11
BRANCH   1  17
ATOM     17  C   UNL     1       3.140   5.734  20.402  0.00  0.00    +0.000 C 
BRANCH  17  19
ATOM     18  N   UNL     1       2.290   3.381  20.614  0.00  0.00    +0.000 N 
ATOM     19  C   UNL     1       1.981   4.742  20.568  0.00  0.00    +0.000 C 
ATOM     20  O   UNL     1       0.809   5.123  20.602  0.00  0.00    +0.000 OA
BRANCH  18  21
ATOM     21  C   UNL     1       1.167   2.435  20.656  0.00  0.00    +0.000 C 
BRANCH  21  23
ATOM     22  C   UNL     1       0.941   2.801  18.120  0.00  0.00    +0.000 C 
ATOM     23  C   UNL     1       0.766   1.847  19.292  0.00  0.00    +0.000 C 
ENDBRANCH  21  23
ENDBRANCH  18  21
BRANCH  18  24
ATOM     24  C   UNL     1       3.634   2.858  20.879  0.00  0.00    +0.000 C 
BRANCH  24  25
ATOM     25  C   UNL     1       4.466   2.576  19.618  0.00  0.00    +0.000 C 
ATOM     26  C   UNL     1       4.199   1.236  18.956  0.00  0.00    +0.000 C 
ENDBRANCH  24  25
ENDBRANCH  18  24
ENDBRANCH  17  19
ENDBRANCH   1  17
TORSDOF 7
ENDMDL
MODEL 9
REMARK VINA RESULT:      -5.6      5.792     10.167
REMARK  Name = 
REMARK  9 active torsions:
REMARK  status: ('A' for Active; 'I' for Inactive)
REMARK    1  A    between atoms: C_1  and  C_2
REMARK    2  A    between atoms: C_2  and  C_3
REMARK    3  A    between atoms: C_3  and  N_4
REMARK    4  A    between atoms: N_4  and  C_5
REMARK    5  A    between atoms: C_5  and  C_6
REMARK    6  A    between atoms: C_6  and  C_7
REMARK    7  A    between atoms: C_8  and  C_10
REMARK    8  A    between atoms: C_10  and  C_11
REMARK    9  A    between atoms: C_12  and  C_13
REMARK                            x       y       z     vdW  Elec       q    Type
REMARK                         _______ _______ _______ _____ _____    ______ ____
ROOT
ATOM      1  C   UNL     1      -0.506  12.026  21.282  0.00  0.00    +0.000 A 
ATOM      2  C   UNL     1      -0.971  11.900  22.585  0.00  0.00    +0.000 A 
ATOM      3  N   UNL     1      -0.563  10.702  23.134  0.00  0.00    +0.000 NA
ATOM      4  C   UNL     1       0.064  10.063  22.171  0.00  0.00    +0.000 A 
ATOM      5  C   UNL     1       0.686   8.782  22.145  0.00  0.00    +0.000 A 
ATOM      6  C   UNL     1       1.266   8.337  21.013  0.00  0.00    +0.000 A 
ATOM      7  C   UNL     1       1.272   9.135  19.791  0.00  0.00    +0.000 A 
ATOM      8  I   UNL     1       2.154   8.432  18.070  0.00  0.00    +0.000 I 
ATOM      9  C   UNL     1       0.691  10.349  19.824  0.00  0.00    +0.000 A 
ATOM     10  N   UNL     1       0.102  10.812  21.001  0.00  0.00    +0.000 N 
ENDROOT
BRANCH   2  11
ATOM     11  C   UNL     1      -1.726  12.884  23.355  0.00  0.00    +0.000 A 
ATOM     12  C   UNL     1      -1.174  14.104  23.765  0.00  0.00    +0.000 A 
ATOM     13  C   UNL     1      -1.906  15.012  24.534  0.00  0.00    +0.000 A 
ATOM     14  C   UNL     1      -3.224  14.726  24.874  0.00  0.00    +0.000 A 
ATOM     15  C   UNL     1      -3.807  13.541  24.437  0.00  0.00    +0.000 A 
ATOM     16  C   UNL     1      -3.064  12.625  23.683  0.00  0.00    +0.000 A 
ENDBRANCH   2  11
BRANCH   1  17
ATOM     17  C   UNL     1      -0.568  13.148  20.292  0.00  0.00    +0.000 C 
BRANCH  17  19
ATOM     18  N   UNL     1       0.824  15.056  19.439  0.00  0.00    +0.000 N 
ATOM     19  C   UNL     1       0.687  14.027  20.372  0.00  0.00    +0.000 C 
ATOM     20  O   UNL     1       1.578  13.800  21.195  0.00  0.00    +0.000 OA
BRANCH  18  21
ATOM     21  C   UNL     1       2.081  15.816  19.451  0.00  0.00    +0.000 C 
BRANCH  21  23
ATOM     22  C   UNL     1       3.158  16.717  17.295  0.00  0.00    +0.000 C 
ATOM     23  C   UNL     1       3.011  15.545  18.255  0.00  0.00    +0.000 C 
ENDBRANCH  21  23
ENDBRANCH  18  21
BRANCH  18  24
ATOM     24  C   UNL     1      -0.285  15.584  18.638  0.00  0.00    +0.000 C 
BRANCH  24  25
ATOM     25  C   UNL     1      -0.455  17.110  18.715  0.00  0.00    +0.000 C 
ATOM     26  C   UNL     1      -0.397  17.832  17.381  0.00  0.00    +0.000 C 
ENDBRANCH  24  25
ENDBRANCH  18  24
ENDBRANCH  17  19
ENDBRANCH   1  17
TORSDOF 7
ENDMDL
