MODEL 1
REMARK VINA RESULT:      -7.2      0.000      0.000
REMARK  Name = 
REMARK  6 active torsions:
REMARK  status: ('A' for Active; 'I' for Inactive)
REMARK    1  A    between atoms: C_1  and  O_2
REMARK    2  A    between atoms: O_2  and  C_3
REMARK    3  A    between atoms: N_16  and  C_17
REMARK    4  A    between atoms: C_17  and  C_18
REMARK    5  A    between atoms: C_27  and  O_28
REMARK    6  A    between atoms: O_28  and  C_29
REMARK                            x       y       z     vdW  Elec       q    Type
REMARK                         _______ _______ _______ _____ _____    ______ ____
ROOT
ATOM      1  C   UNL     1       1.053  10.380  19.712  0.00  0.00    +0.000 A 
ATOM      2  C   UNL     1       1.106   9.045  20.160  0.00  0.00    +0.000 A 
ATOM      3  C   UNL     1       1.754   8.044  19.458  0.00  0.00    +0.000 A 
ATOM      4  N   UNL     1       1.695   6.789  19.924  0.00  0.00    +0.000 NA
ATOM      5  C   UNL     1       2.319   5.821  19.247  0.00  0.00    +0.000 A 
ATOM      6  N   UNL     1       2.261   4.534  19.732  0.00  0.00    +0.000 N 
ATOM      7  C   UNL     1       1.413   4.195  20.866  0.00  0.00    +0.000 C 
ATOM      8  C   UNL     1       2.215   3.306  21.821  0.00  0.00    +0.000 C 
ATOM      9  C   UNL     1       2.824   2.102  21.100  0.00  0.00    +0.000 C 
ATOM     10  C   UNL     1       3.600   2.524  19.852  0.00  0.00    +0.000 C 
ATOM     11  C   UNL     1       2.760   3.421  18.943  0.00  0.00    +0.000 C 
ATOM     12  N   UNL     1       3.037   6.065  18.142  0.00  0.00    +0.000 NA
ATOM     13  C   UNL     1       3.105   7.323  17.674  0.00  0.00    +0.000 A 
ATOM     14  N   UNL     1       3.893   7.591  16.539  0.00  0.00    +0.000 N 
ATOM     15  C   UNL     1       2.441   8.379  18.297  0.00  0.00    +0.000 A 
ATOM     16  C   UNL     1       2.451   9.730  17.868  0.00  0.00    +0.000 A 
ATOM     17  C   UNL     1       1.772  10.733  18.563  0.00  0.00    +0.000 A 
ATOM     18  H   UNL     1       3.310   7.913  15.775  0.00  0.00    +0.000 HD
ENDROOT
BRANCH   1  20
ATOM     19  C   UNL     1       0.052  11.073  21.733  0.00  0.00    +0.000 C 
ATOM     20  O   UNL     1       0.291  11.328  20.346  0.00  0.00    +0.000 OA
ENDBRANCH   1  20
BRANCH  17  21
ATOM     21  O   UNL     1       1.850  11.949  17.946  0.00  0.00    +0.000 OA
ATOM     22  C   UNL     1       2.655  12.958  18.534  0.00  0.00    +0.000 C 
ENDBRANCH  17  21
BRANCH  14  23
ATOM     23  C   UNL     1       4.809   6.531  16.143  0.00  0.00    +0.000 C 
BRANCH  23  24
ATOM     24  C   UNL     1       5.856   6.342  17.224  0.00  0.00    +0.000 A 
ATOM     25  C   UNL     1       5.852   5.183  18.022  0.00  0.00    +0.000 A 
ATOM     26  C   UNL     1       6.850   4.967  18.972  0.00  0.00    +0.000 A 
ATOM     27  C   UNL     1       7.861   5.906  19.124  0.00  0.00    +0.000 A 
ATOM     28  F   UNL     1       8.830   5.695  20.025  0.00  0.00    +0.000 F 
ATOM     29  C   UNL     1       7.888   7.059  18.347  0.00  0.00    +0.000 A 
ATOM     30  C   UNL     1       6.888   7.278  17.396  0.00  0.00    +0.000 A 
ENDBRANCH  23  24
ENDBRANCH  14  23
TORSDOF 4
ENDMDL
MODEL 2
REMARK VINA RESULT:      -7.2      4.381      7.981
REMARK  Name = 
REMARK  6 active torsions:
REMARK  status: ('A' for Active; 'I' for Inactive)
REMARK    1  A    between atoms: C_1  and  O_2
REMARK    2  A    between atoms: O_2  and  C_3
REMARK    3  A    between atoms: N_16  and  C_17
REMARK    4  A    between atoms: C_17  and  C_18
REMARK    5  A    between atoms: C_27  and  O_28
REMARK    6  A    between atoms: O_28  and  C_29
REMARK                            x       y       z     vdW  Elec       q    Type
REMARK                         _______ _______ _______ _____ _____    ______ ____
ROOT
ATOM      1  C   UNL     1       3.026  16.372  19.425  0.00  0.00    +0.000 A 
ATOM      2  C   UNL     1       1.962  16.194  20.331  0.00  0.00    +0.000 A 
ATOM      3  C   UNL     1       1.069  15.141  20.241  0.00  0.00    +0.000 A 
ATOM      4  N   UNL     1       0.045  15.089  21.104  0.00  0.00    +0.000 NA
ATOM      5  C   UNL     1      -0.818  14.074  21.018  0.00  0.00    +0.000 A 
ATOM      6  N   UNL     1      -1.865  14.021  21.911  0.00  0.00    +0.000 N 
ATOM      7  C   UNL     1      -2.128  15.120  22.829  0.00  0.00    +0.000 C 
ATOM      8  C   UNL     1      -2.406  14.536  24.216  0.00  0.00    +0.000 C 
ATOM      9  C   UNL     1      -3.500  13.467  24.174  0.00  0.00    +0.000 C 
ATOM     10  C   UNL     1      -3.217  12.411  23.105  0.00  0.00    +0.000 C 
ATOM     11  C   UNL     1      -2.932  13.048  21.745  0.00  0.00    +0.000 C 
ATOM     12  N   UNL     1      -0.675  13.082  20.128  0.00  0.00    +0.000 NA
ATOM     13  C   UNL     1       0.353  13.126  19.264  0.00  0.00    +0.000 A 
ATOM     14  N   UNL     1       0.533  12.065  18.356  0.00  0.00    +0.000 N 
ATOM     15  C   UNL     1       1.269  14.178  19.259  0.00  0.00    +0.000 A 
ATOM     16  C   UNL     1       2.374  14.308  18.381  0.00  0.00    +0.000 A 
ATOM     17  C   UNL     1       3.256  15.388  18.456  0.00  0.00    +0.000 A 
ATOM     18  H   UNL     1       0.422  12.395  17.405  0.00  0.00    +0.000 HD
ENDROOT
BRANCH   1  20
ATOM     19  C   UNL     1       4.810  17.508  20.472  0.00  0.00    +0.000 C 
ATOM     20  O   UNL     1       3.815  17.494  19.445  0.00  0.00    +0.000 OA
ENDBRANCH   1  20
BRANCH  17  21
ATOM     21  O   UNL     1       4.208  15.361  17.477  0.00  0.00    +0.000 OA
ATOM     22  C   UNL     1       5.480  14.810  17.781  0.00  0.00    +0.000 C 
ENDBRANCH  17  21
BRANCH  14  23
ATOM     23  C   UNL     1      -0.242  10.863  18.631  0.00  0.00    +0.000 C 
BRANCH  23  24
ATOM     24  C   UNL     1       0.703   9.716  18.935  0.00  0.00    +0.000 A 
ATOM     25  C   UNL     1       0.772   9.178  20.233  0.00  0.00    +0.000 A 
ATOM     26  C   UNL     1       1.585   8.079  20.508  0.00  0.00    +0.000 A 
ATOM     27  C   UNL     1       2.328   7.508  19.483  0.00  0.00    +0.000 A 
ATOM     28  F   UNL     1       3.099   6.443  19.740  0.00  0.00    +0.000 F 
ATOM     29  C   UNL     1       2.277   8.020  18.192  0.00  0.00    +0.000 A 
ATOM     30  C   UNL     1       1.464   9.122  17.915  0.00  0.00    +0.000 A 
ENDBRANCH  23  24
ENDBRANCH  14  23
TORSDOF 4
ENDMDL
MODEL 3
REMARK VINA RESULT:      -7.2      2.362      5.090
REMARK  Name = 
REMARK  6 active torsions:
REMARK  status: ('A' for Active; 'I' for Inactive)
REMARK    1  A    between atoms: C_1  and  O_2
REMARK    2  A    between atoms: O_2  and  C_3
REMARK    3  A    between atoms: N_16  and  C_17
REMARK    4  A    between atoms: C_17  and  C_18
REMARK    5  A    between atoms: C_27  and  O_28
REMARK    6  A    between atoms: O_28  and  C_29
REMARK                            x       y       z     vdW  Elec       q    Type
REMARK                         _______ _______ _______ _____ _____    ______ ____
ROOT
ATOM      1  C   UNL     1       0.720  10.118  18.735  0.00  0.00    +0.000 A 
ATOM      2  C   UNL     1       1.651   9.405  17.955  0.00  0.00    +0.000 A 
ATOM      3  C   UNL     1       2.307   8.277  18.416  0.00  0.00    +0.000 A 
ATOM      4  N   UNL     1       3.228   7.702  17.631  0.00  0.00    +0.000 NA
ATOM      5  C   UNL     1       3.863   6.614  18.075  0.00  0.00    +0.000 A 
ATOM      6  N   UNL     1       4.805   6.022  17.263  0.00  0.00    +0.000 N 
ATOM      7  C   UNL     1       5.223   6.647  16.016  0.00  0.00    +0.000 C 
ATOM      8  C   UNL     1       5.266   5.572  14.927  0.00  0.00    +0.000 C 
ATOM      9  C   UNL     1       6.111   4.369  15.349  0.00  0.00    +0.000 C 
ATOM     10  C   UNL     1       5.694   3.840  16.722  0.00  0.00    +0.000 C 
ATOM     11  C   UNL     1       5.652   4.955  17.767  0.00  0.00    +0.000 C 
ATOM     12  N   UNL     1       3.583   6.051  19.259  0.00  0.00    +0.000 NA
ATOM     13  C   UNL     1       2.655   6.620  20.046  0.00  0.00    +0.000 A 
ATOM     14  N   UNL     1       2.326   6.008  21.271  0.00  0.00    +0.000 N 
ATOM     15  C   UNL     1       1.984   7.784  19.675  0.00  0.00    +0.000 A 
ATOM     16  C   UNL     1       1.001   8.454  20.446  0.00  0.00    +0.000 A 
ATOM     17  C   UNL     1       0.362   9.609  19.989  0.00  0.00    +0.000 A 
ATOM     18  H   UNL     1       2.576   6.614  22.044  0.00  0.00    +0.000 HD
ENDROOT
BRANCH   1  20
ATOM     19  C   UNL     1       0.845  12.473  18.824  0.00  0.00    +0.000 C 
ATOM     20  O   UNL     1       0.185  11.311  18.315  0.00  0.00    +0.000 OA
ENDBRANCH   1  20
BRANCH  17  21
ATOM     21  O   UNL     1      -0.497  10.137  20.910  0.00  0.00    +0.000 OA
ATOM     22  C   UNL     1      -0.088  10.188  22.268  0.00  0.00    +0.000 C 
ENDBRANCH  17  21
BRANCH  14  23
ATOM     23  C   UNL     1       2.807   4.645  21.443  0.00  0.00    +0.000 C 
BRANCH  23  24
ATOM     24  C   UNL     1       2.117   3.738  20.443  0.00  0.00    +0.000 A 
ATOM     25  C   UNL     1       2.836   2.717  19.796  0.00  0.00    +0.000 A 
ATOM     26  C   UNL     1       2.196   1.833  18.926  0.00  0.00    +0.000 A 
ATOM     27  C   UNL     1       0.831   1.964  18.705  0.00  0.00    +0.000 A 
ATOM     28  F   UNL     1       0.211   1.109  17.882  0.00  0.00    +0.000 F 
ATOM     29  C   UNL     1       0.098   2.965  19.333  0.00  0.00    +0.000 A 
ATOM     30  C   UNL     1       0.738   3.851  20.203  0.00  0.00    +0.000 A 
ENDBRANCH  23  24
ENDBRANCH  14  23
TORSDOF 4
ENDMDL
MODEL 4
REMARK VINA RESULT:      -7.1      4.431      8.410
REMARK  Name = 
REMARK  6 active torsions:
REMARK  status: ('A' for Active; 'I' for Inactive)
REMARK    1  A    between atoms: C_1  and  O_2
REMARK    2  A    between atoms: O_2  and  C_3
REMARK    3  A    between atoms: N_16  and  C_17
REMARK    4  A    between atoms: C_17  and  C_18
REMARK    5  A    between atoms: C_27  and  O_28
REMARK    6  A    between atoms: O_28  and  C_29
REMARK                            x       y       z     vdW  Elec       q    Type
REMARK                         _______ _______ _______ _____ _____    ______ ____
ROOT
ATOM      1  C   UNL     1      -2.192  14.079  24.070  0.00  0.00    +0.000 A 
ATOM      2  C   UNL     1      -1.120  14.706  23.406  0.00  0.00    +0.000 A 
ATOM      3  C   UNL     1      -0.431  14.108  22.364  0.00  0.00    +0.000 A 
ATOM      4  N   UNL     1       0.620  14.749  21.837  0.00  0.00    +0.000 NA
ATOM      5  C   UNL     1       1.286  14.173  20.832  0.00  0.00    +0.000 A 
ATOM      6  N   UNL     1       2.363  14.838  20.288  0.00  0.00    +0.000 N 
ATOM      7  C   UNL     1       2.872  16.064  20.887  0.00  0.00    +0.000 C 
ATOM      8  C   UNL     1       3.132  17.077  19.769  0.00  0.00    +0.000 C 
ATOM      9  C   UNL     1       4.018  16.492  18.668  0.00  0.00    +0.000 C 
ATOM     10  C   UNL     1       3.487  15.146  18.170  0.00  0.00    +0.000 C 
ATOM     11  C   UNL     1       3.231  14.180  19.326  0.00  0.00    +0.000 C 
ATOM     12  N   UNL     1       0.916  12.999  20.304  0.00  0.00    +0.000 NA
ATOM     13  C   UNL     1      -0.142  12.356  20.826  0.00  0.00    +0.000 A 
ATOM     14  N   UNL     1      -0.562  11.143  20.246  0.00  0.00    +0.000 N 
ATOM     15  C   UNL     1      -0.859  12.868  21.906  0.00  0.00    +0.000 A 
ATOM     16  C   UNL     1      -1.978  12.254  22.522  0.00  0.00    +0.000 A 
ATOM     17  C   UNL     1      -2.652  12.846  23.592  0.00  0.00    +0.000 A 
ATOM     18  H   UNL     1      -0.456  10.383  20.908  0.00  0.00    +0.000 HD
ENDROOT
BRANCH   1  20
ATOM     19  C   UNL     1      -3.282  15.949  25.012  0.00  0.00    +0.000 C 
ATOM     20  O   UNL     1      -2.771  14.625  25.189  0.00  0.00    +0.000 OA
ENDBRANCH   1  20
BRANCH  17  21
ATOM     21  O   UNL     1      -3.655  12.060  24.085  0.00  0.00    +0.000 OA
ATOM     22  C   UNL     1      -4.953  12.618  24.213  0.00  0.00    +0.000 C 
ENDBRANCH  17  21
BRANCH  14  23
ATOM     23  C   UNL     1       0.007  10.838  18.941  0.00  0.00    +0.000 C 
BRANCH  23  24
ATOM     24  C   UNL     1       0.902   9.619  19.056  0.00  0.00    +0.000 A 
ATOM     25  C   UNL     1       1.021   8.938  20.282  0.00  0.00    +0.000 A 
ATOM     26  C   UNL     1       1.785   7.776  20.383  0.00  0.00    +0.000 A 
ATOM     27  C   UNL     1       2.430   7.286  19.255  0.00  0.00    +0.000 A 
ATOM     28  F   UNL     1       3.154   6.162  19.345  0.00  0.00    +0.000 F 
ATOM     29  C   UNL     1       2.329   7.939  18.032  0.00  0.00    +0.000 A 
ATOM     30  C   UNL     1       1.564   9.104  17.930  0.00  0.00    +0.000 A 
ENDBRANCH  23  24
ENDBRANCH  14  23
TORSDOF 4
ENDMDL
MODEL 5
REMARK VINA RESULT:      -7.0      7.139      9.775
REMARK  Name = 
REMARK  6 active torsions:
REMARK  status: ('A' for Active; 'I' for Inactive)
REMARK    1  A    between atoms: C_1  and  O_2
REMARK    2  A    between atoms: O_2  and  C_3
REMARK    3  A    between atoms: N_16  and  C_17
REMARK    4  A    between atoms: C_17  and  C_18
REMARK    5  A    between atoms: C_27  and  O_28
REMARK    6  A    between atoms: O_28  and  C_29
REMARK                            x       y       z     vdW  Elec       q    Type
REMARK                         _______ _______ _______ _____ _____    ______ ____
ROOT
ATOM      1  C   UNL     1      -2.341  14.504  24.312  0.00  0.00    +0.000 A 
ATOM      2  C   UNL     1      -1.256  15.004  23.566  0.00  0.00    +0.000 A 
ATOM      3  C   UNL     1      -0.628  14.272  22.573  0.00  0.00    +0.000 A 
ATOM      4  N   UNL     1       0.441  14.801  21.962  0.00  0.00    +0.000 NA
ATOM      5  C   UNL     1       1.049  14.094  21.005  0.00  0.00    +0.000 A 
ATOM      6  N   UNL     1       2.143  14.643  20.375  0.00  0.00    +0.000 N 
ATOM      7  C   UNL     1       2.730  15.893  20.838  0.00  0.00    +0.000 C 
ATOM      8  C   UNL     1       3.012  16.776  19.619  0.00  0.00    +0.000 C 
ATOM      9  C   UNL     1       3.836  16.039  18.562  0.00  0.00    +0.000 C 
ATOM     10  C   UNL     1       3.224  14.682  18.212  0.00  0.00    +0.000 C 
ATOM     11  C   UNL     1       2.950  13.849  19.464  0.00  0.00    +0.000 C 
ATOM     12  N   UNL     1       0.605  12.895  20.604  0.00  0.00    +0.000 NA
ATOM     13  C   UNL     1      -0.471  12.364  21.211  0.00  0.00    +0.000 A 
ATOM     14  N   UNL     1      -0.967  11.124  20.764  0.00  0.00    +0.000 N 
ATOM     15  C   UNL     1      -1.131  13.017  22.250  0.00  0.00    +0.000 A 
ATOM     16  C   UNL     1      -2.263  12.527  22.948  0.00  0.00    +0.000 A 
ATOM     17  C   UNL     1      -2.876  13.257  23.969  0.00  0.00    +0.000 A 
ATOM     18  H   UNL     1      -0.882  10.429  21.495  0.00  0.00    +0.000 HD
ENDROOT
BRANCH   1  20
ATOM     19  C   UNL     1      -3.097  16.578  25.147  0.00  0.00    +0.000 C 
ATOM     20  O   UNL     1      -2.861  15.187  25.383  0.00  0.00    +0.000 OA
ENDBRANCH   1  20
BRANCH  17  21
ATOM     21  O   UNL     1      -3.904  12.578  24.559  0.00  0.00    +0.000 OA
ATOM     22  C   UNL     1      -5.231  12.864  24.147  0.00  0.00    +0.000 C 
ENDBRANCH  17  21
BRANCH  14  23
ATOM     23  C   UNL     1      -0.450  10.663  19.483  0.00  0.00    +0.000 C 
BRANCH  23  24
ATOM     24  C   UNL     1      -1.573  10.647  18.464  0.00  0.00    +0.000 A 
ATOM     25  C   UNL     1      -2.699  11.473  18.636  0.00  0.00    +0.000 A 
ATOM     26  C   UNL     1      -3.706  11.517  17.672  0.00  0.00    +0.000 A 
ATOM     27  C   UNL     1      -3.587  10.740  16.526  0.00  0.00    +0.000 A 
ATOM     28  F   UNL     1      -4.545  10.792  15.591  0.00  0.00    +0.000 F 
ATOM     29  C   UNL     1      -2.484   9.917  16.333  0.00  0.00    +0.000 A 
ATOM     30  C   UNL     1      -1.476   9.870  17.299  0.00  0.00    +0.000 A 
ENDBRANCH  23  24
ENDBRANCH  14  23
TORSDOF 4
ENDMDL
MODEL 6
REMARK VINA RESULT:      -7.0      2.332      2.903
REMARK  Name = 
REMARK  6 active torsions:
REMARK  status: ('A' for Active; 'I' for Inactive)
REMARK    1  A    between atoms: C_1  and  O_2
REMARK    2  A    between atoms: O_2  and  C_3
REMARK    3  A    between atoms: N_16  and  C_17
REMARK    4  A    between atoms: C_17  and  C_18
REMARK    5  A    between atoms: C_27  and  O_28
REMARK    6  A    between atoms: O_28  and  C_29
REMARK                            x       y       z     vdW  Elec       q    Type
REMARK                         _______ _______ _______ _____ _____    ______ ____
ROOT
ATOM      1  C   UNL     1       1.134   9.708  18.920  0.00  0.00    +0.000 A 
ATOM      2  C   UNL     1       1.148   8.423  19.497  0.00  0.00    +0.000 A 
ATOM      3  C   UNL     1       2.050   7.443  19.121  0.00  0.00    +0.000 A 
ATOM      4  N   UNL     1       1.947   6.227  19.674  0.00  0.00    +0.000 NA
ATOM      5  C   UNL     1       2.816   5.280  19.311  0.00  0.00    +0.000 A 
ATOM      6  N   UNL     1       2.710   4.033  19.886  0.00  0.00    +0.000 N 
ATOM      7  C   UNL     1       1.587   3.694  20.748  0.00  0.00    +0.000 C 
ATOM      8  C   UNL     1       2.126   2.964  21.982  0.00  0.00    +0.000 C 
ATOM      9  C   UNL     1       3.013   1.778  21.597  0.00  0.00    +0.000 C 
ATOM     10  C   UNL     1       4.096   2.184  20.596  0.00  0.00    +0.000 C 
ATOM     11  C   UNL     1       3.506   2.921  19.395  0.00  0.00    +0.000 C 
ATOM     12  N   UNL     1       3.815   5.513  18.448  0.00  0.00    +0.000 NA
ATOM     13  C   UNL     1       3.926   6.733  17.896  0.00  0.00    +0.000 A 
ATOM     14  N   UNL     1       4.999   6.995  17.023  0.00  0.00    +0.000 N 
ATOM     15  C   UNL     1       3.029   7.760  18.186  0.00  0.00    +0.000 A 
ATOM     16  C   UNL     1       3.068   9.069  17.645  0.00  0.00    +0.000 A 
ATOM     17  C   UNL     1       2.137  10.047  18.005  0.00  0.00    +0.000 A 
ATOM     18  H   UNL     1       4.652   7.198  16.093  0.00  0.00    +0.000 HD
ENDROOT
BRANCH   1  20
ATOM     19  C   UNL     1      -0.979  10.573  18.322  0.00  0.00    +0.000 C 
ATOM     20  O   UNL     1       0.146  10.619  19.203  0.00  0.00    +0.000 OA
ENDBRANCH   1  20
BRANCH  17  21
ATOM     21  O   UNL     1       2.307  11.215  17.318  0.00  0.00    +0.000 OA
ATOM     22  C   UNL     1       2.627  12.390  18.046  0.00  0.00    +0.000 C 
ENDBRANCH  17  21
BRANCH  14  23
ATOM     23  C   UNL     1       6.067   6.006  17.023  0.00  0.00    +0.000 C 
BRANCH  23  24
ATOM     24  C   UNL     1       6.141   5.346  15.659  0.00  0.00    +0.000 A 
ATOM     25  C   UNL     1       7.291   5.490  14.861  0.00  0.00    +0.000 A 
ATOM     26  C   UNL     1       7.397   4.832  13.637  0.00  0.00    +0.000 A 
ATOM     27  C   UNL     1       6.356   4.019  13.207  0.00  0.00    +0.000 A 
ATOM     28  F   UNL     1       6.461   3.374  12.038  0.00  0.00    +0.000 F 
ATOM     29  C   UNL     1       5.210   3.859  13.977  0.00  0.00    +0.000 A 
ATOM     30  C   UNL     1       5.101   4.520  15.204  0.00  0.00    +0.000 A 
ENDBRANCH  23  24
ENDBRANCH  14  23
TORSDOF 4
ENDMDL
MODEL 7
REMARK VINA RESULT:      -6.9      4.401      8.102
REMARK  Name = 
REMARK  6 active torsions:
REMARK  status: ('A' for Active; 'I' for Inactive)
REMARK    1  A    between atoms: C_1  and  O_2
REMARK    2  A    between atoms: O_2  and  C_3
REMARK    3  A    between atoms: N_16  and  C_17
REMARK    4  A    between atoms: C_17  and  C_18
REMARK    5  A    between atoms: C_27  and  O_28
REMARK    6  A    between atoms: O_28  and  C_29
REMARK                            x       y       z     vdW  Elec       q    Type
REMARK                         _______ _______ _______ _____ _____    ______ ____
ROOT
ATOM      1  C   UNL     1       3.602  16.237  19.364  0.00  0.00    +0.000 A 
ATOM      2  C   UNL     1       2.532  16.171  20.277  0.00  0.00    +0.000 A 
ATOM      3  C   UNL     1       1.550  15.198  20.212  0.00  0.00    +0.000 A 
ATOM      4  N   UNL     1       0.531  15.252  21.081  0.00  0.00    +0.000 NA
ATOM      5  C   UNL     1      -0.418  14.315  21.018  0.00  0.00    +0.000 A 
ATOM      6  N   UNL     1      -1.461  14.370  21.916  0.00  0.00    +0.000 N 
ATOM      7  C   UNL     1      -1.621  15.506  22.814  0.00  0.00    +0.000 C 
ATOM      8  C   UNL     1      -1.941  14.975  24.214  0.00  0.00    +0.000 C 
ATOM      9  C   UNL     1      -3.124  14.005  24.197  0.00  0.00    +0.000 C 
ATOM     10  C   UNL     1      -2.940  12.908  23.148  0.00  0.00    +0.000 C 
ATOM     11  C   UNL     1      -2.608  13.491  21.775  0.00  0.00    +0.000 C 
ATOM     12  N   UNL     1      -0.368  13.297  20.147  0.00  0.00    +0.000 NA
ATOM     13  C   UNL     1       0.656  13.235  19.278  0.00  0.00    +0.000 A 
ATOM     14  N   UNL     1       0.736  12.145  18.391  0.00  0.00    +0.000 N 
ATOM     15  C   UNL     1       1.659  14.202  19.248  0.00  0.00    +0.000 A 
ATOM     16  C   UNL     1       2.766  14.218  18.363  0.00  0.00    +0.000 A 
ATOM     17  C   UNL     1       3.740  15.219  18.413  0.00  0.00    +0.000 A 
ATOM     18  H   UNL     1       0.649  12.465  17.434  0.00  0.00    +0.000 HD
ENDROOT
BRANCH   1  20
ATOM     19  C   UNL     1       5.286  17.401  20.538  0.00  0.00    +0.000 C 
ATOM     20  O   UNL     1       4.486  17.287  19.358  0.00  0.00    +0.000 OA
ENDBRANCH   1  20
BRANCH  17  21
ATOM     21  O   UNL     1       4.680  15.090  17.430  0.00  0.00    +0.000 OA
ATOM     22  C   UNL     1       5.980  14.649  17.788  0.00  0.00    +0.000 C 
ENDBRANCH  17  21
BRANCH  14  23
ATOM     23  C   UNL     1      -0.139  11.021  18.692  0.00  0.00    +0.000 C 
BRANCH  23  24
ATOM     24  C   UNL     1       0.700   9.774  18.901  0.00  0.00    +0.000 A 
ATOM     25  C   UNL     1       1.431   9.223  17.832  0.00  0.00    +0.000 A 
ATOM     26  C   UNL     1       2.260   8.119  18.028  0.00  0.00    +0.000 A 
ATOM     27  C   UNL     1       2.366   7.564  19.297  0.00  0.00    +0.000 A 
ATOM     28  F   UNL     1       3.171   6.511  19.492  0.00  0.00    +0.000 F 
ATOM     29  C   UNL     1       1.654   8.090  20.370  0.00  0.00    +0.000 A 
ATOM     30  C   UNL     1       0.823   9.196  20.174  0.00  0.00    +0.000 A 
ENDBRANCH  23  24
ENDBRANCH  14  23
TORSDOF 4
ENDMDL
MODEL 8
REMARK VINA RESULT:      -6.9      4.287      6.969
REMARK  Name = 
REMARK  6 active torsions:
REMARK  status: ('A' for Active; 'I' for Inactive)
REMARK    1  A    between atoms: C_1  and  O_2
REMARK    2  A    between atoms: O_2  and  C_3
REMARK    3  A    between atoms: N_16  and  C_17
REMARK    4  A    between atoms: C_17  and  C_18
REMARK    5  A    between atoms: C_27  and  O_28
REMARK    6  A    between atoms: O_28  and  C_29
REMARK                            x       y       z     vdW  Elec       q    Type
REMARK                         _______ _______ _______ _____ _____    ______ ____
ROOT
ATOM      1  C   UNL     1      -3.995  11.401  17.256  0.00  0.00    +0.000 A 
ATOM      2  C   UNL     1      -3.230  12.172  18.153  0.00  0.00    +0.000 A 
ATOM      3  C   UNL     1      -1.928  11.851  18.497  0.00  0.00    +0.000 A 
ATOM      4  N   UNL     1      -1.300  12.602  19.411  0.00  0.00    +0.000 NA
ATOM      5  C   UNL     1      -0.044  12.292  19.745  0.00  0.00    +0.000 A 
ATOM      6  N   UNL     1       0.600  13.071  20.681  0.00  0.00    +0.000 N 
ATOM      7  C   UNL     1      -0.109  14.111  21.412  0.00  0.00    +0.000 C 
ATOM      8  C   UNL     1       0.764  15.369  21.433  0.00  0.00    +0.000 C 
ATOM      9  C   UNL     1       2.173  15.074  21.952  0.00  0.00    +0.000 C 
ATOM     10  C   UNL     1       2.810  13.893  21.218  0.00  0.00    +0.000 C 
ATOM     11  C   UNL     1       1.891  12.671  21.214  0.00  0.00    +0.000 C 
ATOM     12  N   UNL     1       0.625  11.284  19.169  0.00  0.00    +0.000 NA
ATOM     13  C   UNL     1       0.001  10.532  18.247  0.00  0.00    +0.000 A 
ATOM     14  N   UNL     1       0.713   9.499  17.608  0.00  0.00    +0.000 N 
ATOM     15  C   UNL     1      -1.324  10.761  17.880  0.00  0.00    +0.000 A 
ATOM     16  C   UNL     1      -2.060  10.014  16.927  0.00  0.00    +0.000 A 
ATOM     17  C   UNL     1      -3.383  10.323  16.604  0.00  0.00    +0.000 A 
ATOM     18  H   UNL     1       0.306   8.600  17.835  0.00  0.00    +0.000 HD
ENDROOT
BRANCH   1  20
ATOM     19  C   UNL     1      -6.200  11.203  18.072  0.00  0.00    +0.000 C 
ATOM     20  O   UNL     1      -5.325  11.654  17.035  0.00  0.00    +0.000 OA
ENDBRANCH   1  20
BRANCH  17  21
ATOM     21  O   UNL     1      -3.931   9.440  15.718  0.00  0.00    +0.000 OA
ATOM     22  C   UNL     1      -3.914   9.765  14.337  0.00  0.00    +0.000 C 
ENDBRANCH  17  21
BRANCH  14  23
ATOM     23  C   UNL     1       2.158   9.526  17.787  0.00  0.00    +0.000 C 
BRANCH  23  24
ATOM     24  C   UNL     1       2.630   8.167  18.266  0.00  0.00    +0.000 A 
ATOM     25  C   UNL     1       2.087   7.598  19.433  0.00  0.00    +0.000 A 
ATOM     26  C   UNL     1       2.462   6.319  19.845  0.00  0.00    +0.000 A 
ATOM     27  C   UNL     1       3.378   5.600  19.087  0.00  0.00    +0.000 A 
ATOM     28  F   UNL     1       3.729   4.367  19.472  0.00  0.00    +0.000 F 
ATOM     29  C   UNL     1       3.928   6.140  17.930  0.00  0.00    +0.000 A 
ATOM     30  C   UNL     1       3.554   7.421  17.517  0.00  0.00    +0.000 A 
ENDBRANCH  23  24
ENDBRANCH  14  23
TORSDOF 4
ENDMDL
MODEL 9
REMARK VINA RESULT:      -6.7      5.330      8.510
REMARK  Name = 
REMARK  6 active torsions:
REMARK  status: ('A' for Active; 'I' for Inactive)
REMARK    1  A    between atoms: C_1  and  O_2
REMARK    2  A    between atoms: O_2  and  C_3
REMARK    3  A    between atoms: N_16  and  C_17
REMARK    4  A    between atoms: C_17  and  C_18
REMARK    5  A    between atoms: C_27  and  O_28
REMARK    6  A    between atoms: O_28  and  C_29
REMARK                            x       y       z     vdW  Elec       q    Type
REMARK                         _______ _______ _______ _____ _____    ______ ____
ROOT
ATOM      1  C   UNL     1      -1.402  15.368  23.536  0.00  0.00    +0.000 A 
ATOM      2  C   UNL     1      -2.609  14.790  23.097  0.00  0.00    +0.000 A 
ATOM      3  C   UNL     1      -2.696  14.012  21.955  0.00  0.00    +0.000 A 
ATOM      4  N   UNL     1      -3.898  13.560  21.574  0.00  0.00    +0.000 NA
ATOM      5  C   UNL     1      -3.983  12.811  20.472  0.00  0.00    +0.000 A 
ATOM      6  N   UNL     1      -5.220  12.342  20.087  0.00  0.00    +0.000 N 
ATOM      7  C   UNL     1      -6.433  12.775  20.765  0.00  0.00    +0.000 C 
ATOM      8  C   UNL     1      -7.310  11.546  21.021  0.00  0.00    +0.000 C 
ATOM      9  C   UNL     1      -7.549  10.743  19.741  0.00  0.00    +0.000 C 
ATOM     10  C   UNL     1      -6.238  10.427  19.019  0.00  0.00    +0.000 C 
ATOM     11  C   UNL     1      -5.396  11.684  18.804  0.00  0.00    +0.000 C 
ATOM     12  N   UNL     1      -2.906  12.460  19.756  0.00  0.00    +0.000 NA
ATOM     13  C   UNL     1      -1.697  12.906  20.137  0.00  0.00    +0.000 A 
ATOM     14  N   UNL     1      -0.558  12.504  19.414  0.00  0.00    +0.000 N 
ATOM     15  C   UNL     1      -1.532  13.732  21.248  0.00  0.00    +0.000 A 
ATOM     16  C   UNL     1      -0.300  14.253  21.715  0.00  0.00    +0.000 A 
ATOM     17  C   UNL     1      -0.220  15.062  22.851  0.00  0.00    +0.000 A 
ATOM     18  H   UNL     1      -0.119  13.306  18.978  0.00  0.00    +0.000 HD
ENDROOT
BRANCH   1  20
ATOM     19  C   UNL     1      -1.309  15.633  25.879  0.00  0.00    +0.000 C 
ATOM     20  O   UNL     1      -1.360  16.248  24.589  0.00  0.00    +0.000 OA
ENDBRANCH   1  20
BRANCH  17  21
ATOM     21  O   UNL     1       1.046  15.516  23.089  0.00  0.00    +0.000 OA
ATOM     22  C   UNL     1       1.412  16.795  22.593  0.00  0.00    +0.000 C 
ENDBRANCH  17  21
BRANCH  14  23
ATOM     23  C   UNL     1      -0.757  11.397  18.490  0.00  0.00    +0.000 C 
BRANCH  23  24
ATOM     24  C   UNL     1       0.112  10.228  18.914  0.00  0.00    +0.000 A 
ATOM     25  C   UNL     1       0.983   9.620  17.991  0.00  0.00    +0.000 A 
ATOM     26  C   UNL     1       1.836   8.590  18.386  0.00  0.00    +0.000 A 
ATOM     27  C   UNL     1       1.826   8.167  19.710  0.00  0.00    +0.000 A 
ATOM     28  F   UNL     1       2.654   7.188  20.096  0.00  0.00    +0.000 F 
ATOM     29  C   UNL     1       0.975   8.752  20.641  0.00  0.00    +0.000 A 
ATOM     30  C   UNL     1       0.120   9.784  20.245  0.00  0.00    +0.000 A 
ENDBRANCH  23  24
ENDBRANCH  14  23
TORSDOF 4
ENDMDL
