MODEL 1
REMARK VINA RESULT:      -7.2      0.000      0.000
REMARK  Name = 
REMARK  1 active torsions:
REMARK  status: ('A' for Active; 'I' for Inactive)
REMARK    1  A    between atoms: C_4  and  N_5
REMARK                            x       y       z     vdW  Elec       q    Type
REMARK                         _______ _______ _______ _____ _____    ______ ____
ROOT
ATOM      1  N   UNL     1       3.719   3.382  18.080  0.00  0.00    +0.000 N 
ATOM      2  C   UNL     1       4.998   3.798  17.878  0.00  0.00    +0.000 A 
ATOM      3  N   UNL     1       5.939   4.041  18.801  0.00  0.00    +0.000 NA
ATOM      4  N   UNL     1       6.992   4.486  18.104  0.00  0.00    +0.000 N 
ATOM      5  C   UNL     1       6.793   4.546  16.757  0.00  0.00    +0.000 A 
ATOM      6  C   UNL     1       7.595   4.967  15.699  0.00  0.00    +0.000 A 
ATOM      7  C   UNL     1       7.005   4.890  14.441  0.00  0.00    +0.000 A 
ATOM      8  C   UNL     1       5.703   4.413  14.322  0.00  0.00    +0.000 A 
ATOM      9  N   UNL     1       4.913   4.000  15.342  0.00  0.00    +0.000 NA
ATOM     10  C   UNL     1       5.498   4.086  16.568  0.00  0.00    +0.000 A 
ATOM     11  H   UNL     1       3.165   3.251  17.238  0.00  0.00    +0.000 HD
ATOM     12  H   UNL     1       7.822   4.752  18.619  0.00  0.00    +0.000 HD
ENDROOT
BRANCH   1  16
ATOM     13  C   UNL     1       1.334   3.223  21.578  0.00  0.00    +0.000 A 
ATOM     14  C   UNL     1       2.534   2.522  21.501  0.00  0.00    +0.000 A 
ATOM     15  C   UNL     1       3.331   2.617  20.354  0.00  0.00    +0.000 A 
ATOM     16  C   UNL     1       2.936   3.401  19.258  0.00  0.00    +0.000 A 
ATOM     17  C   UNL     1       1.746   4.129  19.377  0.00  0.00    +0.000 A 
ATOM     18  C   UNL     1       0.946   4.040  20.520  0.00  0.00    +0.000 A 
ENDBRANCH   1  16
TORSDOF 1
ENDMDL
MODEL 2
REMARK VINA RESULT:      -7.1      0.180      1.205
REMARK  Name = 
REMARK  1 active torsions:
REMARK  status: ('A' for Active; 'I' for Inactive)
REMARK    1  A    between atoms: C_4  and  N_5
REMARK                            x       y       z     vdW  Elec       q    Type
REMARK                         _______ _______ _______ _____ _____    ______ ____
ROOT
ATOM      1  N   UNL     1       3.724   3.193  18.022  0.00  0.00    +0.000 N 
ATOM      2  C   UNL     1       4.980   3.691  17.862  0.00  0.00    +0.000 A 
ATOM      3  N   UNL     1       5.877   3.981  18.815  0.00  0.00    +0.000 NA
ATOM      4  N   UNL     1       6.918   4.500  18.154  0.00  0.00    +0.000 N 
ATOM      5  C   UNL     1       6.755   4.565  16.802  0.00  0.00    +0.000 A 
ATOM      6  C   UNL     1       7.558   5.050  15.773  0.00  0.00    +0.000 A 
ATOM      7  C   UNL     1       7.010   4.953  14.498  0.00  0.00    +0.000 A 
ATOM      8  C   UNL     1       5.746   4.396  14.336  0.00  0.00    +0.000 A 
ATOM      9  N   UNL     1       4.954   3.920  15.327  0.00  0.00    +0.000 NA
ATOM     10  C   UNL     1       5.497   4.027  16.570  0.00  0.00    +0.000 A 
ATOM     11  H   UNL     1       3.205   3.038  17.163  0.00  0.00    +0.000 HD
ATOM     12  H   UNL     1       7.715   4.812  18.696  0.00  0.00    +0.000 HD
ENDROOT
BRANCH   1  16
ATOM     13  C   UNL     1       1.290   3.273  21.488  0.00  0.00    +0.000 A 
ATOM     14  C   UNL     1       0.844   3.826  20.291  0.00  0.00    +0.000 A 
ATOM     15  C   UNL     1       1.643   3.755  19.144  0.00  0.00    +0.000 A 
ATOM     16  C   UNL     1       2.908   3.146  19.176  0.00  0.00    +0.000 A 
ATOM     17  C   UNL     1       3.316   2.562  20.381  0.00  0.00    +0.000 A 
ATOM     18  C   UNL     1       2.521   2.627  21.530  0.00  0.00    +0.000 A 
ENDBRANCH   1  16
TORSDOF 1
ENDMDL
MODEL 3
REMARK VINA RESULT:      -7.1      1.182      6.318
REMARK  Name = 
REMARK  1 active torsions:
REMARK  status: ('A' for Active; 'I' for Inactive)
REMARK    1  A    between atoms: C_4  and  N_5
REMARK                            x       y       z     vdW  Elec       q    Type
REMARK                         _______ _______ _______ _____ _____    ______ ____
ROOT
ATOM      1  N   UNL     1       4.768   3.370  17.715  0.00  0.00    +0.000 N 
ATOM      2  C   UNL     1       3.449   3.499  18.023  0.00  0.00    +0.000 A 
ATOM      3  N   UNL     1       2.467   3.977  17.248  0.00  0.00    +0.000 NA
ATOM      4  N   UNL     1       1.379   3.958  18.027  0.00  0.00    +0.000 N 
ATOM      5  C   UNL     1       1.595   3.485  19.287  0.00  0.00    +0.000 A 
ATOM      6  C   UNL     1       0.766   3.329  20.396  0.00  0.00    +0.000 A 
ATOM      7  C   UNL     1       1.386   2.818  21.532  0.00  0.00    +0.000 A 
ATOM      8  C   UNL     1       2.741   2.505  21.492  0.00  0.00    +0.000 A 
ATOM      9  N   UNL     1       3.558   2.652  20.422  0.00  0.00    +0.000 NA
ATOM     10  C   UNL     1       2.943   3.157  19.318  0.00  0.00    +0.000 A 
ATOM     11  H   UNL     1       5.351   2.977  18.449  0.00  0.00    +0.000 HD
ATOM     12  H   UNL     1       0.511   4.303  17.637  0.00  0.00    +0.000 HD
ENDROOT
BRANCH   1  16
ATOM     13  C   UNL     1       7.114   4.973  14.573  0.00  0.00    +0.000 A 
ATOM     14  C   UNL     1       6.165   3.987  14.322  0.00  0.00    +0.000 A 
ATOM     15  C   UNL     1       5.369   3.496  15.364  0.00  0.00    +0.000 A 
ATOM     16  C   UNL     1       5.518   3.970  16.677  0.00  0.00    +0.000 A 
ATOM     17  C   UNL     1       6.451   4.991  16.896  0.00  0.00    +0.000 A 
ATOM     18  C   UNL     1       7.248   5.487  15.859  0.00  0.00    +0.000 A 
ENDBRANCH   1  16
TORSDOF 1
ENDMDL
MODEL 4
REMARK VINA RESULT:      -7.1      1.182      6.271
REMARK  Name = 
REMARK  1 active torsions:
REMARK  status: ('A' for Active; 'I' for Inactive)
REMARK    1  A    between atoms: C_4  and  N_5
REMARK                            x       y       z     vdW  Elec       q    Type
REMARK                         _______ _______ _______ _____ _____    ______ ____
ROOT
ATOM      1  N   UNL     1       4.813   3.250  17.651  0.00  0.00    +0.000 N 
ATOM      2  C   UNL     1       3.502   3.452  17.952  0.00  0.00    +0.000 A 
ATOM      3  N   UNL     1       2.546   3.962  17.163  0.00  0.00    +0.000 NA
ATOM      4  N   UNL     1       1.458   4.014  17.940  0.00  0.00    +0.000 N 
ATOM      5  C   UNL     1       1.647   3.558  19.210  0.00  0.00    +0.000 A 
ATOM      6  C   UNL     1       0.809   3.467  20.319  0.00  0.00    +0.000 A 
ATOM      7  C   UNL     1       1.400   2.951  21.468  0.00  0.00    +0.000 A 
ATOM      8  C   UNL     1       2.738   2.569  21.439  0.00  0.00    +0.000 A 
ATOM      9  N   UNL     1       3.563   2.652  20.368  0.00  0.00    +0.000 NA
ATOM     10  C   UNL     1       2.977   3.164  19.252  0.00  0.00    +0.000 A 
ATOM     11  H   UNL     1       5.374   2.844  18.394  0.00  0.00    +0.000 HD
ATOM     12  H   UNL     1       0.609   4.394  17.540  0.00  0.00    +0.000 HD
ENDROOT
BRANCH   1  16
ATOM     13  C   UNL     1       7.069   5.062  14.556  0.00  0.00    +0.000 A 
ATOM     14  C   UNL     1       7.291   5.395  15.889  0.00  0.00    +0.000 A 
ATOM     15  C   UNL     1       6.566   4.758  16.903  0.00  0.00    +0.000 A 
ATOM     16  C   UNL     1       5.595   3.789  16.602  0.00  0.00    +0.000 A 
ATOM     17  C   UNL     1       5.420   3.442  15.257  0.00  0.00    +0.000 A 
ATOM     18  C   UNL     1       6.142   4.073  14.240  0.00  0.00    +0.000 A 
ENDBRANCH   1  16
TORSDOF 1
ENDMDL
MODEL 5
REMARK VINA RESULT:      -7.1      2.288      2.658
REMARK  Name = 
REMARK  1 active torsions:
REMARK  status: ('A' for Active; 'I' for Inactive)
REMARK    1  A    between atoms: C_4  and  N_5
REMARK                            x       y       z     vdW  Elec       q    Type
REMARK                         _______ _______ _______ _____ _____    ______ ____
ROOT
ATOM      1  N   UNL     1       3.699   4.929  17.989  0.00  0.00    +0.000 N 
ATOM      2  C   UNL     1       4.978   5.027  18.441  0.00  0.00    +0.000 A 
ATOM      3  N   UNL     1       5.597   4.242  19.335  0.00  0.00    +0.000 NA
ATOM      4  N   UNL     1       6.808   4.790  19.486  0.00  0.00    +0.000 N 
ATOM      5  C   UNL     1       7.024   5.903  18.729  0.00  0.00    +0.000 A 
ATOM      6  C   UNL     1       8.106   6.772  18.610  0.00  0.00    +0.000 A 
ATOM      7  C   UNL     1       7.922   7.828  17.723  0.00  0.00    +0.000 A 
ATOM      8  C   UNL     1       6.719   7.944  17.034  0.00  0.00    +0.000 A 
ATOM      9  N   UNL     1       5.660   7.106  17.140  0.00  0.00    +0.000 NA
ATOM     10  C   UNL     1       5.848   6.081  18.016  0.00  0.00    +0.000 A 
ATOM     11  H   UNL     1       3.425   5.625  17.302  0.00  0.00    +0.000 HD
ATOM     12  H   UNL     1       7.444   4.358  20.145  0.00  0.00    +0.000 HD
ENDROOT
BRANCH   1  16
ATOM     13  C   UNL     1       0.520   2.791  19.796  0.00  0.00    +0.000 A 
ATOM     14  C   UNL     1       0.964   3.995  20.333  0.00  0.00    +0.000 A 
ATOM     15  C   UNL     1       1.988   4.711  19.701  0.00  0.00    +0.000 A 
ATOM     16  C   UNL     1       2.598   4.227  18.532  0.00  0.00    +0.000 A 
ATOM     17  C   UNL     1       2.104   3.034  17.990  0.00  0.00    +0.000 A 
ATOM     18  C   UNL     1       1.080   2.316  18.614  0.00  0.00    +0.000 A 
ENDBRANCH   1  16
TORSDOF 1
ENDMDL
MODEL 6
REMARK VINA RESULT:      -7.0      1.202      6.078
REMARK  Name = 
REMARK  1 active torsions:
REMARK  status: ('A' for Active; 'I' for Inactive)
REMARK    1  A    between atoms: C_4  and  N_5
REMARK                            x       y       z     vdW  Elec       q    Type
REMARK                         _______ _______ _______ _____ _____    ______ ____
ROOT
ATOM      1  N   UNL     1       4.322   4.849  17.771  0.00  0.00    +0.000 N 
ATOM      2  C   UNL     1       4.276   3.998  18.831  0.00  0.00    +0.000 A 
ATOM      3  N   UNL     1       5.247   3.194  19.283  0.00  0.00    +0.000 NA
ATOM      4  N   UNL     1       4.687   2.519  20.294  0.00  0.00    +0.000 N 
ATOM      5  C   UNL     1       3.385   2.843  20.537  0.00  0.00    +0.000 A 
ATOM      6  C   UNL     1       2.446   2.371  21.451  0.00  0.00    +0.000 A 
ATOM      7  C   UNL     1       1.187   2.957  21.364  0.00  0.00    +0.000 A 
ATOM      8  C   UNL     1       0.954   3.942  20.409  0.00  0.00    +0.000 A 
ATOM      9  N   UNL     1       1.857   4.410  19.514  0.00  0.00    +0.000 NA
ATOM     10  C   UNL     1       3.083   3.825  19.604  0.00  0.00    +0.000 A 
ATOM     11  H   UNL     1       3.472   5.377  17.598  0.00  0.00    +0.000 HD
ATOM     12  H   UNL     1       5.252   1.829  20.773  0.00  0.00    +0.000 HD
ENDROOT
BRANCH   1  16
ATOM     13  C   UNL     1       7.063   4.776  14.541  0.00  0.00    +0.000 A 
ATOM     14  C   UNL     1       5.815   4.171  14.430  0.00  0.00    +0.000 A 
ATOM     15  C   UNL     1       4.904   4.239  15.491  0.00  0.00    +0.000 A 
ATOM     16  C   UNL     1       5.231   4.898  16.688  0.00  0.00    +0.000 A 
ATOM     17  C   UNL     1       6.476   5.534  16.759  0.00  0.00    +0.000 A 
ATOM     18  C   UNL     1       7.389   5.472  15.701  0.00  0.00    +0.000 A 
ENDBRANCH   1  16
TORSDOF 1
ENDMDL
MODEL 7
REMARK VINA RESULT:      -7.0      2.394      5.890
REMARK  Name = 
REMARK  1 active torsions:
REMARK  status: ('A' for Active; 'I' for Inactive)
REMARK    1  A    between atoms: C_4  and  N_5
REMARK                            x       y       z     vdW  Elec       q    Type
REMARK                         _______ _______ _______ _____ _____    ______ ____
ROOT
ATOM      1  N   UNL     1       4.670   5.200  17.955  0.00  0.00    +0.000 N 
ATOM      2  C   UNL     1       3.624   5.190  18.824  0.00  0.00    +0.000 A 
ATOM      3  N   UNL     1       3.345   6.082  19.785  0.00  0.00    +0.000 NA
ATOM      4  N   UNL     1       2.262   5.591  20.399  0.00  0.00    +0.000 N 
ATOM      5  C   UNL     1       1.806   4.413  19.887  0.00  0.00    +0.000 A 
ATOM      6  C   UNL     1       0.755   3.570  20.239  0.00  0.00    +0.000 A 
ATOM      7  C   UNL     1       0.630   2.422  19.462  0.00  0.00    +0.000 A 
ATOM      8  C   UNL     1       1.525   2.198  18.420  0.00  0.00    +0.000 A 
ATOM      9  N   UNL     1       2.551   3.009  18.067  0.00  0.00    +0.000 NA
ATOM     10  C   UNL     1       2.668   4.125  18.838  0.00  0.00    +0.000 A 
ATOM     11  H   UNL     1       4.696   4.428  17.295  0.00  0.00    +0.000 HD
ATOM     12  H   UNL     1       1.888   6.109  21.185  0.00  0.00    +0.000 HD
ENDROOT
BRANCH   1  16
ATOM     13  C   UNL     1       8.265   7.410  18.326  0.00  0.00    +0.000 A 
ATOM     14  C   UNL     1       8.047   6.270  19.094  0.00  0.00    +0.000 A 
ATOM     15  C   UNL     1       6.871   5.528  18.931  0.00  0.00    +0.000 A 
ATOM     16  C   UNL     1       5.887   5.920  18.010  0.00  0.00    +0.000 A 
ATOM     17  C   UNL     1       6.149   7.046  17.220  0.00  0.00    +0.000 A 
ATOM     18  C   UNL     1       7.322   7.791  17.377  0.00  0.00    +0.000 A 
ENDBRANCH   1  16
TORSDOF 1
ENDMDL
MODEL 8
REMARK VINA RESULT:      -7.0      1.148      6.054
REMARK  Name = 
REMARK  1 active torsions:
REMARK  status: ('A' for Active; 'I' for Inactive)
REMARK    1  A    between atoms: C_4  and  N_5
REMARK                            x       y       z     vdW  Elec       q    Type
REMARK                         _______ _______ _______ _____ _____    ______ ____
ROOT
ATOM      1  N   UNL     1       4.378   4.683  17.673  0.00  0.00    +0.000 N 
ATOM      2  C   UNL     1       4.304   3.887  18.774  0.00  0.00    +0.000 A 
ATOM      3  N   UNL     1       5.251   3.080  19.270  0.00  0.00    +0.000 NA
ATOM      4  N   UNL     1       4.668   2.472  20.311  0.00  0.00    +0.000 N 
ATOM      5  C   UNL     1       3.375   2.843  20.531  0.00  0.00    +0.000 A 
ATOM      6  C   UNL     1       2.420   2.444  21.462  0.00  0.00    +0.000 A 
ATOM      7  C   UNL     1       1.178   3.060  21.340  0.00  0.00    +0.000 A 
ATOM      8  C   UNL     1       0.976   4.001  20.335  0.00  0.00    +0.000 A 
ATOM      9  N   UNL     1       1.895   4.399  19.423  0.00  0.00    +0.000 NA
ATOM     10  C   UNL     1       3.104   3.785  19.549  0.00  0.00    +0.000 A 
ATOM     11  H   UNL     1       3.543   5.225  17.470  0.00  0.00    +0.000 HD
ATOM     12  H   UNL     1       5.212   1.792  20.827  0.00  0.00    +0.000 HD
ENDROOT
BRANCH   1  16
ATOM     13  C   UNL     1       7.106   4.811  14.434  0.00  0.00    +0.000 A 
ATOM     14  C   UNL     1       7.446   5.344  15.674  0.00  0.00    +0.000 A 
ATOM     15  C   UNL     1       6.550   5.257  16.746  0.00  0.00    +0.000 A 
ATOM     16  C   UNL     1       5.291   4.652  16.594  0.00  0.00    +0.000 A 
ATOM     17  C   UNL     1       4.990   4.088  15.348  0.00  0.00    +0.000 A 
ATOM     18  C   UNL     1       5.882   4.169  14.274  0.00  0.00    +0.000 A 
ENDBRANCH   1  16
TORSDOF 1
ENDMDL
MODEL 9
REMARK VINA RESULT:      -6.9      2.272      2.604
REMARK  Name = 
REMARK  1 active torsions:
REMARK  status: ('A' for Active; 'I' for Inactive)
REMARK    1  A    between atoms: C_4  and  N_5
REMARK                            x       y       z     vdW  Elec       q    Type
REMARK                         _______ _______ _______ _____ _____    ______ ____
ROOT
ATOM      1  N   UNL     1       3.802   4.848  18.121  0.00  0.00    +0.000 N 
ATOM      2  C   UNL     1       5.085   5.011  18.542  0.00  0.00    +0.000 A 
ATOM      3  N   UNL     1       5.751   4.285  19.450  0.00  0.00    +0.000 NA
ATOM      4  N   UNL     1       6.943   4.883  19.555  0.00  0.00    +0.000 N 
ATOM      5  C   UNL     1       7.101   5.974  18.753  0.00  0.00    +0.000 A 
ATOM      6  C   UNL     1       8.146   6.879  18.579  0.00  0.00    +0.000 A 
ATOM      7  C   UNL     1       7.904   7.893  17.657  0.00  0.00    +0.000 A 
ATOM      8  C   UNL     1       6.684   7.937  16.991  0.00  0.00    +0.000 A 
ATOM      9  N   UNL     1       5.660   7.064  17.150  0.00  0.00    +0.000 NA
ATOM     10  C   UNL     1       5.905   6.081  18.059  0.00  0.00    +0.000 A 
ATOM     11  H   UNL     1       3.488   5.507  17.415  0.00  0.00    +0.000 HD
ATOM     12  H   UNL     1       7.608   4.500  20.216  0.00  0.00    +0.000 HD
ENDROOT
BRANCH   1  16
ATOM     13  C   UNL     1       0.498   2.731  19.716  0.00  0.00    +0.000 A 
ATOM     14  C   UNL     1       1.141   2.286  18.565  0.00  0.00    +0.000 A 
ATOM     15  C   UNL     1       2.256   2.973  18.073  0.00  0.00    +0.000 A 
ATOM     16  C   UNL     1       2.739   4.126  18.713  0.00  0.00    +0.000 A 
ATOM     17  C   UNL     1       2.100   4.529  19.892  0.00  0.00    +0.000 A 
ATOM     18  C   UNL     1       0.987   3.846  20.390  0.00  0.00    +0.000 A 
ENDBRANCH   1  16
TORSDOF 1
ENDMDL
