MODEL 1
REMARK VINA RESULT:      -8.4      0.000      0.000
REMARK  Name = 
REMARK  3 active torsions:
REMARK  status: ('A' for Active; 'I' for Inactive)
REMARK    1  A    between atoms: C_2  and  C_19
REMARK    2  A    between atoms: N_3  and  C_4
REMARK    3  A    between atoms: C_7  and  C_8
REMARK                            x       y       z     vdW  Elec       q    Type
REMARK                         _______ _______ _______ _____ _____    ______ ____
ROOT
ATOM      1  C   UNL     1       8.217   8.309  18.154  0.00  0.00    +0.000 A 
ATOM      2  C   UNL     1       8.442   7.172  18.937  0.00  0.00    +0.000 A 
ATOM      3  C   UNL     1       7.534   6.100  18.929  0.00  0.00    +0.000 A 
ATOM      4  C   UNL     1       6.383   6.157  18.139  0.00  0.00    +0.000 A 
ATOM      5  C   UNL     1       6.160   7.304  17.366  0.00  0.00    +0.000 A 
ATOM      6  C   UNL     1       7.061   8.372  17.376  0.00  0.00    +0.000 A 
ENDROOT
BRANCH   4   7
ATOM      7  C   UNL     1       5.351   5.121  18.154  0.00  0.00    +0.000 A 
ATOM      8  N   UNL     1       4.143   5.276  17.640  0.00  0.00    +0.000 NA
ATOM      9  C   UNL     1       3.447   4.143  17.952  0.00  0.00    +0.000 A 
ATOM     10  C   UNL     1       2.105   3.836  17.704  0.00  0.00    +0.000 A 
ATOM     11  C   UNL     1       1.604   2.615  18.160  0.00  0.00    +0.000 A 
ATOM     12  C   UNL     1       2.432   1.712  18.831  0.00  0.00    +0.000 A 
ATOM     13  C   UNL     1       3.786   1.995  19.069  0.00  0.00    +0.000 A 
ATOM     14  C   UNL     1       4.254   3.232  18.621  0.00  0.00    +0.000 A 
ATOM     15  N   UNL     1       5.474   3.861  18.697  0.00  0.00    +0.000 N 
ATOM     16  H   UNL     1       6.314   3.477  19.105  0.00  0.00    +0.000 HD
ENDBRANCH   4   7
BRANCH   1  19
ATOM     17  O   UNL     1       8.972  10.189  20.303  0.00  0.00    +0.000 OA
ATOM     18  C   UNL     1       9.385  10.274  19.152  0.00  0.00    +0.000 C 
ATOM     19  N   UNL     1       9.088   9.418  18.107  0.00  0.00    +0.000 N 
ATOM     20  H   UNL     1       9.640   9.509  17.263  0.00  0.00    +0.000 HD
BRANCH  18  21
ATOM     21  C   UNL     1      10.358  11.351  18.832  0.00  0.00    +0.000 A 
ATOM     22  C   UNL     1      11.170  11.836  19.867  0.00  0.00    +0.000 A 
ATOM     23  C   UNL     1      12.093  12.851  19.617  0.00  0.00    +0.000 A 
ATOM     24  C   UNL     1      12.201  13.389  18.335  0.00  0.00    +0.000 A 
ATOM     25  C   UNL     1      11.386  12.921  17.306  0.00  0.00    +0.000 A 
ATOM     26  C   UNL     1      10.460  11.903  17.548  0.00  0.00    +0.000 A 
ENDBRANCH  18  21
ENDBRANCH   1  19
TORSDOF 3
ENDMDL
MODEL 2
REMARK VINA RESULT:      -8.0      7.391      9.111
REMARK  Name = 
REMARK  3 active torsions:
REMARK  status: ('A' for Active; 'I' for Inactive)
REMARK    1  A    between atoms: C_2  and  C_19
REMARK    2  A    between atoms: N_3  and  C_4
REMARK    3  A    between atoms: C_7  and  C_8
REMARK                            x       y       z     vdW  Elec       q    Type
REMARK                         _______ _______ _______ _____ _____    ______ ____
ROOT
ATOM      1  C   UNL     1       0.245   9.870  20.704  0.00  0.00    +0.000 A 
ATOM      2  C   UNL     1       0.519  10.146  19.360  0.00  0.00    +0.000 A 
ATOM      3  C   UNL     1       1.317   9.280  18.594  0.00  0.00    +0.000 A 
ATOM      4  C   UNL     1       1.856   8.127  19.168  0.00  0.00    +0.000 A 
ATOM      5  C   UNL     1       1.586   7.862  20.518  0.00  0.00    +0.000 A 
ATOM      6  C   UNL     1       0.795   8.725  21.281  0.00  0.00    +0.000 A 
ENDROOT
BRANCH   4   7
ATOM      7  C   UNL     1       2.769   7.232  18.458  0.00  0.00    +0.000 A 
ATOM      8  N   UNL     1       3.677   7.642  17.590  0.00  0.00    +0.000 NA
ATOM      9  C   UNL     1       4.240   6.515  17.063  0.00  0.00    +0.000 A 
ATOM     10  C   UNL     1       5.200   6.398  16.052  0.00  0.00    +0.000 A 
ATOM     11  C   UNL     1       5.595   5.119  15.651  0.00  0.00    +0.000 A 
ATOM     12  C   UNL     1       5.057   3.984  16.263  0.00  0.00    +0.000 A 
ATOM     13  C   UNL     1       4.110   4.084  17.293  0.00  0.00    +0.000 A 
ATOM     14  C   UNL     1       3.718   5.374  17.658  0.00  0.00    +0.000 A 
ATOM     15  N   UNL     1       2.815   5.861  18.574  0.00  0.00    +0.000 N 
ATOM     16  H   UNL     1       2.259   5.306  19.209  0.00  0.00    +0.000 HD
ENDBRANCH   4   7
BRANCH   1  19
ATOM     17  O   UNL     1       0.754  12.614  21.670  0.00  0.00    +0.000 OA
ATOM     18  C   UNL     1      -0.245  11.966  21.963  0.00  0.00    +0.000 C 
ATOM     19  N   UNL     1      -0.553  10.689  21.530  0.00  0.00    +0.000 N 
ATOM     20  H   UNL     1      -1.491  10.353  21.710  0.00  0.00    +0.000 HD
BRANCH  18  21
ATOM     21  C   UNL     1      -1.281  12.616  22.809  0.00  0.00    +0.000 A 
ATOM     22  C   UNL     1      -2.469  11.914  23.055  0.00  0.00    +0.000 A 
ATOM     23  C   UNL     1      -3.472  12.486  23.836  0.00  0.00    +0.000 A 
ATOM     24  C   UNL     1      -3.294  13.762  24.368  0.00  0.00    +0.000 A 
ATOM     25  C   UNL     1      -2.120  14.470  24.114  0.00  0.00    +0.000 A 
ATOM     26  C   UNL     1      -1.110  13.904  23.334  0.00  0.00    +0.000 A 
ENDBRANCH  18  21
ENDBRANCH   1  19
TORSDOF 3
ENDMDL
MODEL 3
REMARK VINA RESULT:      -7.9      7.319      9.010
REMARK  Name = 
REMARK  3 active torsions:
REMARK  status: ('A' for Active; 'I' for Inactive)
REMARK    1  A    between atoms: C_2  and  C_19
REMARK    2  A    between atoms: N_3  and  C_4
REMARK    3  A    between atoms: C_7  and  C_8
REMARK                            x       y       z     vdW  Elec       q    Type
REMARK                         _______ _______ _______ _____ _____    ______ ____
ROOT
ATOM      1  C   UNL     1       0.295   9.839  20.547  0.00  0.00    +0.000 A 
ATOM      2  C   UNL     1       0.478  10.031  19.173  0.00  0.00    +0.000 A 
ATOM      3  C   UNL     1       1.289   9.163  18.425  0.00  0.00    +0.000 A 
ATOM      4  C   UNL     1       1.935   8.091  19.046  0.00  0.00    +0.000 A 
ATOM      5  C   UNL     1       1.755   7.911  20.424  0.00  0.00    +0.000 A 
ATOM      6  C   UNL     1       0.951   8.776  21.170  0.00  0.00    +0.000 A 
ENDROOT
BRANCH   4   7
ATOM      7  C   UNL     1       2.866   7.205  18.348  0.00  0.00    +0.000 A 
ATOM      8  N   UNL     1       3.780   7.624  17.491  0.00  0.00    +0.000 NA
ATOM      9  C   UNL     1       4.361   6.502  16.973  0.00  0.00    +0.000 A 
ATOM     10  C   UNL     1       5.334   6.393  15.973  0.00  0.00    +0.000 A 
ATOM     11  C   UNL     1       5.748   5.119  15.580  0.00  0.00    +0.000 A 
ATOM     12  C   UNL     1       5.217   3.979  16.188  0.00  0.00    +0.000 A 
ATOM     13  C   UNL     1       4.256   4.071  17.208  0.00  0.00    +0.000 A 
ATOM     14  C   UNL     1       3.845   5.357  17.564  0.00  0.00    +0.000 A 
ATOM     15  N   UNL     1       2.926   5.835  18.469  0.00  0.00    +0.000 N 
ATOM     16  H   UNL     1       2.369   5.275  19.098  0.00  0.00    +0.000 HD
ENDBRANCH   4   7
BRANCH   1  19
ATOM     17  O   UNL     1       0.849  12.543  21.595  0.00  0.00    +0.000 OA
ATOM     18  C   UNL     1      -0.181  11.921  21.833  0.00  0.00    +0.000 C 
ATOM     19  N   UNL     1      -0.510  10.665  21.358  0.00  0.00    +0.000 N 
ATOM     20  H   UNL     1      -1.465  10.356  21.492  0.00  0.00    +0.000 HD
BRANCH  18  21
ATOM     21  C   UNL     1      -1.230  12.586  22.651  0.00  0.00    +0.000 A 
ATOM     22  C   UNL     1      -0.947  13.849  23.189  0.00  0.00    +0.000 A 
ATOM     23  C   UNL     1      -1.896  14.507  23.970  0.00  0.00    +0.000 A 
ATOM     24  C   UNL     1      -3.127  13.903  24.219  0.00  0.00    +0.000 A 
ATOM     25  C   UNL     1      -3.408  12.641  23.699  0.00  0.00    +0.000 A 
ATOM     26  C   UNL     1      -2.463  11.975  22.915  0.00  0.00    +0.000 A 
ENDBRANCH  18  21
ENDBRANCH   1  19
TORSDOF 3
ENDMDL
MODEL 4
REMARK VINA RESULT:      -7.9      7.489      9.210
REMARK  Name = 
REMARK  3 active torsions:
REMARK  status: ('A' for Active; 'I' for Inactive)
REMARK    1  A    between atoms: C_2  and  C_19
REMARK    2  A    between atoms: N_3  and  C_4
REMARK    3  A    between atoms: C_7  and  C_8
REMARK                            x       y       z     vdW  Elec       q    Type
REMARK                         _______ _______ _______ _____ _____    ______ ____
ROOT
ATOM      1  C   UNL     1       0.204   9.740  21.083  0.00  0.00    +0.000 A 
ATOM      2  C   UNL     1       0.780   8.575  21.601  0.00  0.00    +0.000 A 
ATOM      3  C   UNL     1       1.604   7.763  20.805  0.00  0.00    +0.000 A 
ATOM      4  C   UNL     1       1.857   8.105  19.474  0.00  0.00    +0.000 A 
ATOM      5  C   UNL     1       1.268   9.268  18.960  0.00  0.00    +0.000 A 
ATOM      6  C   UNL     1       0.446  10.074  19.750  0.00  0.00    +0.000 A 
ENDROOT
BRANCH   4   7
ATOM      7  C   UNL     1       2.627   7.258  18.564  0.00  0.00    +0.000 A 
ATOM      8  N   UNL     1       2.544   5.940  18.535  0.00  0.00    +0.000 NA
ATOM      9  C   UNL     1       3.490   5.517  17.646  0.00  0.00    +0.000 A 
ATOM     10  C   UNL     1       3.860   4.211  17.305  0.00  0.00    +0.000 A 
ATOM     11  C   UNL     1       4.897   4.028  16.388  0.00  0.00    +0.000 A 
ATOM     12  C   UNL     1       5.536   5.126  15.808  0.00  0.00    +0.000 A 
ATOM     13  C   UNL     1       5.163   6.443  16.122  0.00  0.00    +0.000 A 
ATOM     14  C   UNL     1       4.138   6.595  17.058  0.00  0.00    +0.000 A 
ATOM     15  N   UNL     1       3.538   7.694  17.628  0.00  0.00    +0.000 N 
ATOM     16  H   UNL     1       3.748   8.658  17.415  0.00  0.00    +0.000 HD
ENDBRANCH   4   7
BRANCH   1  19
ATOM     17  O   UNL     1       0.640  12.563  21.835  0.00  0.00    +0.000 OA
ATOM     18  C   UNL     1      -0.352  11.919  22.161  0.00  0.00    +0.000 C 
ATOM     19  N   UNL     1      -0.626  10.606  21.826  0.00  0.00    +0.000 N 
ATOM     20  H   UNL     1      -1.561  10.266  22.014  0.00  0.00    +0.000 HD
BRANCH  18  21
ATOM     21  C   UNL     1      -1.417  12.613  22.932  0.00  0.00    +0.000 A 
ATOM     22  C   UNL     1      -2.596  11.909  23.211  0.00  0.00    +0.000 A 
ATOM     23  C   UNL     1      -3.626  12.520  23.924  0.00  0.00    +0.000 A 
ATOM     24  C   UNL     1      -3.484  13.838  24.354  0.00  0.00    +0.000 A 
ATOM     25  C   UNL     1      -2.319  14.549  24.066  0.00  0.00    +0.000 A 
ATOM     26  C   UNL     1      -1.282  13.943  23.353  0.00  0.00    +0.000 A 
ENDBRANCH  18  21
ENDBRANCH   1  19
TORSDOF 3
ENDMDL
MODEL 5
REMARK VINA RESULT:      -7.9      7.056      8.819
REMARK  Name = 
REMARK  3 active torsions:
REMARK  status: ('A' for Active; 'I' for Inactive)
REMARK    1  A    between atoms: C_2  and  C_19
REMARK    2  A    between atoms: N_3  and  C_4
REMARK    3  A    between atoms: C_7  and  C_8
REMARK                            x       y       z     vdW  Elec       q    Type
REMARK                         _______ _______ _______ _____ _____    ______ ____
ROOT
ATOM      1  C   UNL     1       0.518   9.734  20.288  0.00  0.00    +0.000 A 
ATOM      2  C   UNL     1       0.745   9.979  18.929  0.00  0.00    +0.000 A 
ATOM      3  C   UNL     1       1.523   9.100  18.158  0.00  0.00    +0.000 A 
ATOM      4  C   UNL     1       2.092   7.966  18.741  0.00  0.00    +0.000 A 
ATOM      5  C   UNL     1       1.869   7.732  20.105  0.00  0.00    +0.000 A 
ATOM      6  C   UNL     1       1.097   8.608  20.873  0.00  0.00    +0.000 A 
ENDROOT
BRANCH   4   7
ATOM      7  C   UNL     1       2.988   7.061  18.022  0.00  0.00    +0.000 A 
ATOM      8  N   UNL     1       2.827   5.750  17.972  0.00  0.00    +0.000 NA
ATOM      9  C   UNL     1       3.917   5.256  17.315  0.00  0.00    +0.000 A 
ATOM     10  C   UNL     1       4.267   3.925  17.062  0.00  0.00    +0.000 A 
ATOM     11  C   UNL     1       5.467   3.665  16.397  0.00  0.00    +0.000 A 
ATOM     12  C   UNL     1       6.289   4.713  15.975  0.00  0.00    +0.000 A 
ATOM     13  C   UNL     1       5.943   6.054  16.202  0.00  0.00    +0.000 A 
ATOM     14  C   UNL     1       4.748   6.283  16.888  0.00  0.00    +0.000 A 
ATOM     15  N   UNL     1       4.110   7.425  17.313  0.00  0.00    +0.000 N 
ATOM     16  H   UNL     1       4.424   8.371  17.154  0.00  0.00    +0.000 HD
ENDBRANCH   4   7
BRANCH   1  19
ATOM     17  O   UNL     1       1.154  12.403  21.379  0.00  0.00    +0.000 OA
ATOM     18  C   UNL     1       0.109  11.806  21.614  0.00  0.00    +0.000 C 
ATOM     19  N   UNL     1      -0.258  10.567  21.120  0.00  0.00    +0.000 N 
ATOM     20  H   UNL     1      -1.220  10.282  21.256  0.00  0.00    +0.000 HD
BRANCH  18  21
ATOM     21  C   UNL     1      -0.915  12.484  22.452  0.00  0.00    +0.000 A 
ATOM     22  C   UNL     1      -2.066  11.764  22.800  0.00  0.00    +0.000 A 
ATOM     23  C   UNL     1      -3.058  12.360  23.578  0.00  0.00    +0.000 A 
ATOM     24  C   UNL     1      -2.905  13.679  24.003  0.00  0.00    +0.000 A 
ATOM     25  C   UNL     1      -1.770  14.404  23.647  0.00  0.00    +0.000 A 
ATOM     26  C   UNL     1      -0.771  13.814  22.870  0.00  0.00    +0.000 A 
ENDBRANCH  18  21
ENDBRANCH   1  19
TORSDOF 3
ENDMDL
MODEL 6
REMARK VINA RESULT:      -7.8      0.417      1.556
REMARK  Name = 
REMARK  3 active torsions:
REMARK  status: ('A' for Active; 'I' for Inactive)
REMARK    1  A    between atoms: C_2  and  C_19
REMARK    2  A    between atoms: N_3  and  C_4
REMARK    3  A    between atoms: C_7  and  C_8
REMARK                            x       y       z     vdW  Elec       q    Type
REMARK                         _______ _______ _______ _____ _____    ______ ____
ROOT
ATOM      1  C   UNL     1       8.294   8.418  18.175  0.00  0.00    +0.000 A 
ATOM      2  C   UNL     1       8.568   7.279  18.940  0.00  0.00    +0.000 A 
ATOM      3  C   UNL     1       7.673   6.196  18.968  0.00  0.00    +0.000 A 
ATOM      4  C   UNL     1       6.486   6.245  18.233  0.00  0.00    +0.000 A 
ATOM      5  C   UNL     1       6.213   7.394  17.478  0.00  0.00    +0.000 A 
ATOM      6  C   UNL     1       7.102   8.472  17.453  0.00  0.00    +0.000 A 
ENDROOT
BRANCH   4   7
ATOM      7  C   UNL     1       5.468   5.197  18.290  0.00  0.00    +0.000 A 
ATOM      8  N   UNL     1       5.496   4.186  19.140  0.00  0.00    +0.000 NA
ATOM      9  C   UNL     1       4.451   3.374  18.804  0.00  0.00    +0.000 A 
ATOM     10  C   UNL     1       4.085   2.137  19.346  0.00  0.00    +0.000 A 
ATOM     11  C   UNL     1       2.987   1.468  18.801  0.00  0.00    +0.000 A 
ATOM     12  C   UNL     1       2.258   2.033  17.752  0.00  0.00    +0.000 A 
ATOM     13  C   UNL     1       2.599   3.282  17.211  0.00  0.00    +0.000 A 
ATOM     14  C   UNL     1       3.714   3.918  17.761  0.00  0.00    +0.000 A 
ATOM     15  N   UNL     1       4.357   5.101  17.481  0.00  0.00    +0.000 N 
ATOM     16  H   UNL     1       4.078   5.775  16.783  0.00  0.00    +0.000 HD
ENDBRANCH   4   7
BRANCH   1  19
ATOM     17  O   UNL     1       8.931  10.440  20.231  0.00  0.00    +0.000 OA
ATOM     18  C   UNL     1       9.390  10.461  19.095  0.00  0.00    +0.000 C 
ATOM     19  N   UNL     1       9.150   9.537  18.094  0.00  0.00    +0.000 N 
ATOM     20  H   UNL     1       9.734   9.585  17.269  0.00  0.00    +0.000 HD
BRANCH  18  21
ATOM     21  C   UNL     1      10.360  11.533  18.748  0.00  0.00    +0.000 A 
ATOM     22  C   UNL     1      10.192  12.208  17.531  0.00  0.00    +0.000 A 
ATOM     23  C   UNL     1      11.081  13.215  17.159  0.00  0.00    +0.000 A 
ATOM     24  C   UNL     1      12.143  13.547  17.999  0.00  0.00    +0.000 A 
ATOM     25  C   UNL     1      12.324  12.869  19.203  0.00  0.00    +0.000 A 
ATOM     26  C   UNL     1      11.437  11.859  19.584  0.00  0.00    +0.000 A 
ENDBRANCH  18  21
ENDBRANCH   1  19
TORSDOF 3
ENDMDL
MODEL 7
REMARK VINA RESULT:      -7.8      6.836      8.749
REMARK  Name = 
REMARK  3 active torsions:
REMARK  status: ('A' for Active; 'I' for Inactive)
REMARK    1  A    between atoms: C_2  and  C_19
REMARK    2  A    between atoms: N_3  and  C_4
REMARK    3  A    between atoms: C_7  and  C_8
REMARK                            x       y       z     vdW  Elec       q    Type
REMARK                         _______ _______ _______ _____ _____    ______ ____
ROOT
ATOM      1  C   UNL     1       0.604   9.315  20.022  0.00  0.00    +0.000 A 
ATOM      2  C   UNL     1       1.194   8.233  20.684  0.00  0.00    +0.000 A 
ATOM      3  C   UNL     1       2.139   7.420  20.037  0.00  0.00    +0.000 A 
ATOM      4  C   UNL     1       2.500   7.676  18.713  0.00  0.00    +0.000 A 
ATOM      5  C   UNL     1       1.897   8.756  18.052  0.00  0.00    +0.000 A 
ATOM      6  C   UNL     1       0.955   9.563  18.694  0.00  0.00    +0.000 A 
ENDROOT
BRANCH   4   7
ATOM      7  C   UNL     1       3.405   6.817  17.950  0.00  0.00    +0.000 A 
ATOM      8  N   UNL     1       4.225   7.258  17.012  0.00  0.00    +0.000 NA
ATOM      9  C   UNL     1       4.806   6.152  16.462  0.00  0.00    +0.000 A 
ATOM     10  C   UNL     1       5.695   6.065  15.384  0.00  0.00    +0.000 A 
ATOM     11  C   UNL     1       6.127   4.802  14.974  0.00  0.00    +0.000 A 
ATOM     12  C   UNL     1       5.696   3.652  15.640  0.00  0.00    +0.000 A 
ATOM     13  C   UNL     1       4.822   3.722  16.736  0.00  0.00    +0.000 A 
ATOM     14  C   UNL     1       4.390   4.996  17.110  0.00  0.00    +0.000 A 
ATOM     15  N   UNL     1       3.532   5.452  18.083  0.00  0.00    +0.000 N 
ATOM     16  H   UNL     1       3.054   4.881  18.765  0.00  0.00    +0.000 HD
ENDBRANCH   4   7
BRANCH   1  19
ATOM     17  O   UNL     1       1.028  11.845  21.485  0.00  0.00    +0.000 OA
ATOM     18  C   UNL     1      -0.076  11.344  21.302  0.00  0.00    +0.000 C 
ATOM     19  N   UNL     1      -0.345  10.177  20.610  0.00  0.00    +0.000 N 
ATOM     20  H   UNL     1      -1.314   9.983  20.389  0.00  0.00    +0.000 HD
BRANCH  18  21
ATOM     21  C   UNL     1      -1.271  12.076  21.799  0.00  0.00    +0.000 A 
ATOM     22  C   UNL     1      -1.864  11.641  22.991  0.00  0.00    +0.000 A 
ATOM     23  C   UNL     1      -2.991  12.291  23.492  0.00  0.00    +0.000 A 
ATOM     24  C   UNL     1      -3.532  13.373  22.800  0.00  0.00    +0.000 A 
ATOM     25  C   UNL     1      -2.955  13.801  21.605  0.00  0.00    +0.000 A 
ATOM     26  C   UNL     1      -1.825  13.156  21.097  0.00  0.00    +0.000 A 
ENDBRANCH  18  21
ENDBRANCH   1  19
TORSDOF 3
ENDMDL
MODEL 8
REMARK VINA RESULT:      -7.8      7.216      8.946
REMARK  Name = 
REMARK  3 active torsions:
REMARK  status: ('A' for Active; 'I' for Inactive)
REMARK    1  A    between atoms: C_2  and  C_19
REMARK    2  A    between atoms: N_3  and  C_4
REMARK    3  A    between atoms: C_7  and  C_8
REMARK                            x       y       z     vdW  Elec       q    Type
REMARK                         _______ _______ _______ _____ _____    ______ ____
ROOT
ATOM      1  C   UNL     1       0.333   9.824  20.372  0.00  0.00    +0.000 A 
ATOM      2  C   UNL     1       0.508  10.032  19.000  0.00  0.00    +0.000 A 
ATOM      3  C   UNL     1       1.296   9.159  18.232  0.00  0.00    +0.000 A 
ATOM      4  C   UNL     1       1.928   8.068  18.834  0.00  0.00    +0.000 A 
ATOM      5  C   UNL     1       1.756   7.872  20.211  0.00  0.00    +0.000 A 
ATOM      6  C   UNL     1       0.974   8.742  20.975  0.00  0.00    +0.000 A 
ENDROOT
BRANCH   4   7
ATOM      7  C   UNL     1       2.836   7.175  18.116  0.00  0.00    +0.000 A 
ATOM      8  N   UNL     1       2.699   5.861  18.074  0.00  0.00    +0.000 NA
ATOM      9  C   UNL     1       3.795   5.383  17.415  0.00  0.00    +0.000 A 
ATOM     10  C   UNL     1       4.167   4.057  17.167  0.00  0.00    +0.000 A 
ATOM     11  C   UNL     1       5.369   3.814  16.499  0.00  0.00    +0.000 A 
ATOM     12  C   UNL     1       6.170   4.874  16.068  0.00  0.00    +0.000 A 
ATOM     13  C   UNL     1       5.801   6.210  16.289  0.00  0.00    +0.000 A 
ATOM     14  C   UNL     1       4.606   6.422  16.979  0.00  0.00    +0.000 A 
ATOM     15  N   UNL     1       3.949   7.555  17.400  0.00  0.00    +0.000 N 
ATOM     16  H   UNL     1       4.246   8.506  17.235  0.00  0.00    +0.000 HD
ENDBRANCH   4   7
BRANCH   1  19
ATOM     17  O   UNL     1       0.995  12.448  21.554  0.00  0.00    +0.000 OA
ATOM     18  C   UNL     1      -0.070  11.870  21.740  0.00  0.00    +0.000 C 
ATOM     19  N   UNL     1      -0.450  10.654  21.201  0.00  0.00    +0.000 N 
ATOM     20  H   UNL     1      -1.422  10.388  21.299  0.00  0.00    +0.000 HD
BRANCH  18  21
ATOM     21  C   UNL     1      -1.104  12.551  22.563  0.00  0.00    +0.000 A 
ATOM     22  C   UNL     1      -0.858  13.866  22.979  0.00  0.00    +0.000 A 
ATOM     23  C   UNL     1      -1.795  14.542  23.760  0.00  0.00    +0.000 A 
ATOM     24  C   UNL     1      -2.977  13.903  24.131  0.00  0.00    +0.000 A 
ATOM     25  C   UNL     1      -3.221  12.590  23.732  0.00  0.00    +0.000 A 
ATOM     26  C   UNL     1      -2.288  11.906  22.950  0.00  0.00    +0.000 A 
ENDBRANCH  18  21
ENDBRANCH   1  19
TORSDOF 3
ENDMDL
MODEL 9
REMARK VINA RESULT:      -7.8      7.075      8.866
REMARK  Name = 
REMARK  3 active torsions:
REMARK  status: ('A' for Active; 'I' for Inactive)
REMARK    1  A    between atoms: C_2  and  C_19
REMARK    2  A    between atoms: N_3  and  C_4
REMARK    3  A    between atoms: C_7  and  C_8
REMARK                            x       y       z     vdW  Elec       q    Type
REMARK                         _______ _______ _______ _____ _____    ______ ____
ROOT
ATOM      1  C   UNL     1       0.465   9.481  20.521  0.00  0.00    +0.000 A 
ATOM      2  C   UNL     1       1.020   8.334  21.096  0.00  0.00    +0.000 A 
ATOM      3  C   UNL     1       1.882   7.503  20.361  0.00  0.00    +0.000 A 
ATOM      4  C   UNL     1       2.193   7.809  19.034  0.00  0.00    +0.000 A 
ATOM      5  C   UNL     1       1.625   8.955  18.462  0.00  0.00    +0.000 A 
ATOM      6  C   UNL     1       0.765   9.780  19.192  0.00  0.00    +0.000 A 
ENDROOT
BRANCH   4   7
ATOM      7  C   UNL     1       3.006   6.941  18.183  0.00  0.00    +0.000 A 
ATOM      8  N   UNL     1       2.873   5.627  18.129  0.00  0.00    +0.000 NA
ATOM      9  C   UNL     1       3.877   5.175  17.321  0.00  0.00    +0.000 A 
ATOM     10  C   UNL     1       4.222   3.858  16.996  0.00  0.00    +0.000 A 
ATOM     11  C   UNL     1       5.328   3.642  16.171  0.00  0.00    +0.000 A 
ATOM     12  C   UNL     1       6.058   4.719  15.663  0.00  0.00    +0.000 A 
ATOM     13  C   UNL     1       5.712   6.046  15.962  0.00  0.00    +0.000 A 
ATOM     14  C   UNL     1       4.616   6.231  16.807  0.00  0.00    +0.000 A 
ATOM     15  N   UNL     1       4.013   7.348  17.336  0.00  0.00    +0.000 N 
ATOM     16  H   UNL     1       4.279   8.305  17.156  0.00  0.00    +0.000 HD
ENDBRANCH   4   7
BRANCH   1  19
ATOM     17  O   UNL     1       1.015  12.169  21.616  0.00  0.00    +0.000 OA
ATOM     18  C   UNL     1      -0.071  11.608  21.707  0.00  0.00    +0.000 C 
ATOM     19  N   UNL     1      -0.400  10.364  21.201  0.00  0.00    +0.000 N 
ATOM     20  H   UNL     1      -1.380  10.110  21.199  0.00  0.00    +0.000 HD
BRANCH  18  21
ATOM     21  C   UNL     1      -1.188  12.343  22.360  0.00  0.00    +0.000 A 
ATOM     22  C   UNL     1      -1.199  13.741  22.272  0.00  0.00    +0.000 A 
ATOM     23  C   UNL     1      -2.221  14.474  22.876  0.00  0.00    +0.000 A 
ATOM     24  C   UNL     1      -3.230  13.811  23.572  0.00  0.00    +0.000 A 
ATOM     25  C   UNL     1      -3.215  12.421  23.675  0.00  0.00    +0.000 A 
ATOM     26  C   UNL     1      -2.196  11.680  23.073  0.00  0.00    +0.000 A 
ENDBRANCH  18  21
ENDBRANCH   1  19
TORSDOF 3
ENDMDL
