MODEL 1
REMARK VINA RESULT:      -6.6      0.000      0.000
REMARK  Name = 
REMARK  3 active torsions:
REMARK  status: ('A' for Active; 'I' for Inactive)
REMARK    1  A    between atoms: C_5  and  S_6
REMARK    2  A    between atoms: S_6  and  C_7
REMARK    3  A    between atoms: C_7  and  C_8
REMARK                            x       y       z     vdW  Elec       q    Type
REMARK                         _______ _______ _______ _____ _____    ______ ____
ROOT
ATOM      1  C   UNL     1       7.679   6.391  18.661  0.00  0.00    +0.000 A 
ATOM      2  C   UNL     1       6.882   5.553  19.407  0.00  0.00    +0.000 A 
ATOM      3  N   UNL     1       5.997   4.684  18.871  0.00  0.00    +0.000 NA
ATOM      4  C   UNL     1       5.863   4.613  17.524  0.00  0.00    +0.000 A 
ATOM      5  C   UNL     1       4.937   3.742  16.905  0.00  0.00    +0.000 A 
ATOM      6  C   UNL     1       4.824   3.698  15.505  0.00  0.00    +0.000 A 
ATOM      7  C   UNL     1       5.625   4.506  14.703  0.00  0.00    +0.000 A 
ATOM      8  C   UNL     1       6.534   5.376  15.292  0.00  0.00    +0.000 A 
ATOM      9  C   UNL     1       6.657   5.437  16.688  0.00  0.00    +0.000 A 
ATOM     10  C   UNL     1       7.564   6.328  17.280  0.00  0.00    +0.000 A 
ENDROOT
BRANCH   5  11
ATOM     11  S   UNL     1       3.805   2.787  17.946  0.00  0.00    +0.000 S 
BRANCH  11  12
ATOM     12  C   UNL     1       2.214   3.656  17.758  0.00  0.00    +0.000 C 
BRANCH  12  13
ATOM     13  C   UNL     1       2.211   4.926  18.574  0.00  0.00    +0.000 A 
ATOM     14  C   UNL     1       1.854   4.907  19.928  0.00  0.00    +0.000 A 
ATOM     15  C   UNL     1       1.819   6.105  20.626  0.00  0.00    +0.000 A 
ATOM     16  N   UNL     1       2.114   7.302  20.080  0.00  0.00    +0.000 NA
ATOM     17  C   UNL     1       2.443   7.303  18.771  0.00  0.00    +0.000 A 
ATOM     18  C   UNL     1       2.504   6.160  17.988  0.00  0.00    +0.000 A 
ENDBRANCH  12  13
ENDBRANCH  11  12
ENDBRANCH   5  11
TORSDOF 3
ENDMDL
MODEL 2
REMARK VINA RESULT:      -6.6      0.598      1.241
REMARK  Name = 
REMARK  3 active torsions:
REMARK  status: ('A' for Active; 'I' for Inactive)
REMARK    1  A    between atoms: C_5  and  S_6
REMARK    2  A    between atoms: S_6  and  C_7
REMARK    3  A    between atoms: C_7  and  C_8
REMARK                            x       y       z     vdW  Elec       q    Type
REMARK                         _______ _______ _______ _____ _____    ______ ____
ROOT
ATOM      1  C   UNL     1       7.995   6.609  18.652  0.00  0.00    +0.000 A 
ATOM      2  C   UNL     1       7.368   5.808  19.579  0.00  0.00    +0.000 A 
ATOM      3  N   UNL     1       6.395   4.924  19.272  0.00  0.00    +0.000 NA
ATOM      4  C   UNL     1       5.990   4.798  17.984  0.00  0.00    +0.000 A 
ATOM      5  C   UNL     1       4.959   3.908  17.603  0.00  0.00    +0.000 A 
ATOM      6  C   UNL     1       4.563   3.807  16.258  0.00  0.00    +0.000 A 
ATOM      7  C   UNL     1       5.182   4.576  15.277  0.00  0.00    +0.000 A 
ATOM      8  C   UNL     1       6.190   5.464  15.632  0.00  0.00    +0.000 A 
ATOM      9  C   UNL     1       6.595   5.581  16.970  0.00  0.00    +0.000 A 
ATOM     10  C   UNL     1       7.601   6.491  17.328  0.00  0.00    +0.000 A 
ENDROOT
BRANCH   5  11
ATOM     11  S   UNL     1       4.065   3.004  18.892  0.00  0.00    +0.000 S 
BRANCH  11  12
ATOM     12  C   UNL     1       2.340   3.557  18.686  0.00  0.00    +0.000 C 
BRANCH  12  13
ATOM     13  C   UNL     1       2.199   5.001  19.104  0.00  0.00    +0.000 A 
ATOM     14  C   UNL     1       2.468   6.037  18.202  0.00  0.00    +0.000 A 
ATOM     15  C   UNL     1       2.372   7.348  18.643  0.00  0.00    +0.000 A 
ATOM     16  N   UNL     1       2.028   7.695  19.901  0.00  0.00    +0.000 NA
ATOM     17  C   UNL     1       1.785   6.683  20.760  0.00  0.00    +0.000 A 
ATOM     18  C   UNL     1       1.856   5.341  20.415  0.00  0.00    +0.000 A 
ENDBRANCH  12  13
ENDBRANCH  11  12
ENDBRANCH   5  11
TORSDOF 3
ENDMDL
MODEL 3
REMARK VINA RESULT:      -6.6      1.780      5.185
REMARK  Name = 
REMARK  3 active torsions:
REMARK  status: ('A' for Active; 'I' for Inactive)
REMARK    1  A    between atoms: C_5  and  S_6
REMARK    2  A    between atoms: S_6  and  C_7
REMARK    3  A    between atoms: C_7  and  C_8
REMARK                            x       y       z     vdW  Elec       q    Type
REMARK                         _______ _______ _______ _____ _____    ______ ____
ROOT
ATOM      1  C   UNL     1       2.297   3.171  21.402  0.00  0.00    +0.000 A 
ATOM      2  C   UNL     1       3.066   2.504  20.476  0.00  0.00    +0.000 A 
ATOM      3  N   UNL     1       3.551   3.073  19.352  0.00  0.00    +0.000 NA
ATOM      4  C   UNL     1       3.279   4.377  19.094  0.00  0.00    +0.000 A 
ATOM      5  C   UNL     1       3.737   5.023  17.922  0.00  0.00    +0.000 A 
ATOM      6  C   UNL     1       3.433   6.374  17.687  0.00  0.00    +0.000 A 
ATOM      7  C   UNL     1       2.682   7.103  18.604  0.00  0.00    +0.000 A 
ATOM      8  C   UNL     1       2.214   6.484  19.757  0.00  0.00    +0.000 A 
ATOM      9  C   UNL     1       2.503   5.134  20.006  0.00  0.00    +0.000 A 
ATOM     10  C   UNL     1       2.015   4.507  21.162  0.00  0.00    +0.000 A 
ENDROOT
BRANCH   5  11
ATOM     11  S   UNL     1       4.603   4.046  16.667  0.00  0.00    +0.000 S 
BRANCH  11  12
ATOM     12  C   UNL     1       5.765   5.237  15.924  0.00  0.00    +0.000 C 
BRANCH  12  13
ATOM     13  C   UNL     1       6.633   5.859  16.991  0.00  0.00    +0.000 A 
ATOM     14  C   UNL     1       6.986   7.211  16.928  0.00  0.00    +0.000 A 
ATOM     15  C   UNL     1       7.825   7.728  17.905  0.00  0.00    +0.000 A 
ATOM     16  N   UNL     1       8.326   7.003  18.927  0.00  0.00    +0.000 NA
ATOM     17  C   UNL     1       7.985   5.698  18.963  0.00  0.00    +0.000 A 
ATOM     18  C   UNL     1       7.155   5.088  18.034  0.00  0.00    +0.000 A 
ENDBRANCH  12  13
ENDBRANCH  11  12
ENDBRANCH   5  11
TORSDOF 3
ENDMDL
MODEL 4
REMARK VINA RESULT:      -6.4      2.018      5.365
REMARK  Name = 
REMARK  3 active torsions:
REMARK  status: ('A' for Active; 'I' for Inactive)
REMARK    1  A    between atoms: C_5  and  S_6
REMARK    2  A    between atoms: S_6  and  C_7
REMARK    3  A    between atoms: C_7  and  C_8
REMARK                            x       y       z     vdW  Elec       q    Type
REMARK                         _______ _______ _______ _____ _____    ______ ____
ROOT
ATOM      1  C   UNL     1       1.805   2.658  21.747  0.00  0.00    +0.000 A 
ATOM      2  C   UNL     1       2.141   3.990  21.825  0.00  0.00    +0.000 A 
ATOM      3  N   UNL     1       2.481   4.743  20.758  0.00  0.00    +0.000 NA
ATOM      4  C   UNL     1       2.503   4.181  19.524  0.00  0.00    +0.000 A 
ATOM      5  C   UNL     1       2.875   4.911  18.371  0.00  0.00    +0.000 A 
ATOM      6  C   UNL     1       2.889   4.294  17.109  0.00  0.00    +0.000 A 
ATOM      7  C   UNL     1       2.533   2.956  16.970  0.00  0.00    +0.000 A 
ATOM      8  C   UNL     1       2.175   2.218  18.091  0.00  0.00    +0.000 A 
ATOM      9  C   UNL     1       2.160   2.816  19.360  0.00  0.00    +0.000 A 
ATOM     10  C   UNL     1       1.814   2.065  20.492  0.00  0.00    +0.000 A 
ENDROOT
BRANCH   5  11
ATOM     11  S   UNL     1       3.462   6.612  18.566  0.00  0.00    +0.000 S 
BRANCH  11  12
ATOM     12  C   UNL     1       4.369   6.933  17.018  0.00  0.00    +0.000 C 
BRANCH  12  13
ATOM     13  C   UNL     1       5.617   6.085  16.956  0.00  0.00    +0.000 A 
ATOM     14  C   UNL     1       5.997   5.457  15.764  0.00  0.00    +0.000 A 
ATOM     15  C   UNL     1       7.125   4.649  15.766  0.00  0.00    +0.000 A 
ATOM     16  N   UNL     1       7.891   4.429  16.854  0.00  0.00    +0.000 NA
ATOM     17  C   UNL     1       7.501   5.033  17.997  0.00  0.00    +0.000 A 
ATOM     18  C   UNL     1       6.390   5.857  18.097  0.00  0.00    +0.000 A 
ENDBRANCH  12  13
ENDBRANCH  11  12
ENDBRANCH   5  11
TORSDOF 3
ENDMDL
MODEL 5
REMARK VINA RESULT:      -6.4      1.023      2.525
REMARK  Name = 
REMARK  3 active torsions:
REMARK  status: ('A' for Active; 'I' for Inactive)
REMARK    1  A    between atoms: C_5  and  S_6
REMARK    2  A    between atoms: S_6  and  C_7
REMARK    3  A    between atoms: C_7  and  C_8
REMARK                            x       y       z     vdW  Elec       q    Type
REMARK                         _______ _______ _______ _____ _____    ______ ____
ROOT
ATOM      1  C   UNL     1       6.873   4.748  14.299  0.00  0.00    +0.000 A 
ATOM      2  C   UNL     1       5.775   3.952  14.533  0.00  0.00    +0.000 A 
ATOM      3  N   UNL     1       5.225   3.771  15.752  0.00  0.00    +0.000 NA
ATOM      4  C   UNL     1       5.766   4.395  16.828  0.00  0.00    +0.000 A 
ATOM      5  C   UNL     1       5.251   4.225  18.134  0.00  0.00    +0.000 A 
ATOM      6  C   UNL     1       5.840   4.885  19.226  0.00  0.00    +0.000 A 
ATOM      7  C   UNL     1       6.937   5.722  19.041  0.00  0.00    +0.000 A 
ATOM      8  C   UNL     1       7.464   5.895  17.767  0.00  0.00    +0.000 A 
ATOM      9  C   UNL     1       6.892   5.239  16.666  0.00  0.00    +0.000 A 
ATOM     10  C   UNL     1       7.437   5.402  15.384  0.00  0.00    +0.000 A 
ENDROOT
BRANCH   5  11
ATOM     11  S   UNL     1       3.910   3.038  18.397  0.00  0.00    +0.000 S 
BRANCH  11  12
ATOM     12  C   UNL     1       2.419   3.956  17.891  0.00  0.00    +0.000 C 
BRANCH  12  13
ATOM     13  C   UNL     1       2.306   5.243  18.672  0.00  0.00    +0.000 A 
ATOM     14  C   UNL     1       1.943   5.231  20.024  0.00  0.00    +0.000 A 
ATOM     15  C   UNL     1       1.805   6.440  20.689  0.00  0.00    +0.000 A 
ATOM     16  N   UNL     1       2.005   7.643  20.112  0.00  0.00    +0.000 NA
ATOM     17  C   UNL     1       2.342   7.636  18.805  0.00  0.00    +0.000 A 
ATOM     18  C   UNL     1       2.502   6.481  18.054  0.00  0.00    +0.000 A 
ENDBRANCH  12  13
ENDBRANCH  11  12
ENDBRANCH   5  11
TORSDOF 3
ENDMDL
MODEL 6
REMARK VINA RESULT:      -6.4      2.221      3.521
REMARK  Name = 
REMARK  3 active torsions:
REMARK  status: ('A' for Active; 'I' for Inactive)
REMARK    1  A    between atoms: C_5  and  S_6
REMARK    2  A    between atoms: S_6  and  C_7
REMARK    3  A    between atoms: C_7  and  C_8
REMARK                            x       y       z     vdW  Elec       q    Type
REMARK                         _______ _______ _______ _____ _____    ______ ____
ROOT
ATOM      1  C   UNL     1       6.688   4.263  14.606  0.00  0.00    +0.000 A 
ATOM      2  C   UNL     1       5.345   4.565  14.603  0.00  0.00    +0.000 A 
ATOM      3  N   UNL     1       4.669   4.993  15.690  0.00  0.00    +0.000 NA
ATOM      4  C   UNL     1       5.324   5.141  16.869  0.00  0.00    +0.000 A 
ATOM      5  C   UNL     1       4.666   5.562  18.047  0.00  0.00    +0.000 A 
ATOM      6  C   UNL     1       5.378   5.701  19.251  0.00  0.00    +0.000 A 
ATOM      7  C   UNL     1       6.743   5.434  19.304  0.00  0.00    +0.000 A 
ATOM      8  C   UNL     1       7.406   5.011  18.158  0.00  0.00    +0.000 A 
ATOM      9  C   UNL     1       6.710   4.861  16.949  0.00  0.00    +0.000 A 
ATOM     10  C   UNL     1       7.379   4.417  15.799  0.00  0.00    +0.000 A 
ENDROOT
BRANCH   5  11
ATOM     11  S   UNL     1       2.870   5.784  18.014  0.00  0.00    +0.000 S 
BRANCH  11  12
ATOM     12  C   UNL     1       2.227   4.078  18.000  0.00  0.00    +0.000 C 
BRANCH  12  13
ATOM     13  C   UNL     1       2.329   3.469  19.378  0.00  0.00    +0.000 A 
ATOM     14  C   UNL     1       1.296   3.628  20.309  0.00  0.00    +0.000 A 
ATOM     15  C   UNL     1       1.453   3.092  21.579  0.00  0.00    +0.000 A 
ATOM     16  N   UNL     1       2.549   2.414  21.978  0.00  0.00    +0.000 NA
ATOM     17  C   UNL     1       3.540   2.281  21.071  0.00  0.00    +0.000 A 
ATOM     18  C   UNL     1       3.478   2.782  19.779  0.00  0.00    +0.000 A 
ENDBRANCH  12  13
ENDBRANCH  11  12
ENDBRANCH   5  11
TORSDOF 3
ENDMDL
MODEL 7
REMARK VINA RESULT:      -6.4      2.452      6.253
REMARK  Name = 
REMARK  3 active torsions:
REMARK  status: ('A' for Active; 'I' for Inactive)
REMARK    1  A    between atoms: C_5  and  S_6
REMARK    2  A    between atoms: S_6  and  C_7
REMARK    3  A    between atoms: C_7  and  C_8
REMARK                            x       y       z     vdW  Elec       q    Type
REMARK                         _______ _______ _______ _____ _____    ______ ____
ROOT
ATOM      1  C   UNL     1       0.999   2.825  20.293  0.00  0.00    +0.000 A 
ATOM      2  C   UNL     1       1.815   2.151  19.413  0.00  0.00    +0.000 A 
ATOM      3  N   UNL     1       2.727   2.755  18.621  0.00  0.00    +0.000 NA
ATOM      4  C   UNL     1       2.867   4.103  18.674  0.00  0.00    +0.000 A 
ATOM      5  C   UNL     1       3.787   4.796  17.853  0.00  0.00    +0.000 A 
ATOM      6  C   UNL     1       3.903   6.194  17.932  0.00  0.00    +0.000 A 
ATOM      7  C   UNL     1       3.121   6.921  18.824  0.00  0.00    +0.000 A 
ATOM      8  C   UNL     1       2.204   6.260  19.633  0.00  0.00    +0.000 A 
ATOM      9  C   UNL     1       2.071   4.865  19.563  0.00  0.00    +0.000 A 
ATOM     10  C   UNL     1       1.133   4.203  20.368  0.00  0.00    +0.000 A 
ENDROOT
BRANCH   5  11
ATOM     11  S   UNL     1       4.712   3.869  16.602  0.00  0.00    +0.000 S 
BRANCH  11  12
ATOM     12  C   UNL     1       5.865   5.105  15.918  0.00  0.00    +0.000 C 
BRANCH  12  13
ATOM     13  C   UNL     1       6.252   4.736  14.507  0.00  0.00    +0.000 A 
ATOM     14  C   UNL     1       5.501   3.807  13.778  0.00  0.00    +0.000 A 
ATOM     15  C   UNL     1       5.922   3.462  12.502  0.00  0.00    +0.000 A 
ATOM     16  N   UNL     1       7.020   3.973  11.908  0.00  0.00    +0.000 NA
ATOM     17  C   UNL     1       7.739   4.857  12.631  0.00  0.00    +0.000 A 
ATOM     18  C   UNL     1       7.402   5.264  13.914  0.00  0.00    +0.000 A 
ENDBRANCH  12  13
ENDBRANCH  11  12
ENDBRANCH   5  11
TORSDOF 3
ENDMDL
MODEL 8
REMARK VINA RESULT:      -6.3      2.021      5.267
REMARK  Name = 
REMARK  3 active torsions:
REMARK  status: ('A' for Active; 'I' for Inactive)
REMARK    1  A    between atoms: C_5  and  S_6
REMARK    2  A    between atoms: S_6  and  C_7
REMARK    3  A    between atoms: C_7  and  C_8
REMARK                            x       y       z     vdW  Elec       q    Type
REMARK                         _______ _______ _______ _____ _____    ______ ____
ROOT
ATOM      1  C   UNL     1       1.899   2.666  21.769  0.00  0.00    +0.000 A 
ATOM      2  C   UNL     1       2.195   4.008  21.825  0.00  0.00    +0.000 A 
ATOM      3  N   UNL     1       2.495   4.757  20.743  0.00  0.00    +0.000 NA
ATOM      4  C   UNL     1       2.517   4.178  19.517  0.00  0.00    +0.000 A 
ATOM      5  C   UNL     1       2.849   4.904  18.349  0.00  0.00    +0.000 A 
ATOM      6  C   UNL     1       2.864   4.270  17.095  0.00  0.00    +0.000 A 
ATOM      7  C   UNL     1       2.548   2.920  16.978  0.00  0.00    +0.000 A 
ATOM      8  C   UNL     1       2.229   2.187  18.115  0.00  0.00    +0.000 A 
ATOM      9  C   UNL     1       2.213   2.802  19.376  0.00  0.00    +0.000 A 
ATOM     10  C   UNL     1       1.908   2.056  20.523  0.00  0.00    +0.000 A 
ENDROOT
BRANCH   5  11
ATOM     11  S   UNL     1       3.387   6.625  18.512  0.00  0.00    +0.000 S 
BRANCH  11  12
ATOM     12  C   UNL     1       4.357   6.916  16.997  0.00  0.00    +0.000 C 
BRANCH  12  13
ATOM     13  C   UNL     1       5.574   6.023  16.974  0.00  0.00    +0.000 A 
ATOM     14  C   UNL     1       6.381   5.884  18.109  0.00  0.00    +0.000 A 
ATOM     15  C   UNL     1       7.516   5.091  18.028  0.00  0.00    +0.000 A 
ATOM     16  N   UNL     1       7.896   4.433  16.913  0.00  0.00    +0.000 NA
ATOM     17  C   UNL     1       7.113   4.590  15.824  0.00  0.00    +0.000 A 
ATOM     18  C   UNL     1       5.961   5.362  15.805  0.00  0.00    +0.000 A 
ENDBRANCH  12  13
ENDBRANCH  11  12
ENDBRANCH   5  11
TORSDOF 3
ENDMDL
MODEL 9
REMARK VINA RESULT:      -6.3      1.510      5.495
REMARK  Name = 
REMARK  3 active torsions:
REMARK  status: ('A' for Active; 'I' for Inactive)
REMARK    1  A    between atoms: C_5  and  S_6
REMARK    2  A    between atoms: S_6  and  C_7
REMARK    3  A    between atoms: C_7  and  C_8
REMARK                            x       y       z     vdW  Elec       q    Type
REMARK                         _______ _______ _______ _____ _____    ______ ____
ROOT
ATOM      1  C   UNL     1       2.003   7.462  20.138  0.00  0.00    +0.000 A 
ATOM      2  C   UNL     1       2.490   7.255  18.868  0.00  0.00    +0.000 A 
ATOM      3  N   UNL     1       2.556   6.043  18.277  0.00  0.00    +0.000 NA
ATOM      4  C   UNL     1       2.126   4.947  18.952  0.00  0.00    +0.000 A 
ATOM      5  C   UNL     1       2.193   3.649  18.397  0.00  0.00    +0.000 A 
ATOM      6  C   UNL     1       1.741   2.536  19.127  0.00  0.00    +0.000 A 
ATOM      7  C   UNL     1       1.215   2.693  20.406  0.00  0.00    +0.000 A 
ATOM      8  C   UNL     1       1.150   3.960  20.973  0.00  0.00    +0.000 A 
ATOM      9  C   UNL     1       1.602   5.081  20.261  0.00  0.00    +0.000 A 
ATOM     10  C   UNL     1       1.551   6.356  20.843  0.00  0.00    +0.000 A 
ENDROOT
BRANCH   5  11
ATOM     11  S   UNL     1       2.994   3.425  16.789  0.00  0.00    +0.000 S 
BRANCH  11  12
ATOM     12  C   UNL     1       4.704   2.966  17.222  0.00  0.00    +0.000 C 
BRANCH  12  13
ATOM     13  C   UNL     1       5.681   3.931  16.593  0.00  0.00    +0.000 A 
ATOM     14  C   UNL     1       6.213   4.994  17.331  0.00  0.00    +0.000 A 
ATOM     15  C   UNL     1       7.070   5.883  16.699  0.00  0.00    +0.000 A 
ATOM     16  N   UNL     1       7.431   5.786  15.402  0.00  0.00    +0.000 NA
ATOM     17  C   UNL     1       6.897   4.762  14.703  0.00  0.00    +0.000 A 
ATOM     18  C   UNL     1       6.031   3.823  15.244  0.00  0.00    +0.000 A 
ENDBRANCH  12  13
ENDBRANCH  11  12
ENDBRANCH   5  11
TORSDOF 3
ENDMDL
