MODEL 1
REMARK VINA RESULT:      -7.1      0.000      0.000
REMARK  Name = 
REMARK  10 active torsions:
REMARK  status: ('A' for Active; 'I' for Inactive)
REMARK    1  A    between atoms: C_2  and  N_3
REMARK    2  A    between atoms: C_2  and  N_13
REMARK    3  A    between atoms: N_3  and  C_4
REMARK    4  A    between atoms: C_7  and  O_8
REMARK    5  A    between atoms: O_8  and  C_9
REMARK    6  A    between atoms: C_9  and  C_10
REMARK    7  A    between atoms: N_13  and  C_14
REMARK    8  A    between atoms: C_17  and  O_18
REMARK    9  A    between atoms: O_18  and  C_19
REMARK   10  A    between atoms: C_19  and  C_20
REMARK                            x       y       z     vdW  Elec       q    Type
REMARK                         _______ _______ _______ _____ _____    ______ ____
ROOT
ATOM      1  C   UNL     1       7.717   4.550  17.735  0.00  0.00    +0.000 C 
ATOM      2  C   UNL     1       7.058   5.438  16.963  0.00  0.00    +0.000 C 
ENDROOT
BRANCH   2   3
ATOM      3  N   UNL     1       7.425   5.609  15.639  0.00  0.00    +0.000 N 
ATOM      4  H   UNL     1       7.710   6.560  15.443  0.00  0.00    +0.000 HD
BRANCH   3   5
ATOM      5  C   UNL     1       6.888   4.940  14.514  0.00  0.00    +0.000 A 
ATOM      6  C   UNL     1       7.525   4.890  13.269  0.00  0.00    +0.000 A 
ATOM      7  C   UNL     1       6.944   4.222  12.181  0.00  0.00    +0.000 A 
ATOM      8  C   UNL     1       5.717   3.582  12.318  0.00  0.00    +0.000 A 
ATOM      9  C   UNL     1       5.035   3.683  13.531  0.00  0.00    +0.000 A 
ATOM     10  C   UNL     1       5.613   4.366  14.611  0.00  0.00    +0.000 A 
BRANCH   8  11
ATOM     11  O   UNL     1       5.254   2.922  11.210  0.00  0.00    +0.000 OA
BRANCH  11  12
ATOM     12  C   UNL     1       3.831   2.855  11.098  0.00  0.00    +0.000 C 
ATOM     13  C   UNL     1       3.383   3.878  10.069  0.00  0.00    +0.000 C 
ENDBRANCH  11  12
ENDBRANCH   8  11
ENDBRANCH   3   5
ENDBRANCH   2   3
BRANCH   2  14
ATOM     14  N   UNL     1       6.046   6.197  17.524  0.00  0.00    +0.000 N 
ATOM     15  H   UNL     1       6.396   7.006  18.030  0.00  0.00    +0.000 HD
BRANCH  14  16
ATOM     16  C   UNL     1       4.831   5.693  18.048  0.00  0.00    +0.000 A 
ATOM     17  C   UNL     1       4.571   5.623  19.423  0.00  0.00    +0.000 A 
ATOM     18  C   UNL     1       3.383   5.067  19.916  0.00  0.00    +0.000 A 
ATOM     19  C   UNL     1       2.425   4.571  19.035  0.00  0.00    +0.000 A 
ATOM     20  C   UNL     1       2.683   4.582  17.669  0.00  0.00    +0.000 A 
ATOM     21  C   UNL     1       3.883   5.138  17.182  0.00  0.00    +0.000 A 
BRANCH  19  22
ATOM     22  O   UNL     1       1.306   4.049  19.627  0.00  0.00    +0.000 OA
BRANCH  22  23
ATOM     23  C   UNL     1       1.420   2.688  20.042  0.00  0.00    +0.000 C 
ATOM     24  C   UNL     1       1.463   2.659  21.560  0.00  0.00    +0.000 C 
ENDBRANCH  22  23
ENDBRANCH  19  22
ENDBRANCH  14  16
ENDBRANCH   2  14
TORSDOF 8
ENDMDL
MODEL 2
REMARK VINA RESULT:      -6.8      1.160      1.649
REMARK  Name = 
REMARK  10 active torsions:
REMARK  status: ('A' for Active; 'I' for Inactive)
REMARK    1  A    between atoms: C_2  and  N_3
REMARK    2  A    between atoms: C_2  and  N_13
REMARK    3  A    between atoms: N_3  and  C_4
REMARK    4  A    between atoms: C_7  and  O_8
REMARK    5  A    between atoms: O_8  and  C_9
REMARK    6  A    between atoms: C_9  and  C_10
REMARK    7  A    between atoms: N_13  and  C_14
REMARK    8  A    between atoms: C_17  and  O_18
REMARK    9  A    between atoms: O_18  and  C_19
REMARK   10  A    between atoms: C_19  and  C_20
REMARK                            x       y       z     vdW  Elec       q    Type
REMARK                         _______ _______ _______ _____ _____    ______ ____
ROOT
ATOM      1  C   UNL     1       7.599   7.473  17.205  0.00  0.00    +0.000 C 
ATOM      2  C   UNL     1       7.117   6.246  17.488  0.00  0.00    +0.000 C 
ENDROOT
BRANCH   2   3
ATOM      3  N   UNL     1       7.531   5.153  16.746  0.00  0.00    +0.000 N 
ATOM      4  H   UNL     1       8.510   4.939  16.897  0.00  0.00    +0.000 HD
BRANCH   3   5
ATOM      5  C   UNL     1       7.062   4.762  15.471  0.00  0.00    +0.000 A 
ATOM      6  C   UNL     1       5.980   3.895  15.277  0.00  0.00    +0.000 A 
ATOM      7  C   UNL     1       5.562   3.530  13.989  0.00  0.00    +0.000 A 
ATOM      8  C   UNL     1       6.210   4.034  12.866  0.00  0.00    +0.000 A 
ATOM      9  C   UNL     1       7.334   4.842  13.041  0.00  0.00    +0.000 A 
ATOM     10  C   UNL     1       7.759   5.190  14.332  0.00  0.00    +0.000 A 
BRANCH   8  11
ATOM     11  O   UNL     1       5.700   3.652  11.654  0.00  0.00    +0.000 OA
BRANCH  11  12
ATOM     12  C   UNL     1       4.369   3.135  11.695  0.00  0.00    +0.000 C 
ATOM     13  C   UNL     1       3.592   3.713  10.526  0.00  0.00    +0.000 C 
ENDBRANCH  11  12
ENDBRANCH   8  11
ENDBRANCH   3   5
ENDBRANCH   2   3
BRANCH   2  14
ATOM     14  N   UNL     1       6.179   6.107  18.497  0.00  0.00    +0.000 N 
ATOM     15  H   UNL     1       6.585   6.194  19.425  0.00  0.00    +0.000 HD
BRANCH  14  16
ATOM     16  C   UNL     1       5.047   5.259  18.459  0.00  0.00    +0.000 A 
ATOM     17  C   UNL     1       5.066   3.949  18.957  0.00  0.00    +0.000 A 
ATOM     18  C   UNL     1       3.947   3.112  18.855  0.00  0.00    +0.000 A 
ATOM     19  C   UNL     1       2.779   3.574  18.252  0.00  0.00    +0.000 A 
ATOM     20  C   UNL     1       2.754   4.852  17.705  0.00  0.00    +0.000 A 
ATOM     21  C   UNL     1       3.886   5.685  17.806  0.00  0.00    +0.000 A 
BRANCH  19  22
ATOM     22  O   UNL     1       1.752   2.670  18.206  0.00  0.00    +0.000 OA
BRANCH  22  23
ATOM     23  C   UNL     1       1.372   2.120  19.467  0.00  0.00    +0.000 C 
ATOM     24  C   UNL     1       0.732   3.223  20.291  0.00  0.00    +0.000 C 
ENDBRANCH  22  23
ENDBRANCH  19  22
ENDBRANCH  14  16
ENDBRANCH   2  14
TORSDOF 8
ENDMDL
MODEL 3
REMARK VINA RESULT:      -6.7      0.794      7.122
REMARK  Name = 
REMARK  10 active torsions:
REMARK  status: ('A' for Active; 'I' for Inactive)
REMARK    1  A    between atoms: C_2  and  N_3
REMARK    2  A    between atoms: C_2  and  N_13
REMARK    3  A    between atoms: N_3  and  C_4
REMARK    4  A    between atoms: C_7  and  O_8
REMARK    5  A    between atoms: O_8  and  C_9
REMARK    6  A    between atoms: C_9  and  C_10
REMARK    7  A    between atoms: N_13  and  C_14
REMARK    8  A    between atoms: C_17  and  O_18
REMARK    9  A    between atoms: O_18  and  C_19
REMARK   10  A    between atoms: C_19  and  C_20
REMARK                            x       y       z     vdW  Elec       q    Type
REMARK                         _______ _______ _______ _____ _____    ______ ____
ROOT
ATOM      1  C   UNL     1       6.476   7.209  16.929  0.00  0.00    +0.000 C 
ATOM      2  C   UNL     1       6.806   5.906  16.824  0.00  0.00    +0.000 C 
ENDROOT
BRANCH   2   3
ATOM      3  N   UNL     1       6.464   5.022  17.833  0.00  0.00    +0.000 N 
ATOM      4  H   UNL     1       7.121   4.255  17.905  0.00  0.00    +0.000 HD
BRANCH   3   5
ATOM      5  C   UNL     1       5.160   4.687  18.265  0.00  0.00    +0.000 A 
ATOM      6  C   UNL     1       4.388   3.675  17.682  0.00  0.00    +0.000 A 
ATOM      7  C   UNL     1       3.094   3.390  18.142  0.00  0.00    +0.000 A 
ATOM      8  C   UNL     1       2.548   4.105  19.203  0.00  0.00    +0.000 A 
ATOM      9  C   UNL     1       3.274   5.163  19.749  0.00  0.00    +0.000 A 
ATOM     10  C   UNL     1       4.562   5.455  19.274  0.00  0.00    +0.000 A 
BRANCH   8  11
ATOM     11  O   UNL     1       1.296   3.723  19.606  0.00  0.00    +0.000 OA
BRANCH  11  12
ATOM     12  C   UNL     1       1.121   3.622  21.020  0.00  0.00    +0.000 C 
ATOM     13  C   UNL     1       1.933   2.442  21.522  0.00  0.00    +0.000 C 
ENDBRANCH  11  12
ENDBRANCH   8  11
ENDBRANCH   3   5
ENDBRANCH   2   3
BRANCH   2  14
ATOM     14  N   UNL     1       7.522   5.480  15.718  0.00  0.00    +0.000 N 
ATOM     15  H   UNL     1       8.302   6.092  15.496  0.00  0.00    +0.000 HD
BRANCH  14  16
ATOM     16  C   UNL     1       6.978   4.835  14.582  0.00  0.00    +0.000 A 
ATOM     17  C   UNL     1       7.632   4.805  13.343  0.00  0.00    +0.000 A 
ATOM     18  C   UNL     1       7.045   4.207  12.220  0.00  0.00    +0.000 A 
ATOM     19  C   UNL     1       5.785   3.621  12.318  0.00  0.00    +0.000 A 
ATOM     20  C   UNL     1       5.096   3.683  13.523  0.00  0.00    +0.000 A 
ATOM     21  C   UNL     1       5.691   4.291  14.646  0.00  0.00    +0.000 A 
BRANCH  19  22
ATOM     22  O   UNL     1       5.308   3.070  11.158  0.00  0.00    +0.000 OA
BRANCH  22  23
ATOM     23  C   UNL     1       3.889   2.931  11.093  0.00  0.00    +0.000 C 
ATOM     24  C   UNL     1       3.360   3.940  10.090  0.00  0.00    +0.000 C 
ENDBRANCH  22  23
ENDBRANCH  19  22
ENDBRANCH  14  16
ENDBRANCH   2  14
TORSDOF 8
ENDMDL
MODEL 4
REMARK VINA RESULT:      -6.7      4.101      7.614
REMARK  Name = 
REMARK  10 active torsions:
REMARK  status: ('A' for Active; 'I' for Inactive)
REMARK    1  A    between atoms: C_2  and  N_3
REMARK    2  A    between atoms: C_2  and  N_13
REMARK    3  A    between atoms: N_3  and  C_4
REMARK    4  A    between atoms: C_7  and  O_8
REMARK    5  A    between atoms: O_8  and  C_9
REMARK    6  A    between atoms: C_9  and  C_10
REMARK    7  A    between atoms: N_13  and  C_14
REMARK    8  A    between atoms: C_17  and  O_18
REMARK    9  A    between atoms: O_18  and  C_19
REMARK   10  A    between atoms: C_19  and  C_20
REMARK                            x       y       z     vdW  Elec       q    Type
REMARK                         _______ _______ _______ _____ _____    ______ ____
ROOT
ATOM      1  C   UNL     1       3.798   2.312  19.052  0.00  0.00    +0.000 C 
ATOM      2  C   UNL     1       3.933   3.347  18.198  0.00  0.00    +0.000 C 
ENDROOT
BRANCH   2   3
ATOM      3  N   UNL     1       2.855   4.175  17.939  0.00  0.00    +0.000 N 
ATOM      4  H   UNL     1       2.618   4.194  16.954  0.00  0.00    +0.000 HD
BRANCH   3   5
ATOM      5  C   UNL     1       2.511   5.364  18.622  0.00  0.00    +0.000 A 
ATOM      6  C   UNL     1       2.684   6.644  18.082  0.00  0.00    +0.000 A 
ATOM      7  C   UNL     1       2.337   7.793  18.807  0.00  0.00    +0.000 A 
ATOM      8  C   UNL     1       1.798   7.686  20.085  0.00  0.00    +0.000 A 
ATOM      9  C   UNL     1       1.685   6.423  20.667  0.00  0.00    +0.000 A 
ATOM     10  C   UNL     1       2.050   5.278  19.943  0.00  0.00    +0.000 A 
BRANCH   8  11
ATOM     11  O   UNL     1       1.452   8.863  20.694  0.00  0.00    +0.000 OA
BRANCH  11  12
ATOM     12  C   UNL     1       0.087   8.952  21.106  0.00  0.00    +0.000 C 
ATOM     13  C   UNL     1      -0.456  10.304  20.681  0.00  0.00    +0.000 C 
ENDBRANCH  11  12
ENDBRANCH   8  11
ENDBRANCH   3   5
ENDBRANCH   2   3
BRANCH   2  14
ATOM     14  N   UNL     1       5.147   3.539  17.560  0.00  0.00    +0.000 N 
ATOM     15  H   UNL     1       5.630   2.666  17.364  0.00  0.00    +0.000 HD
BRANCH  14  16
ATOM     16  C   UNL     1       6.025   4.628  17.770  0.00  0.00    +0.000 A 
ATOM     17  C   UNL     1       6.850   4.730  18.899  0.00  0.00    +0.000 A 
ATOM     18  C   UNL     1       7.668   5.847  19.109  0.00  0.00    +0.000 A 
ATOM     19  C   UNL     1       7.679   6.890  18.186  0.00  0.00    +0.000 A 
ATOM     20  C   UNL     1       6.832   6.835  17.085  0.00  0.00    +0.000 A 
ATOM     21  C   UNL     1       6.008   5.710  16.884  0.00  0.00    +0.000 A 
BRANCH  19  22
ATOM     22  O   UNL     1       8.514   7.931  18.494  0.00  0.00    +0.000 OA
BRANCH  22  23
ATOM     23  C   UNL     1       8.143   9.190  17.933  0.00  0.00    +0.000 C 
ATOM     24  C   UNL     1       9.019  10.262  18.556  0.00  0.00    +0.000 C 
ENDBRANCH  22  23
ENDBRANCH  19  22
ENDBRANCH  14  16
ENDBRANCH   2  14
TORSDOF 8
ENDMDL
MODEL 5
REMARK VINA RESULT:      -6.7      3.710      7.827
REMARK  Name = 
REMARK  10 active torsions:
REMARK  status: ('A' for Active; 'I' for Inactive)
REMARK    1  A    between atoms: C_2  and  N_3
REMARK    2  A    between atoms: C_2  and  N_13
REMARK    3  A    between atoms: N_3  and  C_4
REMARK    4  A    between atoms: C_7  and  O_8
REMARK    5  A    between atoms: O_8  and  C_9
REMARK    6  A    between atoms: C_9  and  C_10
REMARK    7  A    between atoms: N_13  and  C_14
REMARK    8  A    between atoms: C_17  and  O_18
REMARK    9  A    between atoms: O_18  and  C_19
REMARK   10  A    between atoms: C_19  and  C_20
REMARK                            x       y       z     vdW  Elec       q    Type
REMARK                         _______ _______ _______ _____ _____    ______ ____
ROOT
ATOM      1  C   UNL     1       3.303   1.988  19.246  0.00  0.00    +0.000 C 
ATOM      2  C   UNL     1       3.516   3.039  18.428  0.00  0.00    +0.000 C 
ENDROOT
BRANCH   2   3
ATOM      3  N   UNL     1       2.504   3.956  18.205  0.00  0.00    +0.000 N 
ATOM      4  H   UNL     1       2.245   4.007  17.227  0.00  0.00    +0.000 HD
BRANCH   3   5
ATOM      5  C   UNL     1       2.279   5.162  18.907  0.00  0.00    +0.000 A 
ATOM      6  C   UNL     1       1.750   5.215  20.203  0.00  0.00    +0.000 A 
ATOM      7  C   UNL     1       1.535   6.440  20.852  0.00  0.00    +0.000 A 
ATOM      8  C   UNL     1       1.854   7.638  20.223  0.00  0.00    +0.000 A 
ATOM      9  C   UNL     1       2.315   7.608  18.907  0.00  0.00    +0.000 A 
ATOM     10  C   UNL     1       2.512   6.382  18.256  0.00  0.00    +0.000 A 
BRANCH   8  11
ATOM     11  O   UNL     1       1.648   8.777  20.956  0.00  0.00    +0.000 OA
BRANCH  11  12
ATOM     12  C   UNL     1       0.277   9.106  21.187  0.00  0.00    +0.000 C 
ATOM     13  C   UNL     1       0.099   9.413  22.663  0.00  0.00    +0.000 C 
ENDBRANCH  11  12
ENDBRANCH   8  11
ENDBRANCH   3   5
ENDBRANCH   2   3
BRANCH   2  14
ATOM     14  N   UNL     1       4.739   3.158  17.790  0.00  0.00    +0.000 N 
ATOM     15  H   UNL     1       5.328   2.339  17.914  0.00  0.00    +0.000 HD
BRANCH  14  16
ATOM     16  C   UNL     1       5.474   4.357  17.635  0.00  0.00    +0.000 A 
ATOM     17  C   UNL     1       5.592   5.019  16.405  0.00  0.00    +0.000 A 
ATOM     18  C   UNL     1       6.373   6.174  16.268  0.00  0.00    +0.000 A 
ATOM     19  C   UNL     1       7.053   6.693  17.368  0.00  0.00    +0.000 A 
ATOM     20  C   UNL     1       6.992   6.026  18.585  0.00  0.00    +0.000 A 
ATOM     21  C   UNL     1       6.209   4.861  18.713  0.00  0.00    +0.000 A 
BRANCH  19  22
ATOM     22  O   UNL     1       7.787   7.822  17.117  0.00  0.00    +0.000 OA
BRANCH  22  23
ATOM     23  C   UNL     1       8.401   8.411  18.264  0.00  0.00    +0.000 C 
ATOM     24  C   UNL     1       8.396   9.918  18.080  0.00  0.00    +0.000 C 
ENDBRANCH  22  23
ENDBRANCH  19  22
ENDBRANCH  14  16
ENDBRANCH   2  14
TORSDOF 8
ENDMDL
MODEL 6
REMARK VINA RESULT:      -6.7      4.406      8.004
REMARK  Name = 
REMARK  10 active torsions:
REMARK  status: ('A' for Active; 'I' for Inactive)
REMARK    1  A    between atoms: C_2  and  N_3
REMARK    2  A    between atoms: C_2  and  N_13
REMARK    3  A    between atoms: N_3  and  C_4
REMARK    4  A    between atoms: C_7  and  O_8
REMARK    5  A    between atoms: O_8  and  C_9
REMARK    6  A    between atoms: C_9  and  C_10
REMARK    7  A    between atoms: N_13  and  C_14
REMARK    8  A    between atoms: C_17  and  O_18
REMARK    9  A    between atoms: O_18  and  C_19
REMARK   10  A    between atoms: C_19  and  C_20
REMARK                            x       y       z     vdW  Elec       q    Type
REMARK                         _______ _______ _______ _____ _____    ______ ____
ROOT
ATOM      1  C   UNL     1       1.151   5.217  20.206  0.00  0.00    +0.000 C 
ATOM      2  C   UNL     1       2.271   5.945  20.390  0.00  0.00    +0.000 C 
ENDROOT
BRANCH   2   3
ATOM      3  N   UNL     1       2.177   7.278  20.750  0.00  0.00    +0.000 N 
ATOM      4  H   UNL     1       2.243   7.407  21.752  0.00  0.00    +0.000 HD
BRANCH   3   5
ATOM      5  C   UNL     1       1.421   8.283  20.104  0.00  0.00    +0.000 A 
ATOM      6  C   UNL     1       1.669   8.717  18.796  0.00  0.00    +0.000 A 
ATOM      7  C   UNL     1       0.895   9.727  18.205  0.00  0.00    +0.000 A 
ATOM      8  C   UNL     1      -0.151  10.317  18.906  0.00  0.00    +0.000 A 
ATOM      9  C   UNL     1      -0.367   9.948  20.234  0.00  0.00    +0.000 A 
ATOM     10  C   UNL     1       0.420   8.949  20.826  0.00  0.00    +0.000 A 
BRANCH   8  11
ATOM     11  O   UNL     1      -0.874  11.262  18.227  0.00  0.00    +0.000 OA
BRANCH  11  12
ATOM     12  C   UNL     1      -2.276  11.004  18.143  0.00  0.00    +0.000 C 
ATOM     13  C   UNL     1      -2.505   9.933  17.091  0.00  0.00    +0.000 C 
ENDBRANCH  11  12
ENDBRANCH   8  11
ENDBRANCH   3   5
ENDBRANCH   2   3
BRANCH   2  14
ATOM     14  N   UNL     1       3.503   5.351  20.175  0.00  0.00    +0.000 N 
ATOM     15  H   UNL     1       4.039   5.236  21.031  0.00  0.00    +0.000 HD
BRANCH  14  16
ATOM     16  C   UNL     1       4.313   5.526  19.028  0.00  0.00    +0.000 A 
ATOM     17  C   UNL     1       3.833   6.101  17.843  0.00  0.00    +0.000 A 
ATOM     18  C   UNL     1       4.642   6.211  16.704  0.00  0.00    +0.000 A 
ATOM     19  C   UNL     1       5.955   5.747  16.730  0.00  0.00    +0.000 A 
ATOM     20  C   UNL     1       6.436   5.127  17.877  0.00  0.00    +0.000 A 
ATOM     21  C   UNL     1       5.615   5.015  19.017  0.00  0.00    +0.000 A 
BRANCH  19  22
ATOM     22  O   UNL     1       6.650   5.902  15.561  0.00  0.00    +0.000 OA
BRANCH  22  23
ATOM     23  C   UNL     1       7.102   4.689  14.960  0.00  0.00    +0.000 C 
ATOM     24  C   UNL     1       5.958   4.108  14.148  0.00  0.00    +0.000 C 
ENDBRANCH  22  23
ENDBRANCH  19  22
ENDBRANCH  14  16
ENDBRANCH   2  14
TORSDOF 8
ENDMDL
MODEL 7
REMARK VINA RESULT:      -6.7      4.285      7.924
REMARK  Name = 
REMARK  10 active torsions:
REMARK  status: ('A' for Active; 'I' for Inactive)
REMARK    1  A    between atoms: C_2  and  N_3
REMARK    2  A    between atoms: C_2  and  N_13
REMARK    3  A    between atoms: N_3  and  C_4
REMARK    4  A    between atoms: C_7  and  O_8
REMARK    5  A    between atoms: O_8  and  C_9
REMARK    6  A    between atoms: C_9  and  C_10
REMARK    7  A    between atoms: N_13  and  C_14
REMARK    8  A    between atoms: C_17  and  O_18
REMARK    9  A    between atoms: O_18  and  C_19
REMARK   10  A    between atoms: C_19  and  C_20
REMARK                            x       y       z     vdW  Elec       q    Type
REMARK                         _______ _______ _______ _____ _____    ______ ____
ROOT
ATOM      1  C   UNL     1       1.757   4.928  19.843  0.00  0.00    +0.000 C 
ATOM      2  C   UNL     1       2.677   5.887  20.074  0.00  0.00    +0.000 C 
ENDROOT
BRANCH   2   3
ATOM      3  N   UNL     1       2.291   7.095  20.630  0.00  0.00    +0.000 N 
ATOM      4  H   UNL     1       2.094   7.012  21.620  0.00  0.00    +0.000 HD
BRANCH   3   5
ATOM      5  C   UNL     1       1.564   8.130  19.997  0.00  0.00    +0.000 A 
ATOM      6  C   UNL     1       1.792   8.540  18.678  0.00  0.00    +0.000 A 
ATOM      7  C   UNL     1       1.049   9.580  18.101  0.00  0.00    +0.000 A 
ATOM      8  C   UNL     1       0.055  10.226  18.828  0.00  0.00    +0.000 A 
ATOM      9  C   UNL     1      -0.137   9.880  20.166  0.00  0.00    +0.000 A 
ATOM     10  C   UNL     1       0.620   8.849  20.743  0.00  0.00    +0.000 A 
BRANCH   8  11
ATOM     11  O   UNL     1      -0.643  11.200  18.163  0.00  0.00    +0.000 OA
BRANCH  11  12
ATOM     12  C   UNL     1      -2.059  11.016  18.136  0.00  0.00    +0.000 C 
ATOM     13  C   UNL     1      -2.495  10.854  16.691  0.00  0.00    +0.000 C 
ENDBRANCH  11  12
ENDBRANCH   8  11
ENDBRANCH   3   5
ENDBRANCH   2   3
BRANCH   2  14
ATOM     14  N   UNL     1       3.993   5.659  19.710  0.00  0.00    +0.000 N 
ATOM     15  H   UNL     1       4.656   6.138  20.314  0.00  0.00    +0.000 HD
BRANCH  14  16
ATOM     16  C   UNL     1       4.464   5.488  18.387  0.00  0.00    +0.000 A 
ATOM     17  C   UNL     1       4.625   6.558  17.496  0.00  0.00    +0.000 A 
ATOM     18  C   UNL     1       5.039   6.352  16.174  0.00  0.00    +0.000 A 
ATOM     19  C   UNL     1       5.307   5.064  15.716  0.00  0.00    +0.000 A 
ATOM     20  C   UNL     1       5.105   3.983  16.566  0.00  0.00    +0.000 A 
ATOM     21  C   UNL     1       4.682   4.197  17.893  0.00  0.00    +0.000 A 
BRANCH  19  22
ATOM     22  O   UNL     1       5.702   4.982  14.407  0.00  0.00    +0.000 OA
BRANCH  22  23
ATOM     23  C   UNL     1       6.270   3.730  14.024  0.00  0.00    +0.000 C 
ATOM     24  C   UNL     1       6.312   3.674  12.508  0.00  0.00    +0.000 C 
ENDBRANCH  22  23
ENDBRANCH  19  22
ENDBRANCH  14  16
ENDBRANCH   2  14
TORSDOF 8
ENDMDL
MODEL 8
REMARK VINA RESULT:      -6.7      3.600      7.594
REMARK  Name = 
REMARK  10 active torsions:
REMARK  status: ('A' for Active; 'I' for Inactive)
REMARK    1  A    between atoms: C_2  and  N_3
REMARK    2  A    between atoms: C_2  and  N_13
REMARK    3  A    between atoms: N_3  and  C_4
REMARK    4  A    between atoms: C_7  and  O_8
REMARK    5  A    between atoms: O_8  and  C_9
REMARK    6  A    between atoms: C_9  and  C_10
REMARK    7  A    between atoms: N_13  and  C_14
REMARK    8  A    between atoms: C_17  and  O_18
REMARK    9  A    between atoms: O_18  and  C_19
REMARK   10  A    between atoms: C_19  and  C_20
REMARK                            x       y       z     vdW  Elec       q    Type
REMARK                         _______ _______ _______ _____ _____    ______ ____
ROOT
ATOM      1  C   UNL     1       3.744   1.909  19.186  0.00  0.00    +0.000 C 
ATOM      2  C   UNL     1       3.575   2.923  18.313  0.00  0.00    +0.000 C 
ENDROOT
BRANCH   2   3
ATOM      3  N   UNL     1       2.405   3.661  18.329  0.00  0.00    +0.000 N 
ATOM      4  H   UNL     1       1.853   3.517  17.493  0.00  0.00    +0.000 HD
BRANCH   3   5
ATOM      5  C   UNL     1       2.207   4.931  18.920  0.00  0.00    +0.000 A 
ATOM      6  C   UNL     1       2.544   6.136  18.292  0.00  0.00    +0.000 A 
ATOM      7  C   UNL     1       2.338   7.370  18.928  0.00  0.00    +0.000 A 
ATOM      8  C   UNL     1       1.780   7.424  20.201  0.00  0.00    +0.000 A 
ATOM      9  C   UNL     1       1.505   6.231  20.869  0.00  0.00    +0.000 A 
ATOM     10  C   UNL     1       1.729   5.000  20.236  0.00  0.00    +0.000 A 
BRANCH   8  11
ATOM     11  O   UNL     1       1.579   8.677  20.718  0.00  0.00    +0.000 OA
BRANCH  11  12
ATOM     12  C   UNL     1       0.239   8.954  21.125  0.00  0.00    +0.000 C 
ATOM     13  C   UNL     1      -0.312  10.062  20.245  0.00  0.00    +0.000 C 
ENDBRANCH  11  12
ENDBRANCH   8  11
ENDBRANCH   3   5
ENDBRANCH   2   3
BRANCH   2  14
ATOM     14  N   UNL     1       4.567   3.182  17.382  0.00  0.00    +0.000 N 
ATOM     15  H   UNL     1       5.077   2.346  17.109  0.00  0.00    +0.000 HD
BRANCH  14  16
ATOM     16  C   UNL     1       5.349   4.360  17.317  0.00  0.00    +0.000 A 
ATOM     17  C   UNL     1       5.507   5.098  16.136  0.00  0.00    +0.000 A 
ATOM     18  C   UNL     1       6.332   6.229  16.085  0.00  0.00    +0.000 A 
ATOM     19  C   UNL     1       7.017   6.647  17.224  0.00  0.00    +0.000 A 
ATOM     20  C   UNL     1       6.917   5.901  18.392  0.00  0.00    +0.000 A 
ATOM     21  C   UNL     1       6.089   4.761  18.434  0.00  0.00    +0.000 A 
BRANCH  19  22
ATOM     22  O   UNL     1       7.796   7.761  17.058  0.00  0.00    +0.000 OA
BRANCH  22  23
ATOM     23  C   UNL     1       8.393   8.265  18.253  0.00  0.00    +0.000 C 
ATOM     24  C   UNL     1       8.431   9.780  18.160  0.00  0.00    +0.000 C 
ENDBRANCH  22  23
ENDBRANCH  19  22
ENDBRANCH  14  16
ENDBRANCH   2  14
TORSDOF 8
ENDMDL
MODEL 9
REMARK VINA RESULT:      -6.6      4.154      7.799
REMARK  Name = 
REMARK  10 active torsions:
REMARK  status: ('A' for Active; 'I' for Inactive)
REMARK    1  A    between atoms: C_2  and  N_3
REMARK    2  A    between atoms: C_2  and  N_13
REMARK    3  A    between atoms: N_3  and  C_4
REMARK    4  A    between atoms: C_7  and  O_8
REMARK    5  A    between atoms: O_8  and  C_9
REMARK    6  A    between atoms: C_9  and  C_10
REMARK    7  A    between atoms: N_13  and  C_14
REMARK    8  A    between atoms: C_17  and  O_18
REMARK    9  A    between atoms: O_18  and  C_19
REMARK   10  A    between atoms: C_19  and  C_20
REMARK                            x       y       z     vdW  Elec       q    Type
REMARK                         _______ _______ _______ _____ _____    ______ ____
ROOT
ATOM      1  C   UNL     1       1.219   4.011  20.045  0.00  0.00    +0.000 C 
ATOM      2  C   UNL     1       2.379   4.675  19.867  0.00  0.00    +0.000 C 
ENDROOT
BRANCH   2   3
ATOM      3  N   UNL     1       2.576   5.900  20.482  0.00  0.00    +0.000 N 
ATOM      4  H   UNL     1       2.648   5.813  21.488  0.00  0.00    +0.000 HD
BRANCH   3   5
ATOM      5  C   UNL     1       2.076   7.153  20.061  0.00  0.00    +0.000 A 
ATOM      6  C   UNL     1       1.255   7.964  20.855  0.00  0.00    +0.000 A 
ATOM      7  C   UNL     1       0.775   9.195  20.385  0.00  0.00    +0.000 A 
ATOM      8  C   UNL     1       1.116   9.648  19.114  0.00  0.00    +0.000 A 
ATOM      9  C   UNL     1       1.872   8.822  18.284  0.00  0.00    +0.000 A 
ATOM     10  C   UNL     1       2.336   7.583  18.752  0.00  0.00    +0.000 A 
BRANCH   8  11
ATOM     11  O   UNL     1       0.633  10.881  18.764  0.00  0.00    +0.000 OA
BRANCH  11  12
ATOM     12  C   UNL     1      -0.771  11.058  18.961  0.00  0.00    +0.000 C 
ATOM     13  C   UNL     1      -1.500  10.474  17.764  0.00  0.00    +0.000 C 
ENDBRANCH  11  12
ENDBRANCH   8  11
ENDBRANCH   3   5
ENDBRANCH   2   3
BRANCH   2  14
ATOM     14  N   UNL     1       3.343   4.134  19.034  0.00  0.00    +0.000 N 
ATOM     15  H   UNL     1       3.509   3.148  19.214  0.00  0.00    +0.000 HD
BRANCH  14  16
ATOM     16  C   UNL     1       4.484   4.812  18.544  0.00  0.00    +0.000 A 
ATOM     17  C   UNL     1       5.617   5.056  19.333  0.00  0.00    +0.000 A 
ATOM     18  C   UNL     1       6.710   5.779  18.839  0.00  0.00    +0.000 A 
ATOM     19  C   UNL     1       6.692   6.274  17.537  0.00  0.00    +0.000 A 
ATOM     20  C   UNL     1       5.559   6.089  16.753  0.00  0.00    +0.000 A 
ATOM     21  C   UNL     1       4.461   5.365  17.259  0.00  0.00    +0.000 A 
BRANCH  19  22
ATOM     22  O   UNL     1       7.812   6.968  17.163  0.00  0.00    +0.000 OA
BRANCH  22  23
ATOM     23  C   UNL     1       7.744   8.380  17.363  0.00  0.00    +0.000 C 
ATOM     24  C   UNL     1       8.588   8.726  18.576  0.00  0.00    +0.000 C 
ENDBRANCH  22  23
ENDBRANCH  19  22
ENDBRANCH  14  16
ENDBRANCH   2  14
TORSDOF 8
ENDMDL
