MODEL 1
REMARK VINA RESULT:      -6.8      0.000      0.000
REMARK  Name = 
REMARK  1 active torsions:
REMARK  status: ('A' for Active; 'I' for Inactive)
REMARK    1  A    between atoms: C_1  and  C_2
REMARK                            x       y       z     vdW  Elec       q    Type
REMARK                         _______ _______ _______ _____ _____    ______ ____
ROOT
ATOM      1  C   UNL     1       1.064   3.108  20.504  0.00  0.00    +0.000 C 
ATOM      2  C   UNL     1       1.691   4.423  20.125  0.00  0.00    +0.000 C 
ATOM      3  O   UNL     1       1.612   5.386  20.888  0.00  0.00    +0.000 OA
ATOM      4  N   UNL     1       2.382   4.479  18.929  0.00  0.00    +0.000 N 
ATOM      5  C   UNL     1       3.109   5.699  18.579  0.00  0.00    +0.000 C 
ATOM      6  C   UNL     1       4.595   5.392  18.330  0.00  0.00    +0.000 C 
ATOM      7  N   UNL     1       4.739   4.332  17.317  0.00  0.00    +0.000 N 
ATOM      8  C   UNL     1       5.525   4.451  16.180  0.00  0.00    +0.000 A 
ATOM      9  C   UNL     1       6.766   5.311  16.224  0.00  0.00    +0.000 A 
ATOM     10  C   UNL     1       7.512   5.456  15.123  0.00  0.00    +0.000 A 
ATOM     11  C   UNL     1       7.104   4.796  13.953  0.00  0.00    +0.000 A 
ATOM     12  N   UNL     1       7.573   4.736  12.728  0.00  0.00    +0.000 NA
ATOM     13  N   UNL     1       6.715   3.904  12.046  0.00  0.00    +0.000 NA
ATOM     14  N   UNL     1       5.743   3.460  12.835  0.00  0.00    +0.000 NA
ATOM     15  N   UNL     1       5.975   4.011  14.035  0.00  0.00    +0.000 N 
ATOM     16  N   UNL     1       5.169   3.795  15.104  0.00  0.00    +0.000 NA
ATOM     17  C   UNL     1       3.979   3.101  17.610  0.00  0.00    +0.000 C 
ATOM     18  C   UNL     1       2.505   3.404  17.935  0.00  0.00    +0.000 C 
ENDROOT
TORSDOF 0
ENDMDL
MODEL 2
REMARK VINA RESULT:      -6.8      3.334      4.605
REMARK  Name = 
REMARK  1 active torsions:
REMARK  status: ('A' for Active; 'I' for Inactive)
REMARK    1  A    between atoms: C_1  and  C_2
REMARK                            x       y       z     vdW  Elec       q    Type
REMARK                         _______ _______ _______ _____ _____    ______ ____
ROOT
ATOM      1  C   UNL     1      -0.782  10.612  19.467  0.00  0.00    +0.000 C 
ATOM      2  C   UNL     1      -0.026   9.685  20.380  0.00  0.00    +0.000 C 
ATOM      3  O   UNL     1      -0.458   9.442  21.507  0.00  0.00    +0.000 OA
ATOM      4  N   UNL     1       1.124   9.100  19.885  0.00  0.00    +0.000 N 
ATOM      5  C   UNL     1       1.824   8.101  20.693  0.00  0.00    +0.000 C 
ATOM      6  C   UNL     1       1.956   6.777  19.922  0.00  0.00    +0.000 C 
ATOM      7  N   UNL     1       2.597   7.003  18.615  0.00  0.00    +0.000 N 
ATOM      8  C   UNL     1       3.709   6.305  18.169  0.00  0.00    +0.000 A 
ATOM      9  C   UNL     1       3.918   4.879  18.619  0.00  0.00    +0.000 A 
ATOM     10  C   UNL     1       5.006   4.210  18.218  0.00  0.00    +0.000 A 
ATOM     11  C   UNL     1       5.922   4.871  17.385  0.00  0.00    +0.000 A 
ATOM     12  N   UNL     1       7.067   4.532  16.838  0.00  0.00    +0.000 NA
ATOM     13  N   UNL     1       7.470   5.633  16.117  0.00  0.00    +0.000 NA
ATOM     14  N   UNL     1       6.591   6.624  16.217  0.00  0.00    +0.000 NA
ATOM     15  N   UNL     1       5.614   6.159  17.009  0.00  0.00    +0.000 N 
ATOM     16  N   UNL     1       4.536   6.908  17.352  0.00  0.00    +0.000 NA
ATOM     17  C   UNL     1       1.948   8.042  17.790  0.00  0.00    +0.000 C 
ATOM     18  C   UNL     1       1.743   9.349  18.576  0.00  0.00    +0.000 C 
ENDROOT
TORSDOF 0
ENDMDL
MODEL 3
REMARK VINA RESULT:      -6.7      2.842      6.727
REMARK  Name = 
REMARK  1 active torsions:
REMARK  status: ('A' for Active; 'I' for Inactive)
REMARK    1  A    between atoms: C_1  and  C_2
REMARK                            x       y       z     vdW  Elec       q    Type
REMARK                         _______ _______ _______ _____ _____    ______ ____
ROOT
ATOM      1  C   UNL     1       7.230   4.226  12.398  0.00  0.00    +0.000 C 
ATOM      2  C   UNL     1       7.596   4.964  13.658  0.00  0.00    +0.000 C 
ATOM      3  O   UNL     1       8.469   5.831  13.632  0.00  0.00    +0.000 OA
ATOM      4  N   UNL     1       6.887   4.660  14.805  0.00  0.00    +0.000 N 
ATOM      5  C   UNL     1       7.125   5.436  16.021  0.00  0.00    +0.000 C 
ATOM      6  C   UNL     1       5.818   6.072  16.523  0.00  0.00    +0.000 C 
ATOM      7  N   UNL     1       4.779   5.043  16.699  0.00  0.00    +0.000 N 
ATOM      8  C   UNL     1       4.059   4.863  17.870  0.00  0.00    +0.000 A 
ATOM      9  C   UNL     1       3.778   6.054  18.756  0.00  0.00    +0.000 A 
ATOM     10  C   UNL     1       3.112   5.883  19.905  0.00  0.00    +0.000 A 
ATOM     11  C   UNL     1       2.698   4.587  20.245  0.00  0.00    +0.000 A 
ATOM     12  N   UNL     1       2.060   4.072  21.272  0.00  0.00    +0.000 NA
ATOM     13  N   UNL     1       1.952   2.727  21.001  0.00  0.00    +0.000 NA
ATOM     14  N   UNL     1       2.507   2.423  19.833  0.00  0.00    +0.000 NA
ATOM     15  N   UNL     1       2.978   3.581  19.347  0.00  0.00    +0.000 N 
ATOM     16  N   UNL     1       3.631   3.661  18.161  0.00  0.00    +0.000 NA
ATOM     17  C   UNL     1       4.544   4.204  15.506  0.00  0.00    +0.000 C 
ATOM     18  C   UNL     1       5.857   3.622  14.951  0.00  0.00    +0.000 C 
ENDROOT
TORSDOF 0
ENDMDL
MODEL 4
REMARK VINA RESULT:      -6.4      4.151      6.077
REMARK  Name = 
REMARK  1 active torsions:
REMARK  status: ('A' for Active; 'I' for Inactive)
REMARK    1  A    between atoms: C_1  and  C_2
REMARK                            x       y       z     vdW  Elec       q    Type
REMARK                         _______ _______ _______ _____ _____    ______ ____
ROOT
ATOM      1  C   UNL     1       0.321  11.655  21.001  0.00  0.00    +0.000 C 
ATOM      2  C   UNL     1       0.566  11.216  19.583  0.00  0.00    +0.000 C 
ATOM      3  O   UNL     1       0.639  12.052  18.682  0.00  0.00    +0.000 OA
ATOM      4  N   UNL     1       0.746   9.864  19.355  0.00  0.00    +0.000 N 
ATOM      5  C   UNL     1       1.106   9.405  18.014  0.00  0.00    +0.000 C 
ATOM      6  C   UNL     1       2.419   8.606  18.049  0.00  0.00    +0.000 C 
ATOM      7  N   UNL     1       2.326   7.504  19.023  0.00  0.00    +0.000 N 
ATOM      8  C   UNL     1       2.605   6.180  18.720  0.00  0.00    +0.000 A 
ATOM      9  C   UNL     1       3.636   5.864  17.662  0.00  0.00    +0.000 A 
ATOM     10  C   UNL     1       3.888   4.589  17.342  0.00  0.00    +0.000 A 
ATOM     11  C   UNL     1       3.173   3.583  18.010  0.00  0.00    +0.000 A 
ATOM     12  N   UNL     1       3.155   2.272  17.934  0.00  0.00    +0.000 NA
ATOM     13  N   UNL     1       2.233   1.862  18.870  0.00  0.00    +0.000 NA
ATOM     14  N   UNL     1       1.700   2.897  19.509  0.00  0.00    +0.000 NA
ATOM     15  N   UNL     1       2.282   3.983  18.980  0.00  0.00    +0.000 N 
ATOM     16  N   UNL     1       1.972   5.242  19.380  0.00  0.00    +0.000 NA
ATOM     17  C   UNL     1       1.915   7.921  20.379  0.00  0.00    +0.000 C 
ATOM     18  C   UNL     1       0.641   8.786  20.348  0.00  0.00    +0.000 C 
ENDROOT
TORSDOF 0
ENDMDL
MODEL 5
REMARK VINA RESULT:      -6.3      4.492      8.108
REMARK  Name = 
REMARK  1 active torsions:
REMARK  status: ('A' for Active; 'I' for Inactive)
REMARK    1  A    between atoms: C_1  and  C_2
REMARK                            x       y       z     vdW  Elec       q    Type
REMARK                         _______ _______ _______ _____ _____    ______ ____
ROOT
ATOM      1  C   UNL     1       4.030   2.254  19.276  0.00  0.00    +0.000 C 
ATOM      2  C   UNL     1       4.506   3.608  18.820  0.00  0.00    +0.000 C 
ATOM      3  O   UNL     1       5.314   3.697  17.896  0.00  0.00    +0.000 OA
ATOM      4  N   UNL     1       3.968   4.717  19.444  0.00  0.00    +0.000 N 
ATOM      5  C   UNL     1       4.309   6.052  18.952  0.00  0.00    +0.000 C 
ATOM      6  C   UNL     1       3.039   6.829  18.570  0.00  0.00    +0.000 C 
ATOM      7  N   UNL     1       2.096   6.863  19.701  0.00  0.00    +0.000 N 
ATOM      8  C   UNL     1       1.542   8.028  20.211  0.00  0.00    +0.000 A 
ATOM      9  C   UNL     1       1.302   9.199  19.288  0.00  0.00    +0.000 A 
ATOM     10  C   UNL     1       0.797  10.338  19.779  0.00  0.00    +0.000 A 
ATOM     11  C   UNL     1       0.510  10.399  21.151  0.00  0.00    +0.000 A 
ATOM     12  N   UNL     1       0.040  11.335  21.945  0.00  0.00    +0.000 NA
ATOM     13  N   UNL     1      -0.018  10.761  23.195  0.00  0.00    +0.000 NA
ATOM     14  N   UNL     1       0.403   9.502  23.169  0.00  0.00    +0.000 NA
ATOM     15  N   UNL     1       0.736   9.261  21.893  0.00  0.00    +0.000 N 
ATOM     16  N   UNL     1       1.229   8.065  21.482  0.00  0.00    +0.000 NA
ATOM     17  C   UNL     1       1.764   5.537  20.259  0.00  0.00    +0.000 C 
ATOM     18  C   UNL     1       3.030   4.719  20.576  0.00  0.00    +0.000 C 
ENDROOT
TORSDOF 0
ENDMDL
MODEL 6
REMARK VINA RESULT:      -6.3      4.636      7.335
REMARK  Name = 
REMARK  1 active torsions:
REMARK  status: ('A' for Active; 'I' for Inactive)
REMARK    1  A    between atoms: C_1  and  C_2
REMARK                            x       y       z     vdW  Elec       q    Type
REMARK                         _______ _______ _______ _____ _____    ______ ____
ROOT
ATOM      1  C   UNL     1       3.678   2.130  17.957  0.00  0.00    +0.000 C 
ATOM      2  C   UNL     1       2.543   2.464  18.889  0.00  0.00    +0.000 C 
ATOM      3  O   UNL     1       2.051   1.588  19.600  0.00  0.00    +0.000 OA
ATOM      4  N   UNL     1       2.125   3.781  18.938  0.00  0.00    +0.000 N 
ATOM      5  C   UNL     1       1.110   4.174  19.916  0.00  0.00    +0.000 C 
ATOM      6  C   UNL     1       1.636   5.300  20.820  0.00  0.00    +0.000 C 
ATOM      7  N   UNL     1       2.113   6.433  20.007  0.00  0.00    +0.000 N 
ATOM      8  C   UNL     1       1.692   7.743  20.184  0.00  0.00    +0.000 A 
ATOM      9  C   UNL     1       1.296   8.213  21.564  0.00  0.00    +0.000 A 
ATOM     10  C   UNL     1       0.858   9.466  21.737  0.00  0.00    +0.000 A 
ATOM     11  C   UNL     1       0.782  10.303  20.613  0.00  0.00    +0.000 A 
ATOM     12  N   UNL     1       0.392  11.544  20.424  0.00  0.00    +0.000 NA
ATOM     13  N   UNL     1       0.571  11.784  19.080  0.00  0.00    +0.000 NA
ATOM     14  N   UNL     1       1.063  10.718  18.460  0.00  0.00    +0.000 NA
ATOM     15  N   UNL     1       1.201   9.781  19.410  0.00  0.00    +0.000 N 
ATOM     16  N   UNL     1       1.669   8.536  19.143  0.00  0.00    +0.000 NA
ATOM     17  C   UNL     1       3.103   6.068  18.974  0.00  0.00    +0.000 C 
ATOM     18  C   UNL     1       2.617   4.890  18.110  0.00  0.00    +0.000 C 
ENDROOT
TORSDOF 0
ENDMDL
MODEL 7
REMARK VINA RESULT:      -6.3      4.614      7.003
REMARK  Name = 
REMARK  1 active torsions:
REMARK  status: ('A' for Active; 'I' for Inactive)
REMARK    1  A    between atoms: C_1  and  C_2
REMARK                            x       y       z     vdW  Elec       q    Type
REMARK                         _______ _______ _______ _____ _____    ______ ____
ROOT
ATOM      1  C   UNL     1      -1.122  11.973  22.706  0.00  0.00    +0.000 C 
ATOM      2  C   UNL     1      -1.075  11.607  21.246  0.00  0.00    +0.000 C 
ATOM      3  O   UNL     1      -1.426  12.423  20.394  0.00  0.00    +0.000 OA
ATOM      4  N   UNL     1      -0.585  10.357  20.917  0.00  0.00    +0.000 N 
ATOM      5  C   UNL     1      -0.407  10.006  19.508  0.00  0.00    +0.000 C 
ATOM      6  C   UNL     1       1.051   9.604  19.229  0.00  0.00    +0.000 C 
ATOM      7  N   UNL     1       1.472   8.527  20.143  0.00  0.00    +0.000 N 
ATOM      8  C   UNL     1       2.032   7.331  19.721  0.00  0.00    +0.000 A 
ATOM      9  C   UNL     1       2.859   7.306  18.457  0.00  0.00    +0.000 A 
ATOM     10  C   UNL     1       3.377   6.148  18.026  0.00  0.00    +0.000 A 
ATOM     11  C   UNL     1       3.123   4.989  18.775  0.00  0.00    +0.000 A 
ATOM     12  N   UNL     1       3.449   3.724  18.636  0.00  0.00    +0.000 NA
ATOM     13  N   UNL     1       2.896   3.081  19.721  0.00  0.00    +0.000 NA
ATOM     14  N   UNL     1       2.249   3.932  20.509  0.00  0.00    +0.000 NA
ATOM     15  N   UNL     1       2.385   5.133  19.928  0.00  0.00    +0.000 N 
ATOM     16  N   UNL     1       1.835   6.260  20.447  0.00  0.00    +0.000 NA
ATOM     17  C   UNL     1       1.262   8.825  21.574  0.00  0.00    +0.000 C 
ATOM     18  C   UNL     1      -0.176   9.300  21.852  0.00  0.00    +0.000 C 
ENDROOT
TORSDOF 0
ENDMDL
MODEL 8
REMARK VINA RESULT:      -6.2      4.586      8.212
REMARK  Name = 
REMARK  1 active torsions:
REMARK  status: ('A' for Active; 'I' for Inactive)
REMARK    1  A    between atoms: C_1  and  C_2
REMARK                            x       y       z     vdW  Elec       q    Type
REMARK                         _______ _______ _______ _____ _____    ______ ____
ROOT
ATOM      1  C   UNL     1       4.810   3.535  17.246  0.00  0.00    +0.000 C 
ATOM      2  C   UNL     1       4.935   5.008  16.962  0.00  0.00    +0.000 C 
ATOM      3  O   UNL     1       5.505   5.393  15.940  0.00  0.00    +0.000 OA
ATOM      4  N   UNL     1       4.350   5.883  17.858  0.00  0.00    +0.000 N 
ATOM      5  C   UNL     1       4.341   7.315  17.559  0.00  0.00    +0.000 C 
ATOM      6  C   UNL     1       2.903   7.858  17.551  0.00  0.00    +0.000 C 
ATOM      7  N   UNL     1       2.224   7.536  18.818  0.00  0.00    +0.000 N 
ATOM      8  C   UNL     1       1.591   8.477  19.617  0.00  0.00    +0.000 A 
ATOM      9  C   UNL     1       0.962   9.690  18.974  0.00  0.00    +0.000 A 
ATOM     10  C   UNL     1       0.377  10.619  19.741  0.00  0.00    +0.000 A 
ATOM     11  C   UNL     1       0.375  10.426  21.131  0.00  0.00    +0.000 A 
ATOM     12  N   UNL     1      -0.078  11.123  22.149  0.00  0.00    +0.000 NA
ATOM     13  N   UNL     1       0.226  10.380  23.267  0.00  0.00    +0.000 NA
ATOM     14  N   UNL     1       0.848   9.252  22.944  0.00  0.00    +0.000 NA
ATOM     15  N   UNL     1       0.947   9.267  21.606  0.00  0.00    +0.000 N 
ATOM     16  N   UNL     1       1.547   8.270  20.909  0.00  0.00    +0.000 NA
ATOM     17  C   UNL     1       2.254   6.104  19.180  0.00  0.00    +0.000 C 
ATOM     18  C   UNL     1       3.682   5.532  19.119  0.00  0.00    +0.000 C 
ENDROOT
TORSDOF 0
ENDMDL
MODEL 9
REMARK VINA RESULT:      -6.2      5.049      7.077
REMARK  Name = 
REMARK  1 active torsions:
REMARK  status: ('A' for Active; 'I' for Inactive)
REMARK    1  A    between atoms: C_1  and  C_2
REMARK                            x       y       z     vdW  Elec       q    Type
REMARK                         _______ _______ _______ _____ _____    ______ ____
ROOT
ATOM      1  C   UNL     1      -0.422  12.287  21.001  0.00  0.00    +0.000 C 
ATOM      2  C   UNL     1      -0.078  11.621  19.696  0.00  0.00    +0.000 C 
ATOM      3  O   UNL     1       0.018  12.293  18.668  0.00  0.00    +0.000 OA
ATOM      4  N   UNL     1       0.165  10.261  19.718  0.00  0.00    +0.000 N 
ATOM      5  C   UNL     1       0.620   9.595  18.498  0.00  0.00    +0.000 C 
ATOM      6  C   UNL     1       1.958   8.876  18.740  0.00  0.00    +0.000 C 
ATOM      7  N   UNL     1       1.848   7.955  19.884  0.00  0.00    +0.000 N 
ATOM      8  C   UNL     1       2.194   6.613  19.833  0.00  0.00    +0.000 A 
ATOM      9  C   UNL     1       3.296   6.168  18.901  0.00  0.00    +0.000 A 
ATOM     10  C   UNL     1       3.613   4.870  18.822  0.00  0.00    +0.000 A 
ATOM     11  C   UNL     1       2.898   3.962  19.617  0.00  0.00    +0.000 A 
ATOM     12  N   UNL     1       2.933   2.658  19.771  0.00  0.00    +0.000 NA
ATOM     13  N   UNL     1       1.974   2.373  20.716  0.00  0.00    +0.000 NA
ATOM     14  N   UNL     1       1.366   3.477  21.136  0.00  0.00    +0.000 NA
ATOM     15  N   UNL     1       1.937   4.482  20.456  0.00  0.00    +0.000 N 
ATOM     16  N   UNL     1       1.558   5.775  20.612  0.00  0.00    +0.000 NA
ATOM     17  C   UNL     1       1.344   8.580  21.124  0.00  0.00    +0.000 C 
ATOM     18  C   UNL     1       0.043   9.366  20.877  0.00  0.00    +0.000 C 
ENDROOT
TORSDOF 0
ENDMDL
