MODEL 1
REMARK VINA RESULT:      -6.1      0.000      0.000
REMARK  Name = 
REMARK  7 active torsions:
REMARK  status: ('A' for Active; 'I' for Inactive)
REMARK    1  A    between atoms: C_2  and  C_3
REMARK    2  A    between atoms: C_8  and  O_9
REMARK    3  A    between atoms: O_9  and  C_10
REMARK    4  A    between atoms: C_10  and  C_11
REMARK    5  A    between atoms: C_11  and  C_12
REMARK    6  A    between atoms: C_12  and  N_13
REMARK    7  A    between atoms: N_13  and  C_14
REMARK                            x       y       z     vdW  Elec       q    Type
REMARK                         _______ _______ _______ _____ _____    ______ ____
ROOT
ATOM      1  C   UNL     1       6.641   5.145  19.074  0.00  0.00    +0.000 C 
ENDROOT
BRANCH   1   2
ATOM      2  O   UNL     1       5.349   5.654  19.373  0.00  0.00    +0.000 OA
BRANCH   2   8
ATOM      3  C   UNL     1       3.021   5.612  18.400  0.00  0.00    +0.000 A 
ATOM      4  C   UNL     1       2.050   4.790  17.795  0.00  0.00    +0.000 A 
ATOM      5  C   UNL     1       2.291   3.438  17.564  0.00  0.00    +0.000 A 
ATOM      6  C   UNL     1       3.510   2.888  17.936  0.00  0.00    +0.000 A 
ATOM      7  C   UNL     1       4.482   3.693  18.537  0.00  0.00    +0.000 A 
ATOM      8  C   UNL     1       4.259   5.061  18.778  0.00  0.00    +0.000 A 
BRANCH   3  10
ATOM      9  N   UNL     1       2.311   8.088  18.726  0.00  0.00    +0.000 NA
ATOM     10  C   UNL     1       2.636   6.984  18.577  0.00  0.00    +0.000 C 
ENDBRANCH   3  10
ENDBRANCH   2   8
ENDBRANCH   1   2
BRANCH   1  11
ATOM     11  C   UNL     1       7.632   6.269  18.772  0.00  0.00    +0.000 C 
BRANCH  11  12
ATOM     12  C   UNL     1       7.097   7.051  17.570  0.00  0.00    +0.000 C 
BRANCH  12  13
ATOM     13  N   UNL     1       7.592   6.524  16.301  0.00  0.00    +0.000 NA
ATOM     14  H   UNL     1       8.577   6.274  16.394  0.00  0.00    +0.000 HD
BRANCH  13  15
ATOM     15  C   UNL     1       6.821   5.357  15.872  0.00  0.00    +0.000 C 
ATOM     16  C   UNL     1       5.386   5.736  15.513  0.00  0.00    +0.000 C 
ATOM     17  C   UNL     1       4.876   4.527  14.737  0.00  0.00    +0.000 C 
ATOM     18  C   UNL     1       6.103   3.914  14.062  0.00  0.00    +0.000 C 
ATOM     19  C   UNL     1       7.310   4.689  14.582  0.00  0.00    +0.000 C 
ENDBRANCH  13  15
ENDBRANCH  12  13
ENDBRANCH  11  12
ENDBRANCH   1  11
TORSDOF 7
ENDMDL
MODEL 2
REMARK VINA RESULT:      -6.0      1.967      5.213
REMARK  Name = 
REMARK  7 active torsions:
REMARK  status: ('A' for Active; 'I' for Inactive)
REMARK    1  A    between atoms: C_2  and  C_3
REMARK    2  A    between atoms: C_8  and  O_9
REMARK    3  A    between atoms: O_9  and  C_10
REMARK    4  A    between atoms: C_10  and  C_11
REMARK    5  A    between atoms: C_11  and  C_12
REMARK    6  A    between atoms: C_12  and  N_13
REMARK    7  A    between atoms: N_13  and  C_14
REMARK                            x       y       z     vdW  Elec       q    Type
REMARK                         _______ _______ _______ _____ _____    ______ ____
ROOT
ATOM      1  C   UNL     1       3.469   7.424  17.350  0.00  0.00    +0.000 C 
ENDROOT
BRANCH   1   2
ATOM      2  O   UNL     1       4.744   7.099  17.888  0.00  0.00    +0.000 OA
BRANCH   2   8
ATOM      3  C   UNL     1       6.618   5.429  17.639  0.00  0.00    +0.000 A 
ATOM      4  C   UNL     1       7.281   4.582  16.730  0.00  0.00    +0.000 A 
ATOM      5  C   UNL     1       6.887   4.506  15.396  0.00  0.00    +0.000 A 
ATOM      6  C   UNL     1       5.822   5.278  14.953  0.00  0.00    +0.000 A 
ATOM      7  C   UNL     1       5.156   6.122  15.846  0.00  0.00    +0.000 A 
ATOM      8  C   UNL     1       5.537   6.213  17.197  0.00  0.00    +0.000 A 
BRANCH   3  10
ATOM      9  N   UNL     1       7.557   5.400  20.060  0.00  0.00    +0.000 NA
ATOM     10  C   UNL     1       7.131   5.407  18.981  0.00  0.00    +0.000 C 
ENDBRANCH   3  10
ENDBRANCH   2   8
ENDBRANCH   1   2
BRANCH   1  11
ATOM     11  C   UNL     1       2.354   6.627  18.027  0.00  0.00    +0.000 C 
BRANCH  11  12
ATOM     12  C   UNL     1       2.577   6.704  19.539  0.00  0.00    +0.000 C 
BRANCH  12  13
ATOM     13  N   UNL     1       3.535   5.706  20.009  0.00  0.00    +0.000 NA
ATOM     14  H   UNL     1       3.961   6.022  20.880  0.00  0.00    +0.000 HD
BRANCH  13  15
ATOM     15  C   UNL     1       2.894   4.405  20.211  0.00  0.00    +0.000 C 
ATOM     16  C   UNL     1       1.407   4.558  20.522  0.00  0.00    +0.000 C 
ATOM     17  C   UNL     1       0.848   3.156  20.309  0.00  0.00    +0.000 C 
ATOM     18  C   UNL     1       1.736   2.507  19.249  0.00  0.00    +0.000 C 
ATOM     19  C   UNL     1       2.874   3.489  18.984  0.00  0.00    +0.000 C 
ENDBRANCH  13  15
ENDBRANCH  12  13
ENDBRANCH  11  12
ENDBRANCH   1  11
TORSDOF 7
ENDMDL
MODEL 3
REMARK VINA RESULT:      -6.0      1.926      5.313
REMARK  Name = 
REMARK  7 active torsions:
REMARK  status: ('A' for Active; 'I' for Inactive)
REMARK    1  A    between atoms: C_2  and  C_3
REMARK    2  A    between atoms: C_8  and  O_9
REMARK    3  A    between atoms: O_9  and  C_10
REMARK    4  A    between atoms: C_10  and  C_11
REMARK    5  A    between atoms: C_11  and  C_12
REMARK    6  A    between atoms: C_12  and  N_13
REMARK    7  A    between atoms: N_13  and  C_14
REMARK                            x       y       z     vdW  Elec       q    Type
REMARK                         _______ _______ _______ _____ _____    ______ ____
ROOT
ATOM      1  C   UNL     1       3.379   7.233  17.367  0.00  0.00    +0.000 C 
ENDROOT
BRANCH   1   2
ATOM      2  O   UNL     1       4.764   7.199  17.681  0.00  0.00    +0.000 OA
BRANCH   2   8
ATOM      3  C   UNL     1       6.586   5.456  17.593  0.00  0.00    +0.000 A 
ATOM      4  C   UNL     1       7.251   4.538  16.757  0.00  0.00    +0.000 A 
ATOM      5  C   UNL     1       6.901   4.401  15.416  0.00  0.00    +0.000 A 
ATOM      6  C   UNL     1       5.880   5.181  14.892  0.00  0.00    +0.000 A 
ATOM      7  C   UNL     1       5.213   6.095  15.713  0.00  0.00    +0.000 A 
ATOM      8  C   UNL     1       5.549   6.249  17.069  0.00  0.00    +0.000 A 
BRANCH   3  10
ATOM      9  N   UNL     1       7.423   5.506  20.051  0.00  0.00    +0.000 NA
ATOM     10  C   UNL     1       7.052   5.493  18.952  0.00  0.00    +0.000 C 
ENDBRANCH   3  10
ENDBRANCH   2   8
ENDBRANCH   1   2
BRANCH   1  11
ATOM     11  C   UNL     1       2.611   8.160  18.309  0.00  0.00    +0.000 C 
BRANCH  11  12
ATOM     12  C   UNL     1       2.155   7.331  19.511  0.00  0.00    +0.000 C 
BRANCH  12  13
ATOM     13  N   UNL     1       3.022   6.179  19.750  0.00  0.00    +0.000 NA
ATOM     14  H   UNL     1       3.373   6.207  20.708  0.00  0.00    +0.000 HD
BRANCH  13  15
ATOM     15  C   UNL     1       2.312   4.920  19.518  0.00  0.00    +0.000 C 
ATOM     16  C   UNL     1       3.279   3.742  19.432  0.00  0.00    +0.000 C 
ATOM     17  C   UNL     1       2.377   2.523  19.588  0.00  0.00    +0.000 C 
ATOM     18  C   UNL     1       1.200   2.980  20.449  0.00  0.00    +0.000 C 
ATOM     19  C   UNL     1       1.371   4.483  20.645  0.00  0.00    +0.000 C 
ENDBRANCH  13  15
ENDBRANCH  12  13
ENDBRANCH  11  12
ENDBRANCH   1  11
TORSDOF 7
ENDMDL
MODEL 4
REMARK VINA RESULT:      -5.9      2.194      2.927
REMARK  Name = 
REMARK  7 active torsions:
REMARK  status: ('A' for Active; 'I' for Inactive)
REMARK    1  A    between atoms: C_2  and  C_3
REMARK    2  A    between atoms: C_8  and  O_9
REMARK    3  A    between atoms: O_9  and  C_10
REMARK    4  A    between atoms: C_10  and  C_11
REMARK    5  A    between atoms: C_11  and  C_12
REMARK    6  A    between atoms: C_12  and  N_13
REMARK    7  A    between atoms: N_13  and  C_14
REMARK                            x       y       z     vdW  Elec       q    Type
REMARK                         _______ _______ _______ _____ _____    ______ ____
ROOT
ATOM      1  C   UNL     1       6.061   4.863  18.803  0.00  0.00    +0.000 C 
ENDROOT
BRANCH   1   2
ATOM      2  O   UNL     1       4.778   5.198  19.314  0.00  0.00    +0.000 OA
BRANCH   2   8
ATOM      3  C   UNL     1       3.531   3.012  19.489  0.00  0.00    +0.000 A 
ATOM      4  C   UNL     1       2.360   2.330  19.103  0.00  0.00    +0.000 A 
ATOM      5  C   UNL     1       1.395   2.945  18.310  0.00  0.00    +0.000 A 
ATOM      6  C   UNL     1       1.589   4.254  17.889  0.00  0.00    +0.000 A 
ATOM      7  C   UNL     1       2.746   4.941  18.266  0.00  0.00    +0.000 A 
ATOM      8  C   UNL     1       3.732   4.339  19.067  0.00  0.00    +0.000 A 
BRANCH   3  10
ATOM      9  N   UNL     1       5.169   1.654  20.978  0.00  0.00    +0.000 NA
ATOM     10  C   UNL     1       4.438   2.255  20.306  0.00  0.00    +0.000 C 
ENDBRANCH   3  10
ENDBRANCH   2   8
ENDBRANCH   1   2
BRANCH   1  11
ATOM     11  C   UNL     1       6.526   5.868  17.749  0.00  0.00    +0.000 C 
BRANCH  11  12
ATOM     12  C   UNL     1       7.006   5.078  16.530  0.00  0.00    +0.000 C 
BRANCH  12  13
ATOM     13  N   UNL     1       5.978   4.978  15.496  0.00  0.00    +0.000 NA
ATOM     14  H   UNL     1       5.711   5.913  15.187  0.00  0.00    +0.000 HD
BRANCH  13  15
ATOM     15  C   UNL     1       6.447   4.192  14.354  0.00  0.00    +0.000 C 
ATOM     16  C   UNL     1       5.283   3.722  13.484  0.00  0.00    +0.000 C 
ATOM     17  C   UNL     1       5.955   3.288  12.186  0.00  0.00    +0.000 C 
ATOM     18  C   UNL     1       7.209   4.151  12.054  0.00  0.00    +0.000 C 
ATOM     19  C   UNL     1       7.314   4.955  13.347  0.00  0.00    +0.000 C 
ENDBRANCH  13  15
ENDBRANCH  12  13
ENDBRANCH  11  12
ENDBRANCH   1  11
TORSDOF 7
ENDMDL
MODEL 5
REMARK VINA RESULT:      -5.9      1.730      2.352
REMARK  Name = 
REMARK  7 active torsions:
REMARK  status: ('A' for Active; 'I' for Inactive)
REMARK    1  A    between atoms: C_2  and  C_3
REMARK    2  A    between atoms: C_8  and  O_9
REMARK    3  A    between atoms: O_9  and  C_10
REMARK    4  A    between atoms: C_10  and  C_11
REMARK    5  A    between atoms: C_11  and  C_12
REMARK    6  A    between atoms: C_12  and  N_13
REMARK    7  A    between atoms: N_13  and  C_14
REMARK                            x       y       z     vdW  Elec       q    Type
REMARK                         _______ _______ _______ _____ _____    ______ ____
ROOT
ATOM      1  C   UNL     1       6.553   4.971  19.245  0.00  0.00    +0.000 C 
ENDROOT
BRANCH   1   2
ATOM      2  O   UNL     1       5.321   5.658  19.413  0.00  0.00    +0.000 OA
BRANCH   2   8
ATOM      3  C   UNL     1       3.749   3.691  19.253  0.00  0.00    +0.000 A 
ATOM      4  C   UNL     1       2.496   3.266  18.770  0.00  0.00    +0.000 A 
ATOM      5  C   UNL     1       1.655   4.136  18.081  0.00  0.00    +0.000 A 
ATOM      6  C   UNL     1       2.057   5.447  17.865  0.00  0.00    +0.000 A 
ATOM      7  C   UNL     1       3.298   5.881  18.341  0.00  0.00    +0.000 A 
ATOM      8  C   UNL     1       4.161   5.019  19.040  0.00  0.00    +0.000 A 
BRANCH   3  10
ATOM      9  N   UNL     1       5.112   1.871  20.507  0.00  0.00    +0.000 NA
ATOM     10  C   UNL     1       4.511   2.688  19.944  0.00  0.00    +0.000 C 
ENDBRANCH   3  10
ENDBRANCH   2   8
ENDBRANCH   1   2
BRANCH   1  11
ATOM     11  C   UNL     1       7.626   5.880  18.646  0.00  0.00    +0.000 C 
BRANCH  11  12
ATOM     12  C   UNL     1       6.980   6.683  17.516  0.00  0.00    +0.000 C 
BRANCH  12  13
ATOM     13  N   UNL     1       7.577   6.388  16.215  0.00  0.00    +0.000 NA
ATOM     14  H   UNL     1       8.587   6.286  16.316  0.00  0.00    +0.000 HD
BRANCH  13  15
ATOM     15  C   UNL     1       7.010   5.171  15.632  0.00  0.00    +0.000 C 
ATOM     16  C   UNL     1       5.485   5.229  15.592  0.00  0.00    +0.000 C 
ATOM     17  C   UNL     1       5.106   4.110  14.628  0.00  0.00    +0.000 C 
ATOM     18  C   UNL     1       6.275   3.984  13.651  0.00  0.00    +0.000 C 
ATOM     19  C   UNL     1       7.362   4.926  14.161  0.00  0.00    +0.000 C 
ENDBRANCH  13  15
ENDBRANCH  12  13
ENDBRANCH  11  12
ENDBRANCH   1  11
TORSDOF 7
ENDMDL
MODEL 6
REMARK VINA RESULT:      -5.9      1.516      1.838
REMARK  Name = 
REMARK  7 active torsions:
REMARK  status: ('A' for Active; 'I' for Inactive)
REMARK    1  A    between atoms: C_2  and  C_3
REMARK    2  A    between atoms: C_8  and  O_9
REMARK    3  A    between atoms: O_9  and  C_10
REMARK    4  A    between atoms: C_10  and  C_11
REMARK    5  A    between atoms: C_11  and  C_12
REMARK    6  A    between atoms: C_12  and  N_13
REMARK    7  A    between atoms: N_13  and  C_14
REMARK                            x       y       z     vdW  Elec       q    Type
REMARK                         _______ _______ _______ _____ _____    ______ ____
ROOT
ATOM      1  C   UNL     1       4.832   5.855  17.983  0.00  0.00    +0.000 C 
ENDROOT
BRANCH   1   2
ATOM      2  O   UNL     1       4.648   4.809  18.926  0.00  0.00    +0.000 OA
BRANCH   2   8
ATOM      3  C   UNL     1       2.212   4.490  19.497  0.00  0.00    +0.000 A 
ATOM      4  C   UNL     1       1.110   3.622  19.361  0.00  0.00    +0.000 A 
ATOM      5  C   UNL     1       1.223   2.416  18.675  0.00  0.00    +0.000 A 
ATOM      6  C   UNL     1       2.441   2.059  18.114  0.00  0.00    +0.000 A 
ATOM      7  C   UNL     1       3.541   2.912  18.242  0.00  0.00    +0.000 A 
ATOM      8  C   UNL     1       3.449   4.135  18.929  0.00  0.00    +0.000 A 
BRANCH   3  10
ATOM      9  N   UNL     1       1.731   6.666  20.830  0.00  0.00    +0.000 NA
ATOM     10  C   UNL     1       1.952   5.698  20.229  0.00  0.00    +0.000 C 
ENDBRANCH   3  10
ENDBRANCH   2   8
ENDBRANCH   1   2
BRANCH   1  11
ATOM     11  C   UNL     1       6.313   6.182  17.787  0.00  0.00    +0.000 C 
BRANCH  11  12
ATOM     12  C   UNL     1       6.909   5.112  16.870  0.00  0.00    +0.000 C 
BRANCH  12  13
ATOM     13  N   UNL     1       7.279   5.647  15.562  0.00  0.00    +0.000 NA
ATOM     14  H   UNL     1       8.235   6.001  15.594  0.00  0.00    +0.000 HD
BRANCH  13  15
ATOM     15  C   UNL     1       7.161   4.628  14.517  0.00  0.00    +0.000 C 
ATOM     16  C   UNL     1       5.700   4.283  14.236  0.00  0.00    +0.000 C 
ATOM     17  C   UNL     1       5.754   3.544  12.904  0.00  0.00    +0.000 C 
ATOM     18  C   UNL     1       6.963   4.110  12.158  0.00  0.00    +0.000 C 
ATOM     19  C   UNL     1       7.665   5.051  13.133  0.00  0.00    +0.000 C 
ENDBRANCH  13  15
ENDBRANCH  12  13
ENDBRANCH  11  12
ENDBRANCH   1  11
TORSDOF 7
ENDMDL
MODEL 7
REMARK VINA RESULT:      -5.8      1.723      2.293
REMARK  Name = 
REMARK  7 active torsions:
REMARK  status: ('A' for Active; 'I' for Inactive)
REMARK    1  A    between atoms: C_2  and  C_3
REMARK    2  A    between atoms: C_8  and  O_9
REMARK    3  A    between atoms: O_9  and  C_10
REMARK    4  A    between atoms: C_10  and  C_11
REMARK    5  A    between atoms: C_11  and  C_12
REMARK    6  A    between atoms: C_12  and  N_13
REMARK    7  A    between atoms: N_13  and  C_14
REMARK                            x       y       z     vdW  Elec       q    Type
REMARK                         _______ _______ _______ _____ _____    ______ ____
ROOT
ATOM      1  C   UNL     1       4.634   5.356  17.688  0.00  0.00    +0.000 C 
ENDROOT
BRANCH   1   2
ATOM      2  O   UNL     1       3.455   4.666  17.297  0.00  0.00    +0.000 OA
BRANCH   2   8
ATOM      3  C   UNL     1       2.003   4.877  19.349  0.00  0.00    +0.000 A 
ATOM      4  C   UNL     1       1.169   4.169  20.237  0.00  0.00    +0.000 A 
ATOM      5  C   UNL     1       0.941   2.805  20.079  0.00  0.00    +0.000 A 
ATOM      6  C   UNL     1       1.545   2.128  19.028  0.00  0.00    +0.000 A 
ATOM      7  C   UNL     1       2.373   2.819  18.140  0.00  0.00    +0.000 A 
ATOM      8  C   UNL     1       2.616   4.197  18.280  0.00  0.00    +0.000 A 
BRANCH   3  10
ATOM      9  N   UNL     1       2.258   7.407  19.875  0.00  0.00    +0.000 NA
ATOM     10  C   UNL     1       2.148   6.278  19.632  0.00  0.00    +0.000 C 
ENDBRANCH   3  10
ENDBRANCH   2   8
ENDBRANCH   1   2
BRANCH   1  11
ATOM     11  C   UNL     1       4.847   6.622  16.858  0.00  0.00    +0.000 C 
BRANCH  11  12
ATOM     12  C   UNL     1       5.371   6.196  15.485  0.00  0.00    +0.000 C 
BRANCH  12  13
ATOM     13  N   UNL     1       6.680   5.551  15.568  0.00  0.00    +0.000 NA
ATOM     14  H   UNL     1       6.779   5.090  16.472  0.00  0.00    +0.000 HD
BRANCH  13  15
ATOM     15  C   UNL     1       6.862   4.577  14.491  0.00  0.00    +0.000 C 
ATOM     16  C   UNL     1       5.522   4.093  13.942  0.00  0.00    +0.000 C 
ATOM     17  C   UNL     1       5.892   3.428  12.621  0.00  0.00    +0.000 C 
ATOM     18  C   UNL     1       7.141   4.153  12.121  0.00  0.00    +0.000 C 
ATOM     19  C   UNL     1       7.551   5.116  13.232  0.00  0.00    +0.000 C 
ENDBRANCH  13  15
ENDBRANCH  12  13
ENDBRANCH  11  12
ENDBRANCH   1  11
TORSDOF 7
ENDMDL
MODEL 8
REMARK VINA RESULT:      -5.8      1.941      2.689
REMARK  Name = 
REMARK  7 active torsions:
REMARK  status: ('A' for Active; 'I' for Inactive)
REMARK    1  A    between atoms: C_2  and  C_3
REMARK    2  A    between atoms: C_8  and  O_9
REMARK    3  A    between atoms: O_9  and  C_10
REMARK    4  A    between atoms: C_10  and  C_11
REMARK    5  A    between atoms: C_11  and  C_12
REMARK    6  A    between atoms: C_12  and  N_13
REMARK    7  A    between atoms: N_13  and  C_14
REMARK                            x       y       z     vdW  Elec       q    Type
REMARK                         _______ _______ _______ _____ _____    ______ ____
ROOT
ATOM      1  C   UNL     1       6.307   4.814  18.910  0.00  0.00    +0.000 C 
ENDROOT
BRANCH   1   2
ATOM      2  O   UNL     1       5.038   5.228  19.397  0.00  0.00    +0.000 OA
BRANCH   2   8
ATOM      3  C   UNL     1       3.637   3.130  19.382  0.00  0.00    +0.000 A 
ATOM      4  C   UNL     1       2.425   2.568  18.936  0.00  0.00    +0.000 A 
ATOM      5  C   UNL     1       1.514   3.315  18.193  0.00  0.00    +0.000 A 
ATOM      6  C   UNL     1       1.804   4.637  17.885  0.00  0.00    +0.000 A 
ATOM      7  C   UNL     1       3.004   5.206  18.323  0.00  0.00    +0.000 A 
ATOM      8  C   UNL     1       3.937   4.470  19.075  0.00  0.00    +0.000 A 
BRANCH   3  10
ATOM      9  N   UNL     1       5.174   1.539  20.743  0.00  0.00    +0.000 NA
ATOM     10  C   UNL     1       4.480   2.244  20.137  0.00  0.00    +0.000 C 
ENDBRANCH   3  10
ENDBRANCH   2   8
ENDBRANCH   1   2
BRANCH   1  11
ATOM     11  C   UNL     1       7.273   5.993  18.786  0.00  0.00    +0.000 C 
BRANCH  11  12
ATOM     12  C   UNL     1       7.229   6.481  17.336  0.00  0.00    +0.000 C 
BRANCH  12  13
ATOM     13  N   UNL     1       5.871   6.497  16.799  0.00  0.00    +0.000 NA
ATOM     14  H   UNL     1       5.544   7.460  16.720  0.00  0.00    +0.000 HD
BRANCH  13  15
ATOM     15  C   UNL     1       5.808   5.843  15.491  0.00  0.00    +0.000 C 
ATOM     16  C   UNL     1       7.173   5.305  15.069  0.00  0.00    +0.000 C 
ATOM     17  C   UNL     1       6.847   4.347  13.929  0.00  0.00    +0.000 C 
ATOM     18  C   UNL     1       5.444   3.813  14.218  0.00  0.00    +0.000 C 
ATOM     19  C   UNL     1       4.934   4.586  15.431  0.00  0.00    +0.000 C 
ENDBRANCH  13  15
ENDBRANCH  12  13
ENDBRANCH  11  12
ENDBRANCH   1  11
TORSDOF 7
ENDMDL
MODEL 9
REMARK VINA RESULT:      -5.8      2.316      5.325
REMARK  Name = 
REMARK  7 active torsions:
REMARK  status: ('A' for Active; 'I' for Inactive)
REMARK    1  A    between atoms: C_2  and  C_3
REMARK    2  A    between atoms: C_8  and  O_9
REMARK    3  A    between atoms: O_9  and  C_10
REMARK    4  A    between atoms: C_10  and  C_11
REMARK    5  A    between atoms: C_11  and  C_12
REMARK    6  A    between atoms: C_12  and  N_13
REMARK    7  A    between atoms: N_13  and  C_14
REMARK                            x       y       z     vdW  Elec       q    Type
REMARK                         _______ _______ _______ _____ _____    ______ ____
ROOT
ATOM      1  C   UNL     1       3.058   5.716  20.017  0.00  0.00    +0.000 C 
ENDROOT
BRANCH   1   2
ATOM      2  O   UNL     1       4.261   5.025  19.711  0.00  0.00    +0.000 OA
BRANCH   2   8
ATOM      3  C   UNL     1       6.416   5.699  18.586  0.00  0.00    +0.000 A 
ATOM      4  C   UNL     1       6.979   6.177  17.386  0.00  0.00    +0.000 A 
ATOM      5  C   UNL     1       6.185   6.443  16.273  0.00  0.00    +0.000 A 
ATOM      6  C   UNL     1       4.814   6.234  16.345  0.00  0.00    +0.000 A 
ATOM      7  C   UNL     1       4.245   5.759  17.530  0.00  0.00    +0.000 A 
ATOM      8  C   UNL     1       5.028   5.483  18.665  0.00  0.00    +0.000 A 
BRANCH   3  10
ATOM      9  N   UNL     1       8.102   5.295  20.520  0.00  0.00    +0.000 NA
ATOM     10  C   UNL     1       7.353   5.469  19.651  0.00  0.00    +0.000 C 
ENDBRANCH   3  10
ENDBRANCH   2   8
ENDBRANCH   1   2
BRANCH   1  11
ATOM     11  C   UNL     1       2.202   4.938  21.017  0.00  0.00    +0.000 C 
BRANCH  11  12
ATOM     12  C   UNL     1       0.905   4.540  20.310  0.00  0.00    +0.000 C 
BRANCH  12  13
ATOM     13  N   UNL     1       0.662   3.100  20.366  0.00  0.00    +0.000 NA
ATOM     14  H   UNL     1      -0.341   2.920  20.333  0.00  0.00    +0.000 HD
BRANCH  13  15
ATOM     15  C   UNL     1       1.330   2.404  19.265  0.00  0.00    +0.000 C 
ATOM     16  C   UNL     1       1.496   3.313  18.049  0.00  0.00    +0.000 C 
ATOM     17  C   UNL     1       2.524   2.583  17.191  0.00  0.00    +0.000 C 
ATOM     18  C   UNL     1       3.403   1.798  18.166  0.00  0.00    +0.000 C 
ATOM     19  C   UNL     1       2.773   1.972  19.545  0.00  0.00    +0.000 C 
ENDBRANCH  13  15
ENDBRANCH  12  13
ENDBRANCH  11  12
ENDBRANCH   1  11
TORSDOF 7
ENDMDL
