MODEL 1
REMARK VINA RESULT:      -7.1      0.000      0.000
REMARK  Name = 
REMARK  4 active torsions:
REMARK  status: ('A' for Active; 'I' for Inactive)
REMARK    1  A    between atoms: C_1  and  C_2
REMARK    2  A    between atoms: C_2  and  N_3
REMARK    3  A    between atoms: C_13  and  N_14
REMARK    4  A    between atoms: C_15  and  C_16
REMARK                            x       y       z     vdW  Elec       q    Type
REMARK                         _______ _______ _______ _____ _____    ______ ____
ROOT
ATOM      1  N   UNL     1       3.020   6.671  18.534  0.00  0.00    +0.000 N 
ATOM      2  C   UNL     1       2.227   7.459  19.363  0.00  0.00    +0.000 A 
ATOM      3  C   UNL     1       1.820   8.805  19.267  0.00  0.00    +0.000 A 
ATOM      4  C   UNL     1       0.908   9.298  20.203  0.00  0.00    +0.000 A 
ATOM      5  C   UNL     1       0.429   8.488  21.226  0.00  0.00    +0.000 A 
ATOM      6  C   UNL     1       0.870   7.168  21.344  0.00  0.00    +0.000 A 
ATOM      7  C   UNL     1       1.786   6.649  20.403  0.00  0.00    +0.000 A 
ATOM      8  C   UNL     1       2.443   5.406  20.259  0.00  0.00    +0.000 A 
ATOM      9  N   UNL     1       2.338   4.334  21.076  0.00  0.00    +0.000 NA
ATOM     10  N   UNL     1       3.049   3.269  20.827  0.00  0.00    +0.000 NA
ATOM     11  C   UNL     1       3.937   3.253  19.807  0.00  0.00    +0.000 A 
ATOM     12  C   UNL     1       4.146   4.324  18.893  0.00  0.00    +0.000 A 
ATOM     13  C   UNL     1       3.294   5.438  19.150  0.00  0.00    +0.000 A 
ENDROOT
BRANCH  12  14
ATOM     14  C   UNL     1       5.174   4.268  17.819  0.00  0.00    +0.000 A 
ATOM     15  C   UNL     1       4.850   3.891  16.502  0.00  0.00    +0.000 A 
ATOM     16  C   UNL     1       5.809   3.860  15.482  0.00  0.00    +0.000 A 
ATOM     17  C   UNL     1       7.108   4.279  15.738  0.00  0.00    +0.000 A 
ATOM     18  C   UNL     1       7.464   4.649  17.030  0.00  0.00    +0.000 A 
ATOM     19  C   UNL     1       6.524   4.578  18.066  0.00  0.00    +0.000 A 
ENDBRANCH  12  14
BRANCH  11  20
ATOM     20  N   UNL     1       4.638   2.038  19.699  0.00  0.00    +0.000 N 
ATOM     21  H   UNL     1       5.535   2.240  19.264  0.00  0.00    +0.000 HD
ATOM     22  H   UNL     1       4.102   1.350  19.181  0.00  0.00    +0.000 HD
ENDBRANCH  11  20
BRANCH   1  24
ATOM     23  C   UNL     1       4.915   7.565  17.134  0.00  0.00    +0.000 C 
ATOM     24  C   UNL     1       3.462   7.125  17.226  0.00  0.00    +0.000 C 
ENDBRANCH   1  24
TORSDOF 3
ENDMDL
MODEL 2
REMARK VINA RESULT:      -6.9      0.089      1.025
REMARK  Name = 
REMARK  4 active torsions:
REMARK  status: ('A' for Active; 'I' for Inactive)
REMARK    1  A    between atoms: C_1  and  C_2
REMARK    2  A    between atoms: C_2  and  N_3
REMARK    3  A    between atoms: C_13  and  N_14
REMARK    4  A    between atoms: C_15  and  C_16
REMARK                            x       y       z     vdW  Elec       q    Type
REMARK                         _______ _______ _______ _____ _____    ______ ____
ROOT
ATOM      1  N   UNL     1       2.962   6.742  18.553  0.00  0.00    +0.000 N 
ATOM      2  C   UNL     1       2.169   7.520  19.392  0.00  0.00    +0.000 A 
ATOM      3  C   UNL     1       1.751   8.863  19.307  0.00  0.00    +0.000 A 
ATOM      4  C   UNL     1       0.842   9.344  20.253  0.00  0.00    +0.000 A 
ATOM      5  C   UNL     1       0.378   8.525  21.276  0.00  0.00    +0.000 A 
ATOM      6  C   UNL     1       0.831   7.208  21.383  0.00  0.00    +0.000 A 
ATOM      7  C   UNL     1       1.743   6.701  20.432  0.00  0.00    +0.000 A 
ATOM      8  C   UNL     1       2.410   5.464  20.276  0.00  0.00    +0.000 A 
ATOM      9  N   UNL     1       2.319   4.387  21.088  0.00  0.00    +0.000 NA
ATOM     10  N   UNL     1       3.037   3.329  20.828  0.00  0.00    +0.000 NA
ATOM     11  C   UNL     1       3.917   3.326  19.801  0.00  0.00    +0.000 A 
ATOM     12  C   UNL     1       4.110   4.404  18.890  0.00  0.00    +0.000 A 
ATOM     13  C   UNL     1       3.251   5.509  19.160  0.00  0.00    +0.000 A 
ENDROOT
BRANCH  12  14
ATOM     14  C   UNL     1       5.130   4.361  17.809  0.00  0.00    +0.000 A 
ATOM     15  C   UNL     1       6.481   4.675  18.051  0.00  0.00    +0.000 A 
ATOM     16  C   UNL     1       7.449   4.613  17.041  0.00  0.00    +0.000 A 
ATOM     17  C   UNL     1       7.104   4.160  15.775  0.00  0.00    +0.000 A 
ATOM     18  C   UNL     1       5.776   3.849  15.500  0.00  0.00    +0.000 A 
ATOM     19  C   UNL     1       4.796   4.014  16.487  0.00  0.00    +0.000 A 
ENDBRANCH  12  14
BRANCH  11  20
ATOM     20  N   UNL     1       4.627   2.117  19.681  0.00  0.00    +0.000 N 
ATOM     21  H   UNL     1       4.747   1.740  20.619  0.00  0.00    +0.000 HD
ATOM     22  H   UNL     1       5.510   2.256  19.203  0.00  0.00    +0.000 HD
ENDBRANCH  11  20
BRANCH   1  24
ATOM     23  C   UNL     1       4.841   7.651  17.141  0.00  0.00    +0.000 C 
ATOM     24  C   UNL     1       3.390   7.207  17.244  0.00  0.00    +0.000 C 
ENDBRANCH   1  24
TORSDOF 3
ENDMDL
MODEL 3
REMARK VINA RESULT:      -6.8      2.151      6.056
REMARK  Name = 
REMARK  4 active torsions:
REMARK  status: ('A' for Active; 'I' for Inactive)
REMARK    1  A    between atoms: C_1  and  C_2
REMARK    2  A    between atoms: C_2  and  N_3
REMARK    3  A    between atoms: C_13  and  N_14
REMARK    4  A    between atoms: C_15  and  C_16
REMARK                            x       y       z     vdW  Elec       q    Type
REMARK                         _______ _______ _______ _____ _____    ______ ____
ROOT
ATOM      1  N   UNL     1       3.984   3.985  17.201  0.00  0.00    +0.000 N 
ATOM      2  C   UNL     1       4.969   4.257  16.255  0.00  0.00    +0.000 A 
ATOM      3  C   UNL     1       5.786   3.408  15.483  0.00  0.00    +0.000 A 
ATOM      4  C   UNL     1       6.614   3.975  14.511  0.00  0.00    +0.000 A 
ATOM      5  C   UNL     1       6.654   5.352  14.325  0.00  0.00    +0.000 A 
ATOM      6  C   UNL     1       5.876   6.193  15.125  0.00  0.00    +0.000 A 
ATOM      7  C   UNL     1       5.027   5.637  16.107  0.00  0.00    +0.000 A 
ATOM      8  C   UNL     1       4.163   6.189  17.080  0.00  0.00    +0.000 A 
ATOM      9  N   UNL     1       3.942   7.502  17.317  0.00  0.00    +0.000 NA
ATOM     10  N   UNL     1       3.143   7.850  18.287  0.00  0.00    +0.000 NA
ATOM     11  C   UNL     1       2.592   6.918  19.098  0.00  0.00    +0.000 A 
ATOM     12  C   UNL     1       2.764   5.512  18.956  0.00  0.00    +0.000 A 
ATOM     13  C   UNL     1       3.579   5.170  17.838  0.00  0.00    +0.000 A 
ENDROOT
BRANCH  12  14
ATOM     14  C   UNL     1       2.172   4.536  19.910  0.00  0.00    +0.000 A 
ATOM     15  C   UNL     1       1.005   3.812  19.601  0.00  0.00    +0.000 A 
ATOM     16  C   UNL     1       0.458   2.874  20.485  0.00  0.00    +0.000 A 
ATOM     17  C   UNL     1       1.110   2.580  21.676  0.00  0.00    +0.000 A 
ATOM     18  C   UNL     1       2.261   3.282  22.015  0.00  0.00    +0.000 A 
ATOM     19  C   UNL     1       2.743   4.292  21.173  0.00  0.00    +0.000 A 
ENDBRANCH  12  14
BRANCH  11  20
ATOM     20  N   UNL     1       1.780   7.469  20.106  0.00  0.00    +0.000 N 
ATOM     21  H   UNL     1       1.185   8.170  19.670  0.00  0.00    +0.000 HD
ATOM     22  H   UNL     1       2.341   7.851  20.860  0.00  0.00    +0.000 HD
ENDBRANCH  11  20
BRANCH   1  24
ATOM     23  C   UNL     1       4.066   1.928  18.655  0.00  0.00    +0.000 C 
ATOM     24  C   UNL     1       3.491   2.638  17.439  0.00  0.00    +0.000 C 
ENDBRANCH   1  24
TORSDOF 3
ENDMDL
MODEL 4
REMARK VINA RESULT:      -6.7      2.677      4.537
REMARK  Name = 
REMARK  4 active torsions:
REMARK  status: ('A' for Active; 'I' for Inactive)
REMARK    1  A    between atoms: C_1  and  C_2
REMARK    2  A    between atoms: C_2  and  N_3
REMARK    3  A    between atoms: C_13  and  N_14
REMARK    4  A    between atoms: C_15  and  C_16
REMARK                            x       y       z     vdW  Elec       q    Type
REMARK                         _______ _______ _______ _____ _____    ______ ____
ROOT
ATOM      1  N   UNL     1       3.843   5.312  18.544  0.00  0.00    +0.000 N 
ATOM      2  C   UNL     1       2.873   4.347  18.799  0.00  0.00    +0.000 A 
ATOM      3  C   UNL     1       1.835   4.290  19.749  0.00  0.00    +0.000 A 
ATOM      4  C   UNL     1       0.926   3.230  19.688  0.00  0.00    +0.000 A 
ATOM      5  C   UNL     1       1.057   2.234  18.727  0.00  0.00    +0.000 A 
ATOM      6  C   UNL     1       2.116   2.270  17.816  0.00  0.00    +0.000 A 
ATOM      7  C   UNL     1       3.039   3.338  17.857  0.00  0.00    +0.000 A 
ATOM      8  C   UNL     1       4.210   3.649  17.128  0.00  0.00    +0.000 A 
ATOM      9  N   UNL     1       4.766   2.917  16.136  0.00  0.00    +0.000 NA
ATOM     10  N   UNL     1       5.878   3.323  15.590  0.00  0.00    +0.000 NA
ATOM     11  C   UNL     1       6.514   4.423  16.051  0.00  0.00    +0.000 A 
ATOM     12  C   UNL     1       6.035   5.263  17.097  0.00  0.00    +0.000 A 
ATOM     13  C   UNL     1       4.778   4.831  17.612  0.00  0.00    +0.000 A 
ENDROOT
BRANCH  12  14
ATOM     14  C   UNL     1       6.804   6.434  17.595  0.00  0.00    +0.000 A 
ATOM     15  C   UNL     1       7.749   6.314  18.632  0.00  0.00    +0.000 A 
ATOM     16  C   UNL     1       8.494   7.409  19.087  0.00  0.00    +0.000 A 
ATOM     17  C   UNL     1       8.365   8.643  18.465  0.00  0.00    +0.000 A 
ATOM     18  C   UNL     1       7.434   8.799  17.444  0.00  0.00    +0.000 A 
ATOM     19  C   UNL     1       6.620   7.724  17.064  0.00  0.00    +0.000 A 
ENDBRANCH  12  14
BRANCH  11  20
ATOM     20  N   UNL     1       7.713   4.700  15.367  0.00  0.00    +0.000 N 
ATOM     21  H   UNL     1       8.463   4.223  15.861  0.00  0.00    +0.000 HD
ATOM     22  H   UNL     1       7.871   5.700  15.294  0.00  0.00    +0.000 HD
ENDBRANCH  11  20
BRANCH   1  24
ATOM     23  C   UNL     1       2.907   7.652  18.553  0.00  0.00    +0.000 C 
ATOM     24  C   UNL     1       3.824   6.616  19.186  0.00  0.00    +0.000 C 
ENDBRANCH   1  24
TORSDOF 3
ENDMDL
MODEL 5
REMARK VINA RESULT:      -6.5      2.198      6.152
REMARK  Name = 
REMARK  4 active torsions:
REMARK  status: ('A' for Active; 'I' for Inactive)
REMARK    1  A    between atoms: C_1  and  C_2
REMARK    2  A    between atoms: C_2  and  N_3
REMARK    3  A    between atoms: C_13  and  N_14
REMARK    4  A    between atoms: C_15  and  C_16
REMARK                            x       y       z     vdW  Elec       q    Type
REMARK                         _______ _______ _______ _____ _____    ______ ____
ROOT
ATOM      1  N   UNL     1       3.993   3.906  17.126  0.00  0.00    +0.000 N 
ATOM      2  C   UNL     1       4.963   4.187  16.168  0.00  0.00    +0.000 A 
ATOM      3  C   UNL     1       5.744   3.346  15.350  0.00  0.00    +0.000 A 
ATOM      4  C   UNL     1       6.564   3.927  14.379  0.00  0.00    +0.000 A 
ATOM      5  C   UNL     1       6.632   5.308  14.238  0.00  0.00    +0.000 A 
ATOM      6  C   UNL     1       5.892   6.139  15.082  0.00  0.00    +0.000 A 
ATOM      7  C   UNL     1       5.051   5.570  16.064  0.00  0.00    +0.000 A 
ATOM      8  C   UNL     1       4.221   6.109  17.074  0.00  0.00    +0.000 A 
ATOM      9  N   UNL     1       4.036   7.418  17.359  0.00  0.00    +0.000 NA
ATOM     10  N   UNL     1       3.266   7.751  18.357  0.00  0.00    +0.000 NA
ATOM     11  C   UNL     1       2.711   6.805  19.148  0.00  0.00    +0.000 A 
ATOM     12  C   UNL     1       2.847   5.401  18.957  0.00  0.00    +0.000 A 
ATOM     13  C   UNL     1       3.629   5.078  17.809  0.00  0.00    +0.000 A 
ENDROOT
BRANCH  12  14
ATOM     14  C   UNL     1       2.253   4.407  19.890  0.00  0.00    +0.000 A 
ATOM     15  C   UNL     1       2.854   4.099  21.126  0.00  0.00    +0.000 A 
ATOM     16  C   UNL     1       2.285   3.183  22.019  0.00  0.00    +0.000 A 
ATOM     17  C   UNL     1       1.056   2.604  21.732  0.00  0.00    +0.000 A 
ATOM     18  C   UNL     1       0.440   2.880  20.516  0.00  0.00    +0.000 A 
ATOM     19  C   UNL     1       1.066   3.717  19.584  0.00  0.00    +0.000 A 
ENDBRANCH  12  14
BRANCH  11  20
ATOM     20  N   UNL     1       1.934   7.341  20.192  0.00  0.00    +0.000 N 
ATOM     21  H   UNL     1       2.500   7.317  21.037  0.00  0.00    +0.000 HD
ATOM     22  H   UNL     1       1.061   6.834  20.296  0.00  0.00    +0.000 HD
ENDBRANCH  11  20
BRANCH   1  24
ATOM     23  C   UNL     1       4.059   1.800  18.507  0.00  0.00    +0.000 C 
ATOM     24  C   UNL     1       3.473   2.564  17.330  0.00  0.00    +0.000 C 
ENDBRANCH   1  24
TORSDOF 3
ENDMDL
MODEL 6
REMARK VINA RESULT:      -6.5      2.043      3.754
REMARK  Name = 
REMARK  4 active torsions:
REMARK  status: ('A' for Active; 'I' for Inactive)
REMARK    1  A    between atoms: C_1  and  C_2
REMARK    2  A    between atoms: C_2  and  N_3
REMARK    3  A    between atoms: C_13  and  N_14
REMARK    4  A    between atoms: C_15  and  C_16
REMARK                            x       y       z     vdW  Elec       q    Type
REMARK                         _______ _______ _______ _____ _____    ______ ____
ROOT
ATOM      1  N   UNL     1       2.437   6.622  19.418  0.00  0.00    +0.000 N 
ATOM      2  C   UNL     1       1.859   7.885  19.321  0.00  0.00    +0.000 A 
ATOM      3  C   UNL     1       0.878   8.529  20.100  0.00  0.00    +0.000 A 
ATOM      4  C   UNL     1       0.578   9.867  19.831  0.00  0.00    +0.000 A 
ATOM      5  C   UNL     1       1.214  10.545  18.797  0.00  0.00    +0.000 A 
ATOM      6  C   UNL     1       2.153   9.889  17.998  0.00  0.00    +0.000 A 
ATOM      7  C   UNL     1       2.475   8.539  18.260  0.00  0.00    +0.000 A 
ATOM      8  C   UNL     1       3.326   7.597  17.638  0.00  0.00    +0.000 A 
ATOM      9  N   UNL     1       4.091   7.795  16.541  0.00  0.00    +0.000 NA
ATOM     10  N   UNL     1       4.792   6.804  16.064  0.00  0.00    +0.000 NA
ATOM     11  C   UNL     1       4.707   5.570  16.610  0.00  0.00    +0.000 A 
ATOM     12  C   UNL     1       3.926   5.238  17.753  0.00  0.00    +0.000 A 
ATOM     13  C   UNL     1       3.238   6.365  18.293  0.00  0.00    +0.000 A 
ENDROOT
BRANCH  12  14
ATOM     14  C   UNL     1       3.833   3.850  18.280  0.00  0.00    +0.000 A 
ATOM     15  C   UNL     1       2.997   2.886  17.684  0.00  0.00    +0.000 A 
ATOM     16  C   UNL     1       2.925   1.571  18.161  0.00  0.00    +0.000 A 
ATOM     17  C   UNL     1       3.746   1.165  19.205  0.00  0.00    +0.000 A 
ATOM     18  C   UNL     1       4.576   2.095  19.821  0.00  0.00    +0.000 A 
ATOM     19  C   UNL     1       4.566   3.432  19.405  0.00  0.00    +0.000 A 
ENDBRANCH  12  14
BRANCH  11  20
ATOM     20  N   UNL     1       5.507   4.616  15.954  0.00  0.00    +0.000 N 
ATOM     21  H   UNL     1       6.330   4.460  16.532  0.00  0.00    +0.000 HD
ATOM     22  H   UNL     1       5.743   4.918  15.016  0.00  0.00    +0.000 HD
ENDBRANCH  11  20
BRANCH   1  24
ATOM     23  C   UNL     1       1.125   4.692  20.367  0.00  0.00    +0.000 C 
ATOM     24  C   UNL     1       2.202   5.749  20.556  0.00  0.00    +0.000 C 
ENDBRANCH   1  24
TORSDOF 3
ENDMDL
MODEL 7
REMARK VINA RESULT:      -6.5      2.036      3.906
REMARK  Name = 
REMARK  4 active torsions:
REMARK  status: ('A' for Active; 'I' for Inactive)
REMARK    1  A    between atoms: C_1  and  C_2
REMARK    2  A    between atoms: C_2  and  N_3
REMARK    3  A    between atoms: C_13  and  N_14
REMARK    4  A    between atoms: C_15  and  C_16
REMARK                            x       y       z     vdW  Elec       q    Type
REMARK                         _______ _______ _______ _____ _____    ______ ____
ROOT
ATOM      1  N   UNL     1       2.528   6.611  19.318  0.00  0.00    +0.000 N 
ATOM      2  C   UNL     1       1.944   7.871  19.215  0.00  0.00    +0.000 A 
ATOM      3  C   UNL     1       0.956   8.512  19.989  0.00  0.00    +0.000 A 
ATOM      4  C   UNL     1       0.650   9.847  19.714  0.00  0.00    +0.000 A 
ATOM      5  C   UNL     1       1.286  10.526  18.681  0.00  0.00    +0.000 A 
ATOM      6  C   UNL     1       2.231   9.872  17.886  0.00  0.00    +0.000 A 
ATOM      7  C   UNL     1       2.560   8.525  18.154  0.00  0.00    +0.000 A 
ATOM      8  C   UNL     1       3.418   7.585  17.538  0.00  0.00    +0.000 A 
ATOM      9  N   UNL     1       4.186   7.785  16.443  0.00  0.00    +0.000 NA
ATOM     10  N   UNL     1       4.894   6.796  15.971  0.00  0.00    +0.000 NA
ATOM     11  C   UNL     1       4.813   5.563  16.521  0.00  0.00    +0.000 A 
ATOM     12  C   UNL     1       4.030   5.230  17.663  0.00  0.00    +0.000 A 
ATOM     13  C   UNL     1       3.335   6.355  18.196  0.00  0.00    +0.000 A 
ENDROOT
BRANCH  12  14
ATOM     14  C   UNL     1       3.943   3.844  18.194  0.00  0.00    +0.000 A 
ATOM     15  C   UNL     1       4.693   3.429  19.311  0.00  0.00    +0.000 A 
ATOM     16  C   UNL     1       4.595   2.133  19.830  0.00  0.00    +0.000 A 
ATOM     17  C   UNL     1       3.685   1.234  19.288  0.00  0.00    +0.000 A 
ATOM     18  C   UNL     1       2.936   1.609  18.178  0.00  0.00    +0.000 A 
ATOM     19  C   UNL     1       3.115   2.873  17.602  0.00  0.00    +0.000 A 
ENDBRANCH  12  14
BRANCH  11  20
ATOM     20  N   UNL     1       5.621   4.611  15.872  0.00  0.00    +0.000 N 
ATOM     21  H   UNL     1       5.916   5.015  14.985  0.00  0.00    +0.000 HD
ATOM     22  H   UNL     1       5.128   3.733  15.752  0.00  0.00    +0.000 HD
ENDBRANCH  11  20
BRANCH   1  24
ATOM     23  C   UNL     1       1.190   4.709  20.286  0.00  0.00    +0.000 C 
ATOM     24  C   UNL     1       2.294   5.741  20.458  0.00  0.00    +0.000 C 
ENDBRANCH   1  24
TORSDOF 3
ENDMDL
MODEL 8
REMARK VINA RESULT:      -6.4      2.220      3.815
REMARK  Name = 
REMARK  4 active torsions:
REMARK  status: ('A' for Active; 'I' for Inactive)
REMARK    1  A    between atoms: C_1  and  C_2
REMARK    2  A    between atoms: C_2  and  N_3
REMARK    3  A    between atoms: C_13  and  N_14
REMARK    4  A    between atoms: C_15  and  C_16
REMARK                            x       y       z     vdW  Elec       q    Type
REMARK                         _______ _______ _______ _____ _____    ______ ____
ROOT
ATOM      1  N   UNL     1       2.028   6.382  20.068  0.00  0.00    +0.000 N 
ATOM      2  C   UNL     1       1.328   7.567  20.278  0.00  0.00    +0.000 A 
ATOM      3  C   UNL     1       0.343   7.919  21.223  0.00  0.00    +0.000 A 
ATOM      4  C   UNL     1      -0.099   9.244  21.270  0.00  0.00    +0.000 A 
ATOM      5  C   UNL     1       0.401  10.193  20.385  0.00  0.00    +0.000 A 
ATOM      6  C   UNL     1       1.343   9.829  19.420  0.00  0.00    +0.000 A 
ATOM      7  C   UNL     1       1.808   8.496  19.363  0.00  0.00    +0.000 A 
ATOM      8  C   UNL     1       2.701   7.807  18.512  0.00  0.00    +0.000 A 
ATOM      9  N   UNL     1       3.370   8.318  17.454  0.00  0.00    +0.000 NA
ATOM     10  N   UNL     1       4.129   7.534  16.739  0.00  0.00    +0.000 NA
ATOM     11  C   UNL     1       4.197   6.210  17.001  0.00  0.00    +0.000 A 
ATOM     12  C   UNL     1       3.528   5.557  18.076  0.00  0.00    +0.000 A 
ATOM     13  C   UNL     1       2.774   6.461  18.880  0.00  0.00    +0.000 A 
ENDROOT
BRANCH  12  14
ATOM     14  C   UNL     1       3.601   4.086  18.286  0.00  0.00    +0.000 A 
ATOM     15  C   UNL     1       4.448   3.517  19.256  0.00  0.00    +0.000 A 
ATOM     16  C   UNL     1       4.502   2.136  19.475  0.00  0.00    +0.000 A 
ATOM     17  C   UNL     1       3.652   1.288  18.776  0.00  0.00    +0.000 A 
ATOM     18  C   UNL     1       2.810   1.817  17.804  0.00  0.00    +0.000 A 
ATOM     19  C   UNL     1       2.837   3.188  17.519  0.00  0.00    +0.000 A 
ENDBRANCH  12  14
BRANCH  11  20
ATOM     20  N   UNL     1       5.039   5.510  16.117  0.00  0.00    +0.000 N 
ATOM     21  H   UNL     1       5.763   6.156  15.810  0.00  0.00    +0.000 HD
ATOM     22  H   UNL     1       4.513   5.120  15.342  0.00  0.00    +0.000 HD
ENDBRANCH  11  20
BRANCH   1  24
ATOM     23  C   UNL     1       1.009   4.139  20.596  0.00  0.00    +0.000 C 
ATOM     24  C   UNL     1       1.952   5.264  20.994  0.00  0.00    +0.000 C 
ENDBRANCH   1  24
TORSDOF 3
ENDMDL
MODEL 9
REMARK VINA RESULT:      -6.4      7.411     10.081
REMARK  Name = 
REMARK  4 active torsions:
REMARK  status: ('A' for Active; 'I' for Inactive)
REMARK    1  A    between atoms: C_1  and  C_2
REMARK    2  A    between atoms: C_2  and  N_3
REMARK    3  A    between atoms: C_13  and  N_14
REMARK    4  A    between atoms: C_15  and  C_16
REMARK                            x       y       z     vdW  Elec       q    Type
REMARK                         _______ _______ _______ _____ _____    ______ ____
ROOT
ATOM      1  N   UNL     1      -3.821  12.629  20.468  0.00  0.00    +0.000 N 
ATOM      2  C   UNL     1      -5.108  12.534  20.991  0.00  0.00    +0.000 A 
ATOM      3  C   UNL     1      -5.613  12.764  22.286  0.00  0.00    +0.000 A 
ATOM      4  C   UNL     1      -6.994  12.703  22.489  0.00  0.00    +0.000 A 
ATOM      5  C   UNL     1      -7.855  12.395  21.442  0.00  0.00    +0.000 A 
ATOM      6  C   UNL     1      -7.346  12.121  20.170  0.00  0.00    +0.000 A 
ATOM      7  C   UNL     1      -5.953  12.186  19.944  0.00  0.00    +0.000 A 
ATOM      8  C   UNL     1      -5.131  11.938  18.821  0.00  0.00    +0.000 A 
ATOM      9  N   UNL     1      -5.534  11.536  17.595  0.00  0.00    +0.000 NA
ATOM     10  N   UNL     1      -4.640  11.308  16.673  0.00  0.00    +0.000 NA
ATOM     11  C   UNL     1      -3.320  11.400  16.950  0.00  0.00    +0.000 A 
ATOM     12  C   UNL     1      -2.778  11.799  18.205  0.00  0.00    +0.000 A 
ATOM     13  C   UNL     1      -3.787  12.116  19.161  0.00  0.00    +0.000 A 
ENDROOT
BRANCH  12  14
ATOM     14  C   UNL     1      -1.314  11.835  18.467  0.00  0.00    +0.000 A 
ATOM     15  C   UNL     1      -0.559  13.010  18.293  0.00  0.00    +0.000 A 
ATOM     16  C   UNL     1       0.814  13.056  18.561  0.00  0.00    +0.000 A 
ATOM     17  C   UNL     1       1.457  11.942  19.085  0.00  0.00    +0.000 A 
ATOM     18  C   UNL     1       0.742  10.762  19.260  0.00  0.00    +0.000 A 
ATOM     19  C   UNL     1      -0.608  10.695  18.892  0.00  0.00    +0.000 A 
ENDBRANCH  12  14
BRANCH  11  20
ATOM     20  N   UNL     1      -2.498  11.094  15.850  0.00  0.00    +0.000 N 
ATOM     21  H   UNL     1      -2.229  10.116  15.933  0.00  0.00    +0.000 HD
ATOM     22  H   UNL     1      -1.696  11.714  15.807  0.00  0.00    +0.000 HD
ENDBRANCH  11  20
BRANCH   1  24
ATOM     23  C   UNL     1      -1.937  12.219  22.090  0.00  0.00    +0.000 C 
ATOM     24  C   UNL     1      -2.719  13.197  21.226  0.00  0.00    +0.000 C 
ENDBRANCH   1  24
TORSDOF 3
ENDMDL
