MODEL 1
REMARK VINA RESULT:      -9.3      0.000      0.000
REMARK  Name = 
REMARK  4 active torsions:
REMARK  status: ('A' for Active; 'I' for Inactive)
REMARK    1  A    between atoms: C_2  and  C_15
REMARK    2  A    between atoms: N_3  and  C_4
REMARK    3  A    between atoms: C_4  and  C_5
REMARK    4  A    between atoms: C_5  and  C_6
REMARK                            x       y       z     vdW  Elec       q    Type
REMARK                         _______ _______ _______ _____ _____    ______ ____
ROOT
ATOM      1  C   UNL     1       2.004   7.586  19.412  0.00  0.00    +0.000 A 
ATOM      2  C   UNL     1       2.114   7.970  18.109  0.00  0.00    +0.000 A 
ATOM      3  C   UNL     1       1.397   9.056  17.505  0.00  0.00    +0.000 A 
ATOM      4  C   UNL     1       1.663  10.111  18.253  0.00  0.00    +0.000 A 
ATOM      5  N   UNL     1       1.408  10.052  19.590  0.00  0.00    +0.000 N 
ATOM      6  C   UNL     1       1.184  11.280  20.155  0.00  0.00    +0.000 A 
ATOM      7  O   UNL     1       1.756  12.333  19.833  0.00  0.00    +0.000 OA
ATOM      8  C   UNL     1       0.091  11.315  21.053  0.00  0.00    +0.000 A 
ATOM      9  C   UNL     1      -0.748  12.436  20.989  0.00  0.00    +0.000 A 
ATOM     10  C   UNL     1      -1.777  12.626  21.871  0.00  0.00    +0.000 A 
ATOM     11  C   UNL     1      -2.630  13.744  21.703  0.00  0.00    +0.000 A 
ATOM     12  C   UNL     1      -3.614  14.042  22.628  0.00  0.00    +0.000 A 
ATOM     13  C   UNL     1      -3.718  13.246  23.752  0.00  0.00    +0.000 A 
ATOM     14  C   UNL     1      -2.898  12.090  23.892  0.00  0.00    +0.000 A 
ATOM     15  C   UNL     1      -1.926  11.684  22.913  0.00  0.00    +0.000 A 
ATOM     16  C   UNL     1      -1.097  10.432  22.840  0.00  0.00    +0.000 A 
ATOM     17  C   UNL     1      -0.135  10.171  21.813  0.00  0.00    +0.000 A 
ATOM     18  N   UNL     1       0.562   8.860  21.458  0.00  0.00    +0.000 NA
ATOM     19  C   UNL     1       1.225   8.787  20.306  0.00  0.00    +0.000 A 
ENDROOT
BRANCH   1  21
ATOM     20  O   UNL     1       3.493   5.829  20.135  0.00  0.00    +0.000 OA
ATOM     21  C   UNL     1       2.604   6.131  19.312  0.00  0.00    +0.000 C 
ATOM     22  N   UNL     1       2.341   5.078  18.479  0.00  0.00    +0.000 N 
ATOM     23  H   UNL     1       1.641   5.130  17.756  0.00  0.00    +0.000 HD
BRANCH  22  24
ATOM     24  C   UNL     1       3.262   3.870  18.510  0.00  0.00    +0.000 C 
BRANCH  24  25
ATOM     25  C   UNL     1       4.360   3.669  17.425  0.00  0.00    +0.000 C 
BRANCH  25  26
ATOM     26  C   UNL     1       5.081   4.913  17.023  0.00  0.00    +0.000 A 
ATOM     27  C   UNL     1       4.839   5.725  15.929  0.00  0.00    +0.000 A 
ATOM     28  N   UNL     1       5.753   6.750  15.951  0.00  0.00    +0.000 N 
ATOM     29  C   UNL     1       6.565   6.634  17.052  0.00  0.00    +0.000 A 
ATOM     30  C   UNL     1       7.638   7.428  17.482  0.00  0.00    +0.000 A 
ATOM     31  C   UNL     1       8.266   7.067  18.679  0.00  0.00    +0.000 A 
ATOM     32  C   UNL     1       7.827   5.977  19.427  0.00  0.00    +0.000 A 
ATOM     33  C   UNL     1       6.757   5.199  18.984  0.00  0.00    +0.000 A 
ATOM     34  C   UNL     1       6.133   5.518  17.765  0.00  0.00    +0.000 A 
ATOM     35  H   UNL     1       5.815   7.493  15.269  0.00  0.00    +0.000 HD
ENDBRANCH  25  26
ENDBRANCH  24  25
ENDBRANCH  22  24
ENDBRANCH   1  21
TORSDOF 4
ENDMDL
MODEL 2
REMARK VINA RESULT:      -9.1      1.150      1.880
REMARK  Name = 
REMARK  4 active torsions:
REMARK  status: ('A' for Active; 'I' for Inactive)
REMARK    1  A    between atoms: C_2  and  C_15
REMARK    2  A    between atoms: N_3  and  C_4
REMARK    3  A    between atoms: C_4  and  C_5
REMARK    4  A    between atoms: C_5  and  C_6
REMARK                            x       y       z     vdW  Elec       q    Type
REMARK                         _______ _______ _______ _____ _____    ______ ____
ROOT
ATOM      1  C   UNL     1       1.834   7.918  19.578  0.00  0.00    +0.000 A 
ATOM      2  C   UNL     1       2.035   8.372  18.308  0.00  0.00    +0.000 A 
ATOM      3  C   UNL     1       1.392   9.515  17.729  0.00  0.00    +0.000 A 
ATOM      4  C   UNL     1       1.645  10.516  18.552  0.00  0.00    +0.000 A 
ATOM      5  N   UNL     1       1.308  10.389  19.866  0.00  0.00    +0.000 N 
ATOM      6  C   UNL     1       1.089  11.591  20.488  0.00  0.00    +0.000 A 
ATOM      7  O   UNL     1       1.713  12.639  20.263  0.00  0.00    +0.000 OA
ATOM      8  C   UNL     1      -0.055  11.613  21.320  0.00  0.00    +0.000 A 
ATOM      9  C   UNL     1      -0.853  12.765  21.274  0.00  0.00    +0.000 A 
ATOM     10  C   UNL     1      -1.927  12.940  22.103  0.00  0.00    +0.000 A 
ATOM     11  C   UNL     1      -2.732  14.095  21.951  0.00  0.00    +0.000 A 
ATOM     12  C   UNL     1      -3.761  14.375  22.832  0.00  0.00    +0.000 A 
ATOM     13  C   UNL     1      -3.959  13.521  23.899  0.00  0.00    +0.000 A 
ATOM     14  C   UNL     1      -3.186  12.330  24.019  0.00  0.00    +0.000 A 
ATOM     15  C   UNL     1      -2.170  11.946  23.077  0.00  0.00    +0.000 A 
ATOM     16  C   UNL     1      -1.378  10.672  22.979  0.00  0.00    +0.000 A 
ATOM     17  C   UNL     1      -0.364  10.436  21.997  0.00  0.00    +0.000 A 
ATOM     18  N   UNL     1       0.311   9.123  21.607  0.00  0.00    +0.000 NA
ATOM     19  C   UNL     1       1.041   9.092  20.494  0.00  0.00    +0.000 A 
ENDROOT
BRANCH   1  21
ATOM     20  O   UNL     1       2.358   5.949  18.284  0.00  0.00    +0.000 OA
ATOM     21  C   UNL     1       2.392   6.450  19.427  0.00  0.00    +0.000 C 
ATOM     22  N   UNL     1       2.937   5.573  20.323  0.00  0.00    +0.000 N 
ATOM     23  H   UNL     1       3.060   5.808  21.296  0.00  0.00    +0.000 HD
BRANCH  22  24
ATOM     24  C   UNL     1       3.180   4.137  19.889  0.00  0.00    +0.000 C 
BRANCH  24  25
ATOM     25  C   UNL     1       4.623   3.598  19.669  0.00  0.00    +0.000 C 
BRANCH  25  26
ATOM     26  C   UNL     1       5.525   4.510  18.906  0.00  0.00    +0.000 A 
ATOM     27  C   UNL     1       6.432   5.429  19.403  0.00  0.00    +0.000 A 
ATOM     28  N   UNL     1       7.035   6.051  18.338  0.00  0.00    +0.000 N 
ATOM     29  C   UNL     1       6.557   5.534  17.158  0.00  0.00    +0.000 A 
ATOM     30  C   UNL     1       6.863   5.861  15.830  0.00  0.00    +0.000 A 
ATOM     31  C   UNL     1       6.223   5.128  14.824  0.00  0.00    +0.000 A 
ATOM     32  C   UNL     1       5.336   4.099  15.131  0.00  0.00    +0.000 A 
ATOM     33  C   UNL     1       5.045   3.788  16.459  0.00  0.00    +0.000 A 
ATOM     34  C   UNL     1       5.646   4.534  17.488  0.00  0.00    +0.000 A 
ATOM     35  H   UNL     1       7.738   6.773  18.404  0.00  0.00    +0.000 HD
ENDBRANCH  25  26
ENDBRANCH  24  25
ENDBRANCH  22  24
ENDBRANCH   1  21
TORSDOF 4
ENDMDL
MODEL 3
REMARK VINA RESULT:      -8.9      2.876      4.369
REMARK  Name = 
REMARK  4 active torsions:
REMARK  status: ('A' for Active; 'I' for Inactive)
REMARK    1  A    between atoms: C_2  and  C_15
REMARK    2  A    between atoms: N_3  and  C_4
REMARK    3  A    between atoms: C_4  and  C_5
REMARK    4  A    between atoms: C_5  and  C_6
REMARK                            x       y       z     vdW  Elec       q    Type
REMARK                         _______ _______ _______ _____ _____    ______ ____
ROOT
ATOM      1  C   UNL     1       1.995   7.903  19.286  0.00  0.00    +0.000 A 
ATOM      2  C   UNL     1       1.492   7.538  20.499  0.00  0.00    +0.000 A 
ATOM      3  C   UNL     1       1.118   8.446  21.545  0.00  0.00    +0.000 A 
ATOM      4  C   UNL     1       0.256   9.281  20.994  0.00  0.00    +0.000 A 
ATOM      5  N   UNL     1       0.625   9.964  19.874  0.00  0.00    +0.000 N 
ATOM      6  C   UNL     1      -0.052  11.145  19.711  0.00  0.00    +0.000 A 
ATOM      7  O   UNL     1      -1.241  11.336  20.006  0.00  0.00    +0.000 OA
ATOM      8  C   UNL     1       0.766  12.233  19.325  0.00  0.00    +0.000 A 
ATOM      9  C   UNL     1       0.511  13.468  19.939  0.00  0.00    +0.000 A 
ATOM     10  C   UNL     1       1.171  14.611  19.576  0.00  0.00    +0.000 A 
ATOM     11  C   UNL     1       0.916  15.807  20.288  0.00  0.00    +0.000 A 
ATOM     12  C   UNL     1       1.472  17.011  19.893  0.00  0.00    +0.000 A 
ATOM     13  C   UNL     1       2.250  17.029  18.752  0.00  0.00    +0.000 A 
ATOM     14  C   UNL     1       2.551  15.815  18.069  0.00  0.00    +0.000 A 
ATOM     15  C   UNL     1       2.077  14.527  18.495  0.00  0.00    +0.000 A 
ATOM     16  C   UNL     1       2.417  13.156  17.980  0.00  0.00    +0.000 A 
ATOM     17  C   UNL     1       1.839  11.948  18.485  0.00  0.00    +0.000 A 
ATOM     18  N   UNL     1       2.279  10.503  18.261  0.00  0.00    +0.000 NA
ATOM     19  C   UNL     1       1.751   9.554  19.031  0.00  0.00    +0.000 A 
ENDROOT
BRANCH   1  21
ATOM     20  O   UNL     1       2.241   5.507  19.434  0.00  0.00    +0.000 OA
ATOM     21  C   UNL     1       2.635   6.533  18.840  0.00  0.00    +0.000 C 
ATOM     22  N   UNL     1       3.569   6.214  17.894  0.00  0.00    +0.000 N 
ATOM     23  H   UNL     1       3.993   6.912  17.304  0.00  0.00    +0.000 HD
BRANCH  22  24
ATOM     24  C   UNL     1       4.132   4.802  17.865  0.00  0.00    +0.000 C 
BRANCH  24  25
ATOM     25  C   UNL     1       4.465   4.099  16.517  0.00  0.00    +0.000 C 
BRANCH  25  26
ATOM     26  C   UNL     1       5.674   4.624  15.816  0.00  0.00    +0.000 A 
ATOM     27  C   UNL     1       6.684   5.416  16.331  0.00  0.00    +0.000 A 
ATOM     28  N   UNL     1       7.585   5.664  15.324  0.00  0.00    +0.000 N 
ATOM     29  C   UNL     1       7.193   5.026  14.173  0.00  0.00    +0.000 A 
ATOM     30  C   UNL     1       7.780   4.999  12.900  0.00  0.00    +0.000 A 
ATOM     31  C   UNL     1       7.151   4.224  11.919  0.00  0.00    +0.000 A 
ATOM     32  C   UNL     1       6.003   3.489  12.202  0.00  0.00    +0.000 A 
ATOM     33  C   UNL     1       5.434   3.527  13.476  0.00  0.00    +0.000 A 
ATOM     34  C   UNL     1       6.024   4.328  14.469  0.00  0.00    +0.000 A 
ATOM     35  H   UNL     1       8.423   6.221  15.414  0.00  0.00    +0.000 HD
ENDBRANCH  25  26
ENDBRANCH  24  25
ENDBRANCH  22  24
ENDBRANCH   1  21
TORSDOF 4
ENDMDL
MODEL 4
REMARK VINA RESULT:      -8.8      1.083      1.371
REMARK  Name = 
REMARK  4 active torsions:
REMARK  status: ('A' for Active; 'I' for Inactive)
REMARK    1  A    between atoms: C_2  and  C_15
REMARK    2  A    between atoms: N_3  and  C_4
REMARK    3  A    between atoms: C_4  and  C_5
REMARK    4  A    between atoms: C_5  and  C_6
REMARK                            x       y       z     vdW  Elec       q    Type
REMARK                         _______ _______ _______ _____ _____    ______ ____
ROOT
ATOM      1  C   UNL     1       1.694   7.834  19.823  0.00  0.00    +0.000 A 
ATOM      2  C   UNL     1       1.930   8.213  18.535  0.00  0.00    +0.000 A 
ATOM      3  C   UNL     1       1.350   9.356  17.891  0.00  0.00    +0.000 A 
ATOM      4  C   UNL     1       1.644  10.383  18.666  0.00  0.00    +0.000 A 
ATOM      5  N   UNL     1       1.287  10.340  19.980  0.00  0.00    +0.000 N 
ATOM      6  C   UNL     1       1.121  11.580  20.539  0.00  0.00    +0.000 A 
ATOM      7  O   UNL     1       1.798  12.584  20.270  0.00  0.00    +0.000 OA
ATOM      8  C   UNL     1      -0.029  11.700  21.354  0.00  0.00    +0.000 A 
ATOM      9  C   UNL     1      -0.769  12.886  21.240  0.00  0.00    +0.000 A 
ATOM     10  C   UNL     1      -1.842  13.155  22.046  0.00  0.00    +0.000 A 
ATOM     11  C   UNL     1      -2.587  14.338  21.826  0.00  0.00    +0.000 A 
ATOM     12  C   UNL     1      -3.610  14.712  22.679  0.00  0.00    +0.000 A 
ATOM     13  C   UNL     1      -3.860  13.923  23.785  0.00  0.00    +0.000 A 
ATOM     14  C   UNL     1      -3.148  12.704  23.974  0.00  0.00    +0.000 A 
ATOM     15  C   UNL     1      -2.143  12.224  23.065  0.00  0.00    +0.000 A 
ATOM     16  C   UNL     1      -1.413  10.910  23.041  0.00  0.00    +0.000 A 
ATOM     17  C   UNL     1      -0.403  10.575  22.085  0.00  0.00    +0.000 A 
ATOM     18  N   UNL     1       0.211   9.213  21.770  0.00  0.00    +0.000 NA
ATOM     19  C   UNL     1       0.950   9.091  20.668  0.00  0.00    +0.000 A 
ENDROOT
BRANCH   1  21
ATOM     20  O   UNL     1       2.158   5.788  18.631  0.00  0.00    +0.000 OA
ATOM     21  C   UNL     1       2.181   6.336  19.753  0.00  0.00    +0.000 C 
ATOM     22  N   UNL     1       2.649   5.471  20.702  0.00  0.00    +0.000 N 
ATOM     23  H   UNL     1       2.752   5.742  21.668  0.00  0.00    +0.000 HD
BRANCH  22  24
ATOM     24  C   UNL     1       2.832   4.008  20.337  0.00  0.00    +0.000 C 
BRANCH  24  25
ATOM     25  C   UNL     1       4.229   3.449  19.937  0.00  0.00    +0.000 C 
BRANCH  25  26
ATOM     26  C   UNL     1       4.678   3.806  18.559  0.00  0.00    +0.000 A 
ATOM     27  C   UNL     1       4.188   3.339  17.352  0.00  0.00    +0.000 A 
ATOM     28  N   UNL     1       4.907   3.932  16.343  0.00  0.00    +0.000 N 
ATOM     29  C   UNL     1       5.835   4.796  16.871  0.00  0.00    +0.000 A 
ATOM     30  C   UNL     1       6.792   5.604  16.240  0.00  0.00    +0.000 A 
ATOM     31  C   UNL     1       7.591   6.411  17.056  0.00  0.00    +0.000 A 
ATOM     32  C   UNL     1       7.427   6.429  18.439  0.00  0.00    +0.000 A 
ATOM     33  C   UNL     1       6.469   5.619  19.049  0.00  0.00    +0.000 A 
ATOM     34  C   UNL     1       5.678   4.771  18.254  0.00  0.00    +0.000 A 
ATOM     35  H   UNL     1       4.769   3.772  15.355  0.00  0.00    +0.000 HD
ENDBRANCH  25  26
ENDBRANCH  24  25
ENDBRANCH  22  24
ENDBRANCH   1  21
TORSDOF 4
ENDMDL
MODEL 5
REMARK VINA RESULT:      -8.8      2.323      3.691
REMARK  Name = 
REMARK  4 active torsions:
REMARK  status: ('A' for Active; 'I' for Inactive)
REMARK    1  A    between atoms: C_2  and  C_15
REMARK    2  A    between atoms: N_3  and  C_4
REMARK    3  A    between atoms: C_4  and  C_5
REMARK    4  A    between atoms: C_5  and  C_6
REMARK                            x       y       z     vdW  Elec       q    Type
REMARK                         _______ _______ _______ _____ _____    ______ ____
ROOT
ATOM      1  C   UNL     1       1.926   7.491  19.463  0.00  0.00    +0.000 A 
ATOM      2  C   UNL     1       1.370   7.261  20.686  0.00  0.00    +0.000 A 
ATOM      3  C   UNL     1       1.035   8.274  21.645  0.00  0.00    +0.000 A 
ATOM      4  C   UNL     1       0.248   9.118  21.003  0.00  0.00    +0.000 A 
ATOM      5  N   UNL     1       0.691   9.681  19.844  0.00  0.00    +0.000 N 
ATOM      6  C   UNL     1       0.102  10.888  19.567  0.00  0.00    +0.000 A 
ATOM      7  O   UNL     1      -1.077  11.183  19.811  0.00  0.00    +0.000 OA
ATOM      8  C   UNL     1       1.003  11.883  19.121  0.00  0.00    +0.000 A 
ATOM      9  C   UNL     1       0.821  13.178  19.626  0.00  0.00    +0.000 A 
ATOM     10  C   UNL     1       1.568  14.240  19.193  0.00  0.00    +0.000 A 
ATOM     11  C   UNL     1       1.380  15.505  19.800  0.00  0.00    +0.000 A 
ATOM     12  C   UNL     1       2.028  16.632  19.326  0.00  0.00    +0.000 A 
ATOM     13  C   UNL     1       2.832  16.504  18.211  0.00  0.00    +0.000 A 
ATOM     14  C   UNL     1       3.065  15.221  17.636  0.00  0.00    +0.000 A 
ATOM     15  C   UNL     1       2.491  14.007  18.149  0.00  0.00    +0.000 A 
ATOM     16  C   UNL     1       2.747  12.579  17.756  0.00  0.00    +0.000 A 
ATOM     17  C   UNL     1       2.073  11.458  18.338  0.00  0.00    +0.000 A 
ATOM     18  N   UNL     1       2.417   9.973  18.243  0.00  0.00    +0.000 NA
ATOM     19  C   UNL     1       1.805   9.128  19.070  0.00  0.00    +0.000 A 
ENDROOT
BRANCH   1  21
ATOM     20  O   UNL     1       3.294   5.566  19.962  0.00  0.00    +0.000 OA
ATOM     21  C   UNL     1       2.480   6.048  19.147  0.00  0.00    +0.000 C 
ATOM     22  N   UNL     1       2.241   5.170  18.126  0.00  0.00    +0.000 N 
ATOM     23  H   UNL     1       1.598   5.380  17.379  0.00  0.00    +0.000 HD
BRANCH  22  24
ATOM     24  C   UNL     1       3.114   3.932  18.005  0.00  0.00    +0.000 C 
BRANCH  24  25
ATOM     25  C   UNL     1       4.208   3.826  16.904  0.00  0.00    +0.000 C 
BRANCH  25  26
ATOM     26  C   UNL     1       5.015   5.066  16.698  0.00  0.00    +0.000 A 
ATOM     27  C   UNL     1       4.895   6.007  15.691  0.00  0.00    +0.000 A 
ATOM     28  N   UNL     1       5.851   6.971  15.895  0.00  0.00    +0.000 N 
ATOM     29  C   UNL     1       6.571   6.689  17.030  0.00  0.00    +0.000 A 
ATOM     30  C   UNL     1       7.644   7.370  17.622  0.00  0.00    +0.000 A 
ATOM     31  C   UNL     1       8.162   6.844  18.811  0.00  0.00    +0.000 A 
ATOM     32  C   UNL     1       7.617   5.704  19.395  0.00  0.00    +0.000 A 
ATOM     33  C   UNL     1       6.549   5.040  18.792  0.00  0.00    +0.000 A 
ATOM     34  C   UNL     1       6.035   5.527  17.577  0.00  0.00    +0.000 A 
ATOM     35  H   UNL     1       5.999   7.781  15.308  0.00  0.00    +0.000 HD
ENDBRANCH  25  26
ENDBRANCH  24  25
ENDBRANCH  22  24
ENDBRANCH   1  21
TORSDOF 4
ENDMDL
MODEL 6
REMARK VINA RESULT:      -8.7      2.786      4.775
REMARK  Name = 
REMARK  4 active torsions:
REMARK  status: ('A' for Active; 'I' for Inactive)
REMARK    1  A    between atoms: C_2  and  C_15
REMARK    2  A    between atoms: N_3  and  C_4
REMARK    3  A    between atoms: C_4  and  C_5
REMARK    4  A    between atoms: C_5  and  C_6
REMARK                            x       y       z     vdW  Elec       q    Type
REMARK                         _______ _______ _______ _____ _____    ______ ____
ROOT
ATOM      1  C   UNL     1       0.624  10.075  20.683  0.00  0.00    +0.000 A 
ATOM      2  C   UNL     1       0.529   9.086  21.616  0.00  0.00    +0.000 A 
ATOM      3  C   UNL     1       0.292   9.290  23.015  0.00  0.00    +0.000 A 
ATOM      4  C   UNL     1      -0.816  10.005  23.083  0.00  0.00    +0.000 A 
ATOM      5  N   UNL     1      -0.879  11.186  22.407  0.00  0.00    +0.000 N 
ATOM      6  C   UNL     1      -1.770  12.076  22.950  0.00  0.00    +0.000 A 
ATOM      7  O   UNL     1      -2.854  11.775  23.473  0.00  0.00    +0.000 OA
ATOM      8  C   UNL     1      -1.285  13.402  23.038  0.00  0.00    +0.000 A 
ATOM      9  C   UNL     1      -1.580  14.110  24.212  0.00  0.00    +0.000 A 
ATOM     10  C   UNL     1      -1.248  15.428  24.369  0.00  0.00    +0.000 A 
ATOM     11  C   UNL     1      -1.511  16.060  25.608  0.00  0.00    +0.000 A 
ATOM     12  C   UNL     1      -1.298  17.416  25.783  0.00  0.00    +0.000 A 
ATOM     13  C   UNL     1      -0.863  18.154  24.700  0.00  0.00    +0.000 A 
ATOM     14  C   UNL     1      -0.546  17.508  23.471  0.00  0.00    +0.000 A 
ATOM     15  C   UNL     1      -0.659  16.089  23.268  0.00  0.00    +0.000 A 
ATOM     16  C   UNL     1      -0.233  15.245  22.100  0.00  0.00    +0.000 A 
ATOM     17  C   UNL     1      -0.439  13.831  22.019  0.00  0.00    +0.000 A 
ATOM     18  N   UNL     1       0.172  12.823  21.049  0.00  0.00    +0.000 NA
ATOM     19  C   UNL     1       0.039  11.525  21.316  0.00  0.00    +0.000 A 
ENDROOT
BRANCH   1  21
ATOM     20  O   UNL     1       1.367   9.820  18.401  0.00  0.00    +0.000 OA
ATOM     21  C   UNL     1       1.353   9.285  19.529  0.00  0.00    +0.000 C 
ATOM     22  N   UNL     1       2.008   8.085  19.502  0.00  0.00    +0.000 N 
ATOM     23  H   UNL     1       2.112   7.513  20.326  0.00  0.00    +0.000 HD
BRANCH  22  24
ATOM     24  C   UNL     1       2.417   7.502  18.160  0.00  0.00    +0.000 C 
BRANCH  24  25
ATOM     25  C   UNL     1       3.570   6.462  18.054  0.00  0.00    +0.000 C 
BRANCH  25  26
ATOM     26  C   UNL     1       3.135   5.035  18.091  0.00  0.00    +0.000 A 
ATOM     27  C   UNL     1       3.158   4.107  17.065  0.00  0.00    +0.000 A 
ATOM     28  N   UNL     1       2.656   2.925  17.549  0.00  0.00    +0.000 N 
ATOM     29  C   UNL     1       2.333   3.058  18.878  0.00  0.00    +0.000 A 
ATOM     30  C   UNL     1       1.783   2.137  19.779  0.00  0.00    +0.000 A 
ATOM     31  C   UNL     1       1.590   2.564  21.097  0.00  0.00    +0.000 A 
ATOM     32  C   UNL     1       1.953   3.846  21.503  0.00  0.00    +0.000 A 
ATOM     33  C   UNL     1       2.500   4.749  20.592  0.00  0.00    +0.000 A 
ATOM     34  C   UNL     1       2.670   4.356  19.252  0.00  0.00    +0.000 A 
ATOM     35  H   UNL     1       2.550   2.072  17.016  0.00  0.00    +0.000 HD
ENDBRANCH  25  26
ENDBRANCH  24  25
ENDBRANCH  22  24
ENDBRANCH   1  21
TORSDOF 4
ENDMDL
MODEL 7
REMARK VINA RESULT:      -8.6      6.209      8.346
REMARK  Name = 
REMARK  4 active torsions:
REMARK  status: ('A' for Active; 'I' for Inactive)
REMARK    1  A    between atoms: C_2  and  C_15
REMARK    2  A    between atoms: N_3  and  C_4
REMARK    3  A    between atoms: C_4  and  C_5
REMARK    4  A    between atoms: C_5  and  C_6
REMARK                            x       y       z     vdW  Elec       q    Type
REMARK                         _______ _______ _______ _____ _____    ______ ____
ROOT
ATOM      1  C   UNL     1       8.871  10.038  19.016  0.00  0.00    +0.000 A 
ATOM      2  C   UNL     1       9.054  10.646  17.810  0.00  0.00    +0.000 A 
ATOM      3  C   UNL     1       9.111  12.064  17.601  0.00  0.00    +0.000 A 
ATOM      4  C   UNL     1      10.057  12.501  18.412  0.00  0.00    +0.000 A 
ATOM      5  N   UNL     1       9.969  12.214  19.741  0.00  0.00    +0.000 N 
ATOM      6  C   UNL     1      10.624  13.119  20.535  0.00  0.00    +0.000 A 
ATOM      7  O   UNL     1      11.688  13.687  20.248  0.00  0.00    +0.000 OA
ATOM      8  C   UNL     1       9.898  13.515  21.684  0.00  0.00    +0.000 A 
ATOM      9  C   UNL     1       9.942  14.874  22.026  0.00  0.00    +0.000 A 
ATOM     10  C   UNL     1       9.360  15.356  23.167  0.00  0.00    +0.000 A 
ATOM     11  C   UNL     1       9.380  16.750  23.412  0.00  0.00    +0.000 A 
ATOM     12  C   UNL     1       8.905  17.277  24.600  0.00  0.00    +0.000 A 
ATOM     13  C   UNL     1       8.451  16.403  25.568  0.00  0.00    +0.000 A 
ATOM     14  C   UNL     1       8.379  15.006  25.298  0.00  0.00    +0.000 A 
ATOM     15  C   UNL     1       8.770  14.420  24.045  0.00  0.00    +0.000 A 
ATOM     16  C   UNL     1       8.623  13.006  23.555  0.00  0.00    +0.000 A 
ATOM     17  C   UNL     1       9.091  12.550  22.282  0.00  0.00    +0.000 A 
ATOM     18  N   UNL     1       8.774  11.250  21.548  0.00  0.00    +0.000 NA
ATOM     19  C   UNL     1       9.116  11.145  20.266  0.00  0.00    +0.000 A 
ENDROOT
BRANCH   1  21
ATOM     20  O   UNL     1       7.830   8.550  17.426  0.00  0.00    +0.000 OA
ATOM     21  C   UNL     1       8.416   8.609  18.527  0.00  0.00    +0.000 C 
ATOM     22  N   UNL     1       8.539   7.363  19.076  0.00  0.00    +0.000 N 
ATOM     23  H   UNL     1       8.999   7.210  19.960  0.00  0.00    +0.000 HD
BRANCH  22  24
ATOM     24  C   UNL     1       7.790   6.204  18.439  0.00  0.00    +0.000 C 
BRANCH  24  25
ATOM     25  C   UNL     1       6.579   5.540  19.156  0.00  0.00    +0.000 C 
BRANCH  25  26
ATOM     26  C   UNL     1       5.568   4.926  18.245  0.00  0.00    +0.000 A 
ATOM     27  C   UNL     1       5.750   4.463  16.954  0.00  0.00    +0.000 A 
ATOM     28  N   UNL     1       4.545   3.989  16.498  0.00  0.00    +0.000 N 
ATOM     29  C   UNL     1       3.589   4.111  17.477  0.00  0.00    +0.000 A 
ATOM     30  C   UNL     1       2.227   3.780  17.468  0.00  0.00    +0.000 A 
ATOM     31  C   UNL     1       1.505   4.000  18.647  0.00  0.00    +0.000 A 
ATOM     32  C   UNL     1       2.120   4.504  19.790  0.00  0.00    +0.000 A 
ATOM     33  C   UNL     1       3.477   4.826  19.780  0.00  0.00    +0.000 A 
ATOM     34  C   UNL     1       4.217   4.651  18.597  0.00  0.00    +0.000 A 
ATOM     35  H   UNL     1       4.380   3.594  15.582  0.00  0.00    +0.000 HD
ENDBRANCH  25  26
ENDBRANCH  24  25
ENDBRANCH  22  24
ENDBRANCH   1  21
TORSDOF 4
ENDMDL
MODEL 8
REMARK VINA RESULT:      -8.6      2.723      4.608
REMARK  Name = 
REMARK  4 active torsions:
REMARK  status: ('A' for Active; 'I' for Inactive)
REMARK    1  A    between atoms: C_2  and  C_15
REMARK    2  A    between atoms: N_3  and  C_4
REMARK    3  A    between atoms: C_4  and  C_5
REMARK    4  A    between atoms: C_5  and  C_6
REMARK                            x       y       z     vdW  Elec       q    Type
REMARK                         _______ _______ _______ _____ _____    ______ ____
ROOT
ATOM      1  C   UNL     1       0.584   9.970  20.631  0.00  0.00    +0.000 A 
ATOM      2  C   UNL     1       0.529   9.008  21.595  0.00  0.00    +0.000 A 
ATOM      3  C   UNL     1       0.348   9.252  22.997  0.00  0.00    +0.000 A 
ATOM      4  C   UNL     1      -0.758   9.967  23.088  0.00  0.00    +0.000 A 
ATOM      5  N   UNL     1      -0.851  11.128  22.382  0.00  0.00    +0.000 N 
ATOM      6  C   UNL     1      -1.722  12.032  22.936  0.00  0.00    +0.000 A 
ATOM      7  O   UNL     1      -2.783  11.745  23.510  0.00  0.00    +0.000 OA
ATOM      8  C   UNL     1      -1.237  13.361  22.966  0.00  0.00    +0.000 A 
ATOM      9  C   UNL     1      -1.485  14.102  24.130  0.00  0.00    +0.000 A 
ATOM     10  C   UNL     1      -1.151  15.424  24.236  0.00  0.00    +0.000 A 
ATOM     11  C   UNL     1      -1.364  16.091  25.467  0.00  0.00    +0.000 A 
ATOM     12  C   UNL     1      -1.147  17.451  25.594  0.00  0.00    +0.000 A 
ATOM     13  C   UNL     1      -0.758  18.159  24.474  0.00  0.00    +0.000 A 
ATOM     14  C   UNL     1      -0.489  17.478  23.251  0.00  0.00    +0.000 A 
ATOM     15  C   UNL     1      -0.608  16.054  23.094  0.00  0.00    +0.000 A 
ATOM     16  C   UNL     1      -0.228  15.178  21.934  0.00  0.00    +0.000 A 
ATOM     17  C   UNL     1      -0.433  13.762  21.902  0.00  0.00    +0.000 A 
ATOM     18  N   UNL     1       0.140  12.727  20.937  0.00  0.00    +0.000 NA
ATOM     19  C   UNL     1       0.021  11.437  21.246  0.00  0.00    +0.000 A 
ENDROOT
BRANCH   1  21
ATOM     20  O   UNL     1       1.079   9.554  18.306  0.00  0.00    +0.000 OA
ATOM     21  C   UNL     1       1.267   9.148  19.472  0.00  0.00    +0.000 C 
ATOM     22  N   UNL     1       2.064   8.037  19.473  0.00  0.00    +0.000 N 
ATOM     23  H   UNL     1       2.337   7.575  20.326  0.00  0.00    +0.000 HD
BRANCH  22  24
ATOM     24  C   UNL     1       2.383   7.361  18.150  0.00  0.00    +0.000 C 
BRANCH  24  25
ATOM     25  C   UNL     1       3.836   6.927  17.800  0.00  0.00    +0.000 C 
BRANCH  25  26
ATOM     26  C   UNL     1       4.227   5.577  18.304  0.00  0.00    +0.000 A 
ATOM     27  C   UNL     1       5.445   5.180  18.828  0.00  0.00    +0.000 A 
ATOM     28  N   UNL     1       5.354   3.849  19.151  0.00  0.00    +0.000 N 
ATOM     29  C   UNL     1       4.093   3.380  18.873  0.00  0.00    +0.000 A 
ATOM     30  C   UNL     1       3.543   2.100  19.021  0.00  0.00    +0.000 A 
ATOM     31  C   UNL     1       2.199   1.933  18.670  0.00  0.00    +0.000 A 
ATOM     32  C   UNL     1       1.431   3.003  18.216  0.00  0.00    +0.000 A 
ATOM     33  C   UNL     1       1.996   4.271  18.077  0.00  0.00    +0.000 A 
ATOM     34  C   UNL     1       3.355   4.456  18.386  0.00  0.00    +0.000 A 
ATOM     35  H   UNL     1       6.098   3.292  19.550  0.00  0.00    +0.000 HD
ENDBRANCH  25  26
ENDBRANCH  24  25
ENDBRANCH  22  24
ENDBRANCH   1  21
TORSDOF 4
ENDMDL
MODEL 9
REMARK VINA RESULT:      -8.5      2.051      3.608
REMARK  Name = 
REMARK  4 active torsions:
REMARK  status: ('A' for Active; 'I' for Inactive)
REMARK    1  A    between atoms: C_2  and  C_15
REMARK    2  A    between atoms: N_3  and  C_4
REMARK    3  A    between atoms: C_4  and  C_5
REMARK    4  A    between atoms: C_5  and  C_6
REMARK                            x       y       z     vdW  Elec       q    Type
REMARK                         _______ _______ _______ _____ _____    ______ ____
ROOT
ATOM      1  C   UNL     1       0.833   9.508  18.957  0.00  0.00    +0.000 A 
ATOM      2  C   UNL     1       0.301   9.522  17.703  0.00  0.00    +0.000 A 
ATOM      3  C   UNL     1      -1.025   9.960  17.373  0.00  0.00    +0.000 A 
ATOM      4  C   UNL     1      -1.121  11.184  17.858  0.00  0.00    +0.000 A 
ATOM      5  N   UNL     1      -0.861  11.391  19.179  0.00  0.00    +0.000 N 
ATOM      6  C   UNL     1      -1.495  12.494  19.690  0.00  0.00    +0.000 A 
ATOM      7  O   UNL     1      -1.692  13.555  19.079  0.00  0.00    +0.000 OA
ATOM      8  C   UNL     1      -2.089  12.286  20.958  0.00  0.00    +0.000 A 
ATOM      9  C   UNL     1      -3.356  12.849  21.165  0.00  0.00    +0.000 A 
ATOM     10  C   UNL     1      -3.985  12.797  22.380  0.00  0.00    +0.000 A 
ATOM     11  C   UNL     1      -5.295  13.322  22.498  0.00  0.00    +0.000 A 
ATOM     12  C   UNL     1      -5.932  13.394  23.725  0.00  0.00    +0.000 A 
ATOM     13  C   UNL     1      -5.239  12.983  24.846  0.00  0.00    +0.000 A 
ATOM     14  C   UNL     1      -3.943  12.403  24.718  0.00  0.00    +0.000 A 
ATOM     15  C   UNL     1      -3.279  12.219  23.457  0.00  0.00    +0.000 A 
ATOM     16  C   UNL     1      -1.996  11.503  23.140  0.00  0.00    +0.000 A 
ATOM     17  C   UNL     1      -1.430  11.423  21.828  0.00  0.00    +0.000 A 
ATOM     18  N   UNL     1      -0.311  10.519  21.315  0.00  0.00    +0.000 NA
ATOM     19  C   UNL     1      -0.119  10.432  20.000  0.00  0.00    +0.000 A 
ENDROOT
BRANCH   1  21
ATOM     20  O   UNL     1       2.258   7.682  19.634  0.00  0.00    +0.000 OA
ATOM     21  C   UNL     1       2.032   8.509  18.727  0.00  0.00    +0.000 C 
ATOM     22  N   UNL     1       2.912   8.346  17.693  0.00  0.00    +0.000 N 
ATOM     23  H   UNL     1       2.875   8.916  16.863  0.00  0.00    +0.000 HD
BRANCH  22  24
ATOM     24  C   UNL     1       4.101   7.418  17.882  0.00  0.00    +0.000 C 
BRANCH  24  25
ATOM     25  C   UNL     1       4.263   6.136  17.015  0.00  0.00    +0.000 C 
BRANCH  25  26
ATOM     26  C   UNL     1       4.351   4.861  17.788  0.00  0.00    +0.000 A 
ATOM     27  C   UNL     1       5.480   4.250  18.304  0.00  0.00    +0.000 A 
ATOM     28  N   UNL     1       5.088   3.093  18.931  0.00  0.00    +0.000 N 
ATOM     29  C   UNL     1       3.723   2.954  18.855  0.00  0.00    +0.000 A 
ATOM     30  C   UNL     1       2.882   1.939  19.331  0.00  0.00    +0.000 A 
ATOM     31  C   UNL     1       1.507   2.092  19.121  0.00  0.00    +0.000 A 
ATOM     32  C   UNL     1       0.993   3.221  18.487  0.00  0.00    +0.000 A 
ATOM     33  C   UNL     1       1.846   4.222  18.021  0.00  0.00    +0.000 A 
ATOM     34  C   UNL     1       3.235   4.073  18.186  0.00  0.00    +0.000 A 
ATOM     35  H   UNL     1       5.705   2.441  19.395  0.00  0.00    +0.000 HD
ENDBRANCH  25  26
ENDBRANCH  24  25
ENDBRANCH  22  24
ENDBRANCH   1  21
TORSDOF 4
ENDMDL
