MODEL 1
REMARK VINA RESULT:      -8.4      0.000      0.000
REMARK  Name = 
REMARK  9 active torsions:
REMARK  status: ('A' for Active; 'I' for Inactive)
REMARK    1  A    between atoms: C_1  and  C_2
REMARK    2  A    between atoms: N_4  and  C_5
REMARK    3  A    between atoms: C_5  and  C_6
REMARK    4  A    between atoms: C_7  and  C_8
REMARK    5  A    between atoms: C_8  and  N_9
REMARK    6  A    between atoms: N_9  and  C_10
REMARK    7  A    between atoms: N_9  and  C_17
REMARK    8  A    between atoms: C_10  and  C_11
REMARK    9  A    between atoms: C_17  and  C_18
REMARK                            x       y       z     vdW  Elec       q    Type
REMARK                         _______ _______ _______ _____ _____    ______ ____
ROOT
ATOM      1  N   UNL     1       3.176   6.624  18.497  0.00  0.00    +0.000 NA
ENDROOT
BRANCH   1   2
ATOM      2  C   UNL     1       2.234   7.701  18.859  0.00  0.00    +0.000 C 
BRANCH   2   4
ATOM      3  C   UNL     1       1.414   9.934  17.999  0.00  0.00    +0.000 C 
ATOM      4  C   UNL     1       2.243   8.878  17.924  0.00  0.00    +0.000 C 
BRANCH   3   5
ATOM      5  C   UNL     1       0.253  10.065  18.944  0.00  0.00    +0.000 C 
BRANCH   5   9
ATOM      6  C   UNL     1      -3.302   9.928  15.453  0.00  0.00    +0.000 C 
ATOM      7  C   UNL     1      -2.691  10.489  16.693  0.00  0.00    +0.000 A 
ATOM      8  C   UNL     1      -1.476  10.150  17.140  0.00  0.00    +0.000 A 
ATOM      9  N   UNL     1      -0.976  10.591  18.351  0.00  0.00    +0.000 N 
ATOM     10  C   UNL     1      -1.678  11.509  19.126  0.00  0.00    +0.000 A 
ATOM     11  O   UNL     1      -1.312  11.903  20.239  0.00  0.00    +0.000 OA
ATOM     12  N   UNL     1      -2.864  11.947  18.602  0.00  0.00    +0.000 N 
ATOM     13  C   UNL     1      -3.494  11.422  17.513  0.00  0.00    +0.000 A 
ATOM     14  O   UNL     1      -4.660  11.689  17.235  0.00  0.00    +0.000 OA
ATOM     15  H   UNL     1      -3.410  12.562  19.187  0.00  0.00    +0.000 HD
ENDBRANCH   5   9
ENDBRANCH   3   5
ENDBRANCH   2   4
ENDBRANCH   1   2
BRANCH   1  16
ATOM     16  C   UNL     1       2.442   5.381  18.185  0.00  0.00    +0.000 C 
BRANCH  16  17
ATOM     17  C   UNL     1       2.445   4.319  19.269  0.00  0.00    +0.000 A 
ATOM     18  C   UNL     1       3.587   3.554  19.551  0.00  0.00    +0.000 A 
ATOM     19  C   UNL     1       3.583   2.642  20.614  0.00  0.00    +0.000 A 
ATOM     20  C   UNL     1       2.448   2.498  21.408  0.00  0.00    +0.000 A 
ATOM     21  C   UNL     1       1.307   3.250  21.135  0.00  0.00    +0.000 A 
ATOM     22  C   UNL     1       1.302   4.147  20.066  0.00  0.00    +0.000 A 
ENDBRANCH  16  17
ENDBRANCH   1  16
BRANCH   1  23
ATOM     23  C   UNL     1       3.981   7.059  17.322  0.00  0.00    +0.000 C 
BRANCH  23  24
ATOM     24  C   UNL     1       5.225   6.216  17.097  0.00  0.00    +0.000 A 
ATOM     25  C   UNL     1       5.451   5.600  15.858  0.00  0.00    +0.000 A 
ATOM     26  C   UNL     1       6.521   4.719  15.689  0.00  0.00    +0.000 A 
ATOM     27  C   UNL     1       7.378   4.447  16.753  0.00  0.00    +0.000 A 
ATOM     28  C   UNL     1       7.195   5.092  17.975  0.00  0.00    +0.000 A 
ATOM     29  C   UNL     1       6.133   5.984  18.143  0.00  0.00    +0.000 A 
ENDBRANCH  23  24
ENDBRANCH   1  23
TORSDOF 8
ENDMDL
MODEL 2
REMARK VINA RESULT:      -8.3      0.789      3.939
REMARK  Name = 
REMARK  9 active torsions:
REMARK  status: ('A' for Active; 'I' for Inactive)
REMARK    1  A    between atoms: C_1  and  C_2
REMARK    2  A    between atoms: N_4  and  C_5
REMARK    3  A    between atoms: C_5  and  C_6
REMARK    4  A    between atoms: C_7  and  C_8
REMARK    5  A    between atoms: C_8  and  N_9
REMARK    6  A    between atoms: N_9  and  C_10
REMARK    7  A    between atoms: N_9  and  C_17
REMARK    8  A    between atoms: C_10  and  C_11
REMARK    9  A    between atoms: C_17  and  C_18
REMARK                            x       y       z     vdW  Elec       q    Type
REMARK                         _______ _______ _______ _____ _____    ______ ____
ROOT
ATOM      1  N   UNL     1       2.868   6.698  17.968  0.00  0.00    +0.000 NA
ENDROOT
BRANCH   1   2
ATOM      2  C   UNL     1       1.754   7.663  18.040  0.00  0.00    +0.000 C 
BRANCH   2   4
ATOM      3  C   UNL     1       1.520  10.154  18.411  0.00  0.00    +0.000 C 
ATOM      4  C   UNL     1       2.161   9.101  17.876  0.00  0.00    +0.000 C 
BRANCH   3   5
ATOM      5  C   UNL     1       0.216  10.094  19.156  0.00  0.00    +0.000 C 
BRANCH   5   9
ATOM      6  C   UNL     1      -3.066   9.745  15.421  0.00  0.00    +0.000 C 
ATOM      7  C   UNL     1      -2.530  10.399  16.650  0.00  0.00    +0.000 A 
ATOM      8  C   UNL     1      -1.366  10.065  17.220  0.00  0.00    +0.000 A 
ATOM      9  N   UNL     1      -0.944  10.601  18.423  0.00  0.00    +0.000 N 
ATOM     10  C   UNL     1      -1.668  11.608  19.055  0.00  0.00    +0.000 A 
ATOM     11  O   UNL     1      -1.373  12.090  20.153  0.00  0.00    +0.000 OA
ATOM     12  N   UNL     1      -2.794  12.031  18.402  0.00  0.00    +0.000 N 
ATOM     13  C   UNL     1      -3.357  11.427  17.318  0.00  0.00    +0.000 A 
ATOM     14  O   UNL     1      -4.488  11.703  16.925  0.00  0.00    +0.000 OA
ATOM     15  H   UNL     1      -3.359  12.714  18.884  0.00  0.00    +0.000 HD
ENDBRANCH   5   9
ENDBRANCH   3   5
ENDBRANCH   2   4
ENDBRANCH   1   2
BRANCH   1  16
ATOM     16  C   UNL     1       4.101   7.369  17.510  0.00  0.00    +0.000 C 
BRANCH  16  17
ATOM     17  C   UNL     1       5.220   6.455  17.045  0.00  0.00    +0.000 A 
ATOM     18  C   UNL     1       6.316   6.151  17.867  0.00  0.00    +0.000 A 
ATOM     19  C   UNL     1       7.289   5.238  17.442  0.00  0.00    +0.000 A 
ATOM     20  C   UNL     1       7.166   4.613  16.203  0.00  0.00    +0.000 A 
ATOM     21  C   UNL     1       6.084   4.909  15.377  0.00  0.00    +0.000 A 
ATOM     22  C   UNL     1       5.123   5.832  15.791  0.00  0.00    +0.000 A 
ENDBRANCH  16  17
ENDBRANCH   1  16
BRANCH   1  23
ATOM     23  C   UNL     1       3.075   6.097  19.315  0.00  0.00    +0.000 C 
BRANCH  23  24
ATOM     24  C   UNL     1       2.376   4.759  19.492  0.00  0.00    +0.000 A 
ATOM     25  C   UNL     1       2.039   3.981  18.376  0.00  0.00    +0.000 A 
ATOM     26  C   UNL     1       1.281   2.817  18.525  0.00  0.00    +0.000 A 
ATOM     27  C   UNL     1       0.855   2.418  19.790  0.00  0.00    +0.000 A 
ATOM     28  C   UNL     1       1.227   3.155  20.913  0.00  0.00    +0.000 A 
ATOM     29  C   UNL     1       1.997   4.312  20.767  0.00  0.00    +0.000 A 
ENDBRANCH  23  24
ENDBRANCH   1  23
TORSDOF 8
ENDMDL
MODEL 3
REMARK VINA RESULT:      -8.2      0.805      1.277
REMARK  Name = 
REMARK  9 active torsions:
REMARK  status: ('A' for Active; 'I' for Inactive)
REMARK    1  A    between atoms: C_1  and  C_2
REMARK    2  A    between atoms: N_4  and  C_5
REMARK    3  A    between atoms: C_5  and  C_6
REMARK    4  A    between atoms: C_7  and  C_8
REMARK    5  A    between atoms: C_8  and  N_9
REMARK    6  A    between atoms: N_9  and  C_10
REMARK    7  A    between atoms: N_9  and  C_17
REMARK    8  A    between atoms: C_10  and  C_11
REMARK    9  A    between atoms: C_17  and  C_18
REMARK                            x       y       z     vdW  Elec       q    Type
REMARK                         _______ _______ _______ _____ _____    ______ ____
ROOT
ATOM      1  N   UNL     1       2.778   7.039  18.188  0.00  0.00    +0.000 NA
ENDROOT
BRANCH   1   2
ATOM      2  C   UNL     1       1.679   7.965  17.854  0.00  0.00    +0.000 C 
BRANCH   2   4
ATOM      3  C   UNL     1       1.281  10.332  18.649  0.00  0.00    +0.000 C 
ATOM      4  C   UNL     1       2.024   9.421  17.998  0.00  0.00    +0.000 C 
BRANCH   3   5
ATOM      5  C   UNL     1      -0.083  10.089  19.234  0.00  0.00    +0.000 C 
BRANCH   5   9
ATOM      6  C   UNL     1      -3.126   9.781  15.299  0.00  0.00    +0.000 C 
ATOM      7  C   UNL     1      -2.673  10.416  16.571  0.00  0.00    +0.000 A 
ATOM      8  C   UNL     1      -1.543  10.082  17.205  0.00  0.00    +0.000 A 
ATOM      9  N   UNL     1      -1.200  10.599  18.441  0.00  0.00    +0.000 N 
ATOM     10  C   UNL     1      -1.972  11.587  19.046  0.00  0.00    +0.000 A 
ATOM     11  O   UNL     1      -1.750  12.052  20.169  0.00  0.00    +0.000 OA
ATOM     12  N   UNL     1      -3.060  12.013  18.333  0.00  0.00    +0.000 N 
ATOM     13  C   UNL     1      -3.550  11.424  17.205  0.00  0.00    +0.000 A 
ATOM     14  O   UNL     1      -4.657  11.698  16.750  0.00  0.00    +0.000 OA
ATOM     15  H   UNL     1      -3.660  12.681  18.792  0.00  0.00    +0.000 HD
ENDBRANCH   5   9
ENDBRANCH   3   5
ENDBRANCH   2   4
ENDBRANCH   1   2
BRANCH   1  16
ATOM     16  C   UNL     1       2.431   5.661  17.785  0.00  0.00    +0.000 C 
BRANCH  16  17
ATOM     17  C   UNL     1       2.021   4.725  18.907  0.00  0.00    +0.000 A 
ATOM     18  C   UNL     1       1.421   3.483  18.651  0.00  0.00    +0.000 A 
ATOM     19  C   UNL     1       1.131   2.606  19.705  0.00  0.00    +0.000 A 
ATOM     20  C   UNL     1       1.452   2.956  21.014  0.00  0.00    +0.000 A 
ATOM     21  C   UNL     1       2.046   4.188  21.281  0.00  0.00    +0.000 A 
ATOM     22  C   UNL     1       2.319   5.072  20.235  0.00  0.00    +0.000 A 
ENDBRANCH  16  17
ENDBRANCH   1  16
BRANCH   1  23
ATOM     23  C   UNL     1       4.016   7.486  17.492  0.00  0.00    +0.000 C 
BRANCH  23  24
ATOM     24  C   UNL     1       5.009   6.363  17.245  0.00  0.00    +0.000 A 
ATOM     25  C   UNL     1       5.756   5.829  18.305  0.00  0.00    +0.000 A 
ATOM     26  C   UNL     1       6.762   4.891  18.062  0.00  0.00    +0.000 A 
ATOM     27  C   UNL     1       7.030   4.475  16.760  0.00  0.00    +0.000 A 
ATOM     28  C   UNL     1       6.261   4.959  15.703  0.00  0.00    +0.000 A 
ATOM     29  C   UNL     1       5.245   5.887  15.945  0.00  0.00    +0.000 A 
ENDBRANCH  23  24
ENDBRANCH   1  23
TORSDOF 8
ENDMDL
MODEL 4
REMARK VINA RESULT:      -8.1      1.206      3.569
REMARK  Name = 
REMARK  9 active torsions:
REMARK  status: ('A' for Active; 'I' for Inactive)
REMARK    1  A    between atoms: C_1  and  C_2
REMARK    2  A    between atoms: N_4  and  C_5
REMARK    3  A    between atoms: C_5  and  C_6
REMARK    4  A    between atoms: C_7  and  C_8
REMARK    5  A    between atoms: C_8  and  N_9
REMARK    6  A    between atoms: N_9  and  C_10
REMARK    7  A    between atoms: N_9  and  C_17
REMARK    8  A    between atoms: C_10  and  C_11
REMARK    9  A    between atoms: C_17  and  C_18
REMARK                            x       y       z     vdW  Elec       q    Type
REMARK                         _______ _______ _______ _____ _____    ______ ____
ROOT
ATOM      1  N   UNL     1       3.048   7.026  17.988  0.00  0.00    +0.000 NA
ENDROOT
BRANCH   1   2
ATOM      2  C   UNL     1       2.203   8.216  18.206  0.00  0.00    +0.000 C 
BRANCH   2   4
ATOM      3  C   UNL     1       0.985   9.394  20.084  0.00  0.00    +0.000 C 
ATOM      4  C   UNL     1       1.603   8.311  19.581  0.00  0.00    +0.000 C 
BRANCH   3   5
ATOM      5  C   UNL     1       0.899  10.738  19.415  0.00  0.00    +0.000 C 
BRANCH   5   9
ATOM      6  C   UNL     1      -2.855   9.640  16.325  0.00  0.00    +0.000 C 
ATOM      7  C   UNL     1      -2.205  10.494  17.361  0.00  0.00    +0.000 A 
ATOM      8  C   UNL     1      -0.944  10.327  17.776  0.00  0.00    +0.000 A 
ATOM      9  N   UNL     1      -0.398  11.053  18.818  0.00  0.00    +0.000 N 
ATOM     10  C   UNL     1      -1.109  12.084  19.425  0.00  0.00    +0.000 A 
ATOM     11  O   UNL     1      -0.701  12.735  20.392  0.00  0.00    +0.000 OA
ATOM     12  N   UNL     1      -2.354  12.332  18.912  0.00  0.00    +0.000 N 
ATOM     13  C   UNL     1      -3.015  11.545  18.016  0.00  0.00    +0.000 A 
ATOM     14  O   UNL     1      -4.212  11.682  17.777  0.00  0.00    +0.000 OA
ATOM     15  H   UNL     1      -2.901  13.033  19.388  0.00  0.00    +0.000 HD
ENDBRANCH   5   9
ENDBRANCH   3   5
ENDBRANCH   2   4
ENDBRANCH   1   2
BRANCH   1  16
ATOM     16  C   UNL     1       4.448   7.426  17.745  0.00  0.00    +0.000 C 
BRANCH  16  17
ATOM     17  C   UNL     1       5.348   6.362  17.143  0.00  0.00    +0.000 A 
ATOM     18  C   UNL     1       6.447   5.841  17.841  0.00  0.00    +0.000 A 
ATOM     19  C   UNL     1       7.207   4.800  17.292  0.00  0.00    +0.000 A 
ATOM     20  C   UNL     1       6.865   4.264  16.053  0.00  0.00    +0.000 A 
ATOM     21  C   UNL     1       5.777   4.775  15.349  0.00  0.00    +0.000 A 
ATOM     22  C   UNL     1       5.029   5.824  15.885  0.00  0.00    +0.000 A 
ENDBRANCH  16  17
ENDBRANCH   1  16
BRANCH   1  23
ATOM     23  C   UNL     1       2.961   6.144  19.185  0.00  0.00    +0.000 C 
BRANCH  23  24
ATOM     24  C   UNL     1       3.040   4.663  18.851  0.00  0.00    +0.000 A 
ATOM     25  C   UNL     1       3.907   3.821  19.560  0.00  0.00    +0.000 A 
ATOM     26  C   UNL     1       4.080   2.491  19.170  0.00  0.00    +0.000 A 
ATOM     27  C   UNL     1       3.388   1.989  18.070  0.00  0.00    +0.000 A 
ATOM     28  C   UNL     1       2.484   2.802  17.388  0.00  0.00    +0.000 A 
ATOM     29  C   UNL     1       2.299   4.129  17.785  0.00  0.00    +0.000 A 
ENDBRANCH  23  24
ENDBRANCH   1  23
TORSDOF 8
ENDMDL
MODEL 5
REMARK VINA RESULT:      -8.1      1.830      4.732
REMARK  Name = 
REMARK  9 active torsions:
REMARK  status: ('A' for Active; 'I' for Inactive)
REMARK    1  A    between atoms: C_1  and  C_2
REMARK    2  A    between atoms: N_4  and  C_5
REMARK    3  A    between atoms: C_5  and  C_6
REMARK    4  A    between atoms: C_7  and  C_8
REMARK    5  A    between atoms: C_8  and  N_9
REMARK    6  A    between atoms: N_9  and  C_10
REMARK    7  A    between atoms: N_9  and  C_17
REMARK    8  A    between atoms: C_10  and  C_11
REMARK    9  A    between atoms: C_17  and  C_18
REMARK                            x       y       z     vdW  Elec       q    Type
REMARK                         _______ _______ _______ _____ _____    ______ ____
ROOT
ATOM      1  N   UNL     1       2.927   6.613  18.045  0.00  0.00    +0.000 NA
ENDROOT
BRANCH   1   2
ATOM      2  C   UNL     1       1.873   7.625  18.250  0.00  0.00    +0.000 C 
BRANCH   2   4
ATOM      3  C   UNL     1       1.488  10.111  17.996  0.00  0.00    +0.000 C 
ATOM      4  C   UNL     1       2.284   9.031  17.915  0.00  0.00    +0.000 C 
BRANCH   3   5
ATOM      5  C   UNL     1       0.018  10.090  18.310  0.00  0.00    +0.000 C 
BRANCH   5   9
ATOM      6  C   UNL     1       0.031   9.466  23.255  0.00  0.00    +0.000 C 
ATOM      7  C   UNL     1      -0.291  10.244  22.024  0.00  0.00    +0.000 A 
ATOM      8  C   UNL     1      -0.146   9.764  20.783  0.00  0.00    +0.000 A 
ATOM      9  N   UNL     1      -0.338  10.540  19.655  0.00  0.00    +0.000 N 
ATOM     10  C   UNL     1      -0.803  11.848  19.753  0.00  0.00    +0.000 A 
ATOM     11  O   UNL     1      -0.945  12.609  18.791  0.00  0.00    +0.000 OA
ATOM     12  N   UNL     1      -1.068  12.292  21.020  0.00  0.00    +0.000 N 
ATOM     13  C   UNL     1      -0.732  11.648  22.174  0.00  0.00    +0.000 A 
ATOM     14  O   UNL     1      -0.775  12.199  23.271  0.00  0.00    +0.000 OA
ATOM     15  H   UNL     1      -1.342  13.259  21.106  0.00  0.00    +0.000 HD
ENDBRANCH   5   9
ENDBRANCH   3   5
ENDBRANCH   2   4
ENDBRANCH   1   2
BRANCH   1  16
ATOM     16  C   UNL     1       4.114   7.226  17.416  0.00  0.00    +0.000 C 
BRANCH  16  17
ATOM     17  C   UNL     1       5.246   6.277  17.069  0.00  0.00    +0.000 A 
ATOM     18  C   UNL     1       6.491   6.344  17.713  0.00  0.00    +0.000 A 
ATOM     19  C   UNL     1       7.486   5.399  17.431  0.00  0.00    +0.000 A 
ATOM     20  C   UNL     1       7.241   4.377  16.517  0.00  0.00    +0.000 A 
ATOM     21  C   UNL     1       6.010   4.302  15.869  0.00  0.00    +0.000 A 
ATOM     22  C   UNL     1       5.022   5.252  16.135  0.00  0.00    +0.000 A 
ENDBRANCH  16  17
ENDBRANCH   1  16
BRANCH   1  23
ATOM     23  C   UNL     1       3.288   6.017  19.361  0.00  0.00    +0.000 C 
BRANCH  23  24
ATOM     24  C   UNL     1       2.674   4.646  19.591  0.00  0.00    +0.000 A 
ATOM     25  C   UNL     1       2.648   3.696  18.560  0.00  0.00    +0.000 A 
ATOM     26  C   UNL     1       1.969   2.488  18.725  0.00  0.00    +0.000 A 
ATOM     27  C   UNL     1       1.310   2.214  19.922  0.00  0.00    +0.000 A 
ATOM     28  C   UNL     1       1.370   3.127  20.973  0.00  0.00    +0.000 A 
ATOM     29  C   UNL     1       2.062   4.331  20.815  0.00  0.00    +0.000 A 
ENDBRANCH  23  24
ENDBRANCH   1  23
TORSDOF 8
ENDMDL
MODEL 6
REMARK VINA RESULT:      -8.0      1.739      3.017
REMARK  Name = 
REMARK  9 active torsions:
REMARK  status: ('A' for Active; 'I' for Inactive)
REMARK    1  A    between atoms: C_1  and  C_2
REMARK    2  A    between atoms: N_4  and  C_5
REMARK    3  A    between atoms: C_5  and  C_6
REMARK    4  A    between atoms: C_7  and  C_8
REMARK    5  A    between atoms: C_8  and  N_9
REMARK    6  A    between atoms: N_9  and  C_10
REMARK    7  A    between atoms: N_9  and  C_17
REMARK    8  A    between atoms: C_10  and  C_11
REMARK    9  A    between atoms: C_17  and  C_18
REMARK                            x       y       z     vdW  Elec       q    Type
REMARK                         _______ _______ _______ _____ _____    ______ ____
ROOT
ATOM      1  N   UNL     1       2.886   6.793  18.257  0.00  0.00    +0.000 NA
ENDROOT
BRANCH   1   2
ATOM      2  C   UNL     1       1.777   7.765  18.204  0.00  0.00    +0.000 C 
BRANCH   2   4
ATOM      3  C   UNL     1       1.414  10.268  18.183  0.00  0.00    +0.000 C 
ATOM      4  C   UNL     1       2.209   9.195  18.033  0.00  0.00    +0.000 C 
BRANCH   3   5
ATOM      5  C   UNL     1      -0.070  10.227  18.421  0.00  0.00    +0.000 C 
BRANCH   5   9
ATOM      6  C   UNL     1      -0.035   9.510  23.353  0.00  0.00    +0.000 C 
ATOM      7  C   UNL     1      -0.438  10.266  22.132  0.00  0.00    +0.000 A 
ATOM      8  C   UNL     1      -0.219   9.833  20.885  0.00  0.00    +0.000 A 
ATOM      9  N   UNL     1      -0.495  10.601  19.769  0.00  0.00    +0.000 N 
ATOM     10  C   UNL     1      -1.123  11.838  19.885  0.00  0.00    +0.000 A 
ATOM     11  O   UNL     1      -1.349  12.594  18.935  0.00  0.00    +0.000 OA
ATOM     12  N   UNL     1      -1.456  12.220  21.156  0.00  0.00    +0.000 N 
ATOM     13  C   UNL     1      -1.055  11.600  22.303  0.00  0.00    +0.000 A 
ATOM     14  O   UNL     1      -1.180  12.119  23.409  0.00  0.00    +0.000 OA
ATOM     15  H   UNL     1      -1.852  13.142  21.256  0.00  0.00    +0.000 HD
ENDBRANCH   5   9
ENDBRANCH   3   5
ENDBRANCH   2   4
ENDBRANCH   1   2
BRANCH   1  16
ATOM     16  C   UNL     1       2.413   5.451  17.862  0.00  0.00    +0.000 C 
BRANCH  16  17
ATOM     17  C   UNL     1       2.123   4.488  18.999  0.00  0.00    +0.000 A 
ATOM     18  C   UNL     1       1.733   3.161  18.763  0.00  0.00    +0.000 A 
ATOM     19  C   UNL     1       1.555   2.275  19.832  0.00  0.00    +0.000 A 
ATOM     20  C   UNL     1       1.780   2.701  21.139  0.00  0.00    +0.000 A 
ATOM     21  C   UNL     1       2.165   4.018  21.386  0.00  0.00    +0.000 A 
ATOM     22  C   UNL     1       2.325   4.908  20.323  0.00  0.00    +0.000 A 
ENDBRANCH  16  17
ENDBRANCH   1  16
BRANCH   1  23
ATOM     23  C   UNL     1       3.973   7.248  17.347  0.00  0.00    +0.000 C 
BRANCH  23  24
ATOM     24  C   UNL     1       5.075   6.218  17.161  0.00  0.00    +0.000 A 
ATOM     25  C   UNL     1       5.876   5.832  18.244  0.00  0.00    +0.000 A 
ATOM     26  C   UNL     1       6.972   4.988  18.051  0.00  0.00    +0.000 A 
ATOM     27  C   UNL     1       7.277   4.520  16.774  0.00  0.00    +0.000 A 
ATOM     28  C   UNL     1       6.459   4.855  15.697  0.00  0.00    +0.000 A 
ATOM     29  C   UNL     1       5.354   5.688  15.891  0.00  0.00    +0.000 A 
ENDBRANCH  23  24
ENDBRANCH   1  23
TORSDOF 8
ENDMDL
MODEL 7
REMARK VINA RESULT:      -8.0      1.805      3.012
REMARK  Name = 
REMARK  9 active torsions:
REMARK  status: ('A' for Active; 'I' for Inactive)
REMARK    1  A    between atoms: C_1  and  C_2
REMARK    2  A    between atoms: N_4  and  C_5
REMARK    3  A    between atoms: C_5  and  C_6
REMARK    4  A    between atoms: C_7  and  C_8
REMARK    5  A    between atoms: C_8  and  N_9
REMARK    6  A    between atoms: N_9  and  C_10
REMARK    7  A    between atoms: N_9  and  C_17
REMARK    8  A    between atoms: C_10  and  C_11
REMARK    9  A    between atoms: C_17  and  C_18
REMARK                            x       y       z     vdW  Elec       q    Type
REMARK                         _______ _______ _______ _____ _____    ______ ____
ROOT
ATOM      1  N   UNL     1       3.054   6.804  18.343  0.00  0.00    +0.000 NA
ENDROOT
BRANCH   1   2
ATOM      2  C   UNL     1       2.205   7.897  18.856  0.00  0.00    +0.000 C 
BRANCH   2   4
ATOM      3  C   UNL     1       1.407  10.122  17.956  0.00  0.00    +0.000 C 
ATOM      4  C   UNL     1       2.376   9.208  18.140  0.00  0.00    +0.000 C 
BRANCH   3   5
ATOM      5  C   UNL     1      -0.041   9.942  18.316  0.00  0.00    +0.000 C 
BRANCH   5   9
ATOM      6  C   UNL     1       0.034   9.489  23.278  0.00  0.00    +0.000 C 
ATOM      7  C   UNL     1      -0.339  10.205  22.024  0.00  0.00    +0.000 A 
ATOM      8  C   UNL     1      -0.173   9.691  20.800  0.00  0.00    +0.000 A 
ATOM      9  N   UNL     1      -0.415  10.416  19.647  0.00  0.00    +0.000 N 
ATOM     10  C   UNL     1      -0.955  11.698  19.705  0.00  0.00    +0.000 A 
ATOM     11  O   UNL     1      -1.147  12.416  18.718  0.00  0.00    +0.000 OA
ATOM     12  N   UNL     1      -1.239  12.169  20.958  0.00  0.00    +0.000 N 
ATOM     13  C   UNL     1      -0.860  11.585  22.130  0.00  0.00    +0.000 A 
ATOM     14  O   UNL     1      -0.929  12.170  23.208  0.00  0.00    +0.000 OA
ATOM     15  H   UNL     1      -1.568  13.121  21.013  0.00  0.00    +0.000 HD
ENDBRANCH   5   9
ENDBRANCH   3   5
ENDBRANCH   2   4
ENDBRANCH   1   2
BRANCH   1  16
ATOM     16  C   UNL     1       2.230   5.796  17.646  0.00  0.00    +0.000 C 
BRANCH  16  17
ATOM     17  C   UNL     1       2.141   4.436  18.313  0.00  0.00    +0.000 A 
ATOM     18  C   UNL     1       1.371   4.228  19.468  0.00  0.00    +0.000 A 
ATOM     19  C   UNL     1       1.241   2.944  20.011  0.00  0.00    +0.000 A 
ATOM     20  C   UNL     1       1.864   1.859  19.398  0.00  0.00    +0.000 A 
ATOM     21  C   UNL     1       2.633   2.053  18.252  0.00  0.00    +0.000 A 
ATOM     22  C   UNL     1       2.779   3.335  17.719  0.00  0.00    +0.000 A 
ENDBRANCH  16  17
ENDBRANCH   1  16
BRANCH   1  23
ATOM     23  C   UNL     1       4.070   7.375  17.415  0.00  0.00    +0.000 C 
BRANCH  23  24
ATOM     24  C   UNL     1       5.125   6.370  16.984  0.00  0.00    +0.000 A 
ATOM     25  C   UNL     1       5.255   6.011  15.635  0.00  0.00    +0.000 A 
ATOM     26  C   UNL     1       6.131   4.993  15.253  0.00  0.00    +0.000 A 
ATOM     27  C   UNL     1       6.888   4.325  16.213  0.00  0.00    +0.000 A 
ATOM     28  C   UNL     1       6.807   4.707  17.551  0.00  0.00    +0.000 A 
ATOM     29  C   UNL     1       5.941   5.735  17.934  0.00  0.00    +0.000 A 
ENDBRANCH  23  24
ENDBRANCH   1  23
TORSDOF 8
ENDMDL
MODEL 8
REMARK VINA RESULT:      -8.0      0.695      1.508
REMARK  Name = 
REMARK  9 active torsions:
REMARK  status: ('A' for Active; 'I' for Inactive)
REMARK    1  A    between atoms: C_1  and  C_2
REMARK    2  A    between atoms: N_4  and  C_5
REMARK    3  A    between atoms: C_5  and  C_6
REMARK    4  A    between atoms: C_7  and  C_8
REMARK    5  A    between atoms: C_8  and  N_9
REMARK    6  A    between atoms: N_9  and  C_10
REMARK    7  A    between atoms: N_9  and  C_17
REMARK    8  A    between atoms: C_10  and  C_11
REMARK    9  A    between atoms: C_17  and  C_18
REMARK                            x       y       z     vdW  Elec       q    Type
REMARK                         _______ _______ _______ _____ _____    ______ ____
ROOT
ATOM      1  N   UNL     1       3.152   6.910  18.373  0.00  0.00    +0.000 NA
ENDROOT
BRANCH   1   2
ATOM      2  C   UNL     1       2.166   8.007  18.417  0.00  0.00    +0.000 C 
BRANCH   2   4
ATOM      3  C   UNL     1       0.956   9.375  20.167  0.00  0.00    +0.000 C 
ATOM      4  C   UNL     1       1.548   8.235  19.768  0.00  0.00    +0.000 C 
BRANCH   3   5
ATOM      5  C   UNL     1       0.921  10.659  19.386  0.00  0.00    +0.000 C 
BRANCH   5   9
ATOM      6  C   UNL     1      -2.831   9.703  16.248  0.00  0.00    +0.000 C 
ATOM      7  C   UNL     1      -2.183  10.507  17.323  0.00  0.00    +0.000 A 
ATOM      8  C   UNL     1      -0.921  10.323  17.729  0.00  0.00    +0.000 A 
ATOM      9  N   UNL     1      -0.377  10.999  18.806  0.00  0.00    +0.000 N 
ATOM     10  C   UNL     1      -1.091  11.997  19.463  0.00  0.00    +0.000 A 
ATOM     11  O   UNL     1      -0.684  12.601  20.461  0.00  0.00    +0.000 OA
ATOM     12  N   UNL     1      -2.337  12.266  18.963  0.00  0.00    +0.000 N 
ATOM     13  C   UNL     1      -2.996  11.521  18.030  0.00  0.00    +0.000 A 
ATOM     14  O   UNL     1      -4.193  11.667  17.799  0.00  0.00    +0.000 OA
ATOM     15  H   UNL     1      -2.886  12.941  19.473  0.00  0.00    +0.000 HD
ENDBRANCH   5   9
ENDBRANCH   3   5
ENDBRANCH   2   4
ENDBRANCH   1   2
BRANCH   1  16
ATOM     16  C   UNL     1       2.475   5.617  18.147  0.00  0.00    +0.000 C 
BRANCH  16  17
ATOM     17  C   UNL     1       2.572   4.611  19.279  0.00  0.00    +0.000 A 
ATOM     18  C   UNL     1       1.707   4.653  20.382  0.00  0.00    +0.000 A 
ATOM     19  C   UNL     1       1.767   3.660  21.368  0.00  0.00    +0.000 A 
ATOM     20  C   UNL     1       2.678   2.613  21.251  0.00  0.00    +0.000 A 
ATOM     21  C   UNL     1       3.545   2.562  20.161  0.00  0.00    +0.000 A 
ATOM     22  C   UNL     1       3.499   3.560  19.186  0.00  0.00    +0.000 A 
ENDBRANCH  16  17
ENDBRANCH   1  16
BRANCH   1  23
ATOM     23  C   UNL     1       4.129   7.181  17.282  0.00  0.00    +0.000 C 
BRANCH  23  24
ATOM     24  C   UNL     1       5.263   6.171  17.223  0.00  0.00    +0.000 A 
ATOM     25  C   UNL     1       6.145   6.030  18.303  0.00  0.00    +0.000 A 
ATOM     26  C   UNL     1       7.264   5.201  18.202  0.00  0.00    +0.000 A 
ATOM     27  C   UNL     1       7.513   4.503  17.021  0.00  0.00    +0.000 A 
ATOM     28  C   UNL     1       6.616   4.595  15.958  0.00  0.00    +0.000 A 
ATOM     29  C   UNL     1       5.488   5.413  16.063  0.00  0.00    +0.000 A 
ENDBRANCH  23  24
ENDBRANCH   1  23
TORSDOF 8
ENDMDL
MODEL 9
REMARK VINA RESULT:      -8.0      1.834      4.644
REMARK  Name = 
REMARK  9 active torsions:
REMARK  status: ('A' for Active; 'I' for Inactive)
REMARK    1  A    between atoms: C_1  and  C_2
REMARK    2  A    between atoms: N_4  and  C_5
REMARK    3  A    between atoms: C_5  and  C_6
REMARK    4  A    between atoms: C_7  and  C_8
REMARK    5  A    between atoms: C_8  and  N_9
REMARK    6  A    between atoms: N_9  and  C_10
REMARK    7  A    between atoms: N_9  and  C_17
REMARK    8  A    between atoms: C_10  and  C_11
REMARK    9  A    between atoms: C_17  and  C_18
REMARK                            x       y       z     vdW  Elec       q    Type
REMARK                         _______ _______ _______ _____ _____    ______ ____
ROOT
ATOM      1  N   UNL     1       2.867   6.666  18.149  0.00  0.00    +0.000 NA
ENDROOT
BRANCH   1   2
ATOM      2  C   UNL     1       2.065   7.755  18.740  0.00  0.00    +0.000 C 
BRANCH   2   4
ATOM      3  C   UNL     1       1.388  10.081  18.013  0.00  0.00    +0.000 C 
ATOM      4  C   UNL     1       2.309   9.109  18.133  0.00  0.00    +0.000 C 
BRANCH   3   5
ATOM      5  C   UNL     1      -0.072   9.944  18.342  0.00  0.00    +0.000 C 
BRANCH   5   9
ATOM      6  C   UNL     1       0.046   9.496  23.305  0.00  0.00    +0.000 C 
ATOM      7  C   UNL     1      -0.358  10.198  22.053  0.00  0.00    +0.000 A 
ATOM      8  C   UNL     1      -0.181   9.690  20.827  0.00  0.00    +0.000 A 
ATOM      9  N   UNL     1      -0.455  10.406  19.676  0.00  0.00    +0.000 N 
ATOM     10  C   UNL     1      -1.038  11.668  19.736  0.00  0.00    +0.000 A 
ATOM     11  O   UNL     1      -1.259  12.379  18.750  0.00  0.00    +0.000 OA
ATOM     12  N   UNL     1      -1.330  12.130  20.991  0.00  0.00    +0.000 N 
ATOM     13  C   UNL     1      -0.925  11.560  22.161  0.00  0.00    +0.000 A 
ATOM     14  O   UNL     1      -1.008  12.143  23.240  0.00  0.00    +0.000 OA
ATOM     15  H   UNL     1      -1.692  13.070  21.047  0.00  0.00    +0.000 HD
ENDBRANCH   5   9
ENDBRANCH   3   5
ENDBRANCH   2   4
ENDBRANCH   1   2
BRANCH   1  16
ATOM     16  C   UNL     1       4.072   7.211  17.493  0.00  0.00    +0.000 C 
BRANCH  16  17
ATOM     17  C   UNL     1       5.136   6.198  17.111  0.00  0.00    +0.000 A 
ATOM     18  C   UNL     1       5.002   5.375  15.983  0.00  0.00    +0.000 A 
ATOM     19  C   UNL     1       6.039   4.510  15.610  0.00  0.00    +0.000 A 
ATOM     20  C   UNL     1       7.218   4.473  16.350  0.00  0.00    +0.000 A 
ATOM     21  C   UNL     1       7.362   5.284  17.474  0.00  0.00    +0.000 A 
ATOM     22  C   UNL     1       6.323   6.133  17.859  0.00  0.00    +0.000 A 
ENDBRANCH  16  17
ENDBRANCH   1  16
BRANCH   1  23
ATOM     23  C   UNL     1       3.250   5.709  19.224  0.00  0.00    +0.000 C 
BRANCH  23  24
ATOM     24  C   UNL     1       2.781   4.287  18.961  0.00  0.00    +0.000 A 
ATOM     25  C   UNL     1       1.414   3.979  18.964  0.00  0.00    +0.000 A 
ATOM     26  C   UNL     1       0.986   2.654  18.856  0.00  0.00    +0.000 A 
ATOM     27  C   UNL     1       1.918   1.625  18.741  0.00  0.00    +0.000 A 
ATOM     28  C   UNL     1       3.278   1.923  18.685  0.00  0.00    +0.000 A 
ATOM     29  C   UNL     1       3.708   3.249  18.779  0.00  0.00    +0.000 A 
ENDBRANCH  23  24
ENDBRANCH   1  23
TORSDOF 8
ENDMDL
