MODEL 1
REMARK VINA RESULT:      -9.0      0.000      0.000
REMARK  Name = 
REMARK  1 active torsions:
REMARK  status: ('A' for Active; 'I' for Inactive)
REMARK    1  A    between atoms: C_4  and  C_5
REMARK                            x       y       z     vdW  Elec       q    Type
REMARK                         _______ _______ _______ _____ _____    ______ ____
ROOT
ATOM      1  O   UNL     1       3.897   2.400  20.263  0.00  0.00    +0.000 OA
ATOM      2  C   UNL     1       3.793   3.463  19.660  0.00  0.00    +0.000 A 
ATOM      3  C   UNL     1       4.551   3.695  18.421  0.00  0.00    +0.000 A 
ATOM      4  C   UNL     1       4.508   4.845  17.728  0.00  0.00    +0.000 A 
ATOM      5  C   UNL     1       3.655   5.925  18.247  0.00  0.00    +0.000 A 
ATOM      6  C   UNL     1       3.556   7.175  17.625  0.00  0.00    +0.000 A 
ATOM      7  C   UNL     1       2.728   8.170  18.159  0.00  0.00    +0.000 A 
ATOM      8  C   UNL     1       1.983   7.923  19.313  0.00  0.00    +0.000 A 
ATOM      9  C   UNL     1       2.069   6.682  19.939  0.00  0.00    +0.000 A 
ATOM     10  C   UNL     1       2.906   5.704  19.402  0.00  0.00    +0.000 A 
ATOM     11  O   UNL     1       2.965   4.482  20.094  0.00  0.00    +0.000 OA
ENDROOT
BRANCH   4  12
ATOM     12  C   UNL     1       5.323   4.892  16.504  0.00  0.00    +0.000 A 
ATOM     13  C   UNL     1       6.540   5.561  16.463  0.00  0.00    +0.000 A 
ATOM     14  N   UNL     1       7.352   5.600  15.381  0.00  0.00    +0.000 NA
ATOM     15  C   UNL     1       6.964   4.940  14.275  0.00  0.00    +0.000 A 
ATOM     16  C   UNL     1       7.785   4.932  13.156  0.00  0.00    +0.000 A 
ATOM     17  C   UNL     1       7.437   4.241  11.991  0.00  0.00    +0.000 A 
ATOM     18  C   UNL     1       6.236   3.544  11.934  0.00  0.00    +0.000 A 
ATOM     19  C   UNL     1       5.387   3.543  13.038  0.00  0.00    +0.000 A 
ATOM     20  C   UNL     1       5.743   4.233  14.210  0.00  0.00    +0.000 A 
ATOM     21  C   UNL     1       4.918   4.231  15.344  0.00  0.00    +0.000 A 
ENDBRANCH   4  12
TORSDOF 1
ENDMDL
MODEL 2
REMARK VINA RESULT:      -8.8      3.388      7.426
REMARK  Name = 
REMARK  1 active torsions:
REMARK  status: ('A' for Active; 'I' for Inactive)
REMARK    1  A    between atoms: C_4  and  C_5
REMARK                            x       y       z     vdW  Elec       q    Type
REMARK                         _______ _______ _______ _____ _____    ______ ____
ROOT
ATOM      1  O   UNL     1       6.257   6.387  16.166  0.00  0.00    +0.000 OA
ATOM      2  C   UNL     1       5.218   5.983  16.678  0.00  0.00    +0.000 A 
ATOM      3  C   UNL     1       4.301   6.920  17.346  0.00  0.00    +0.000 A 
ATOM      4  C   UNL     1       3.164   6.542  17.953  0.00  0.00    +0.000 A 
ATOM      5  C   UNL     1       2.828   5.110  17.945  0.00  0.00    +0.000 A 
ATOM      6  C   UNL     1       1.686   4.598  18.571  0.00  0.00    +0.000 A 
ATOM      7  C   UNL     1       1.411   3.226  18.533  0.00  0.00    +0.000 A 
ATOM      8  C   UNL     1       2.267   2.353  17.862  0.00  0.00    +0.000 A 
ATOM      9  C   UNL     1       3.405   2.849  17.231  0.00  0.00    +0.000 A 
ATOM     10  C   UNL     1       3.673   4.217  17.286  0.00  0.00    +0.000 A 
ATOM     11  O   UNL     1       4.848   4.652  16.649  0.00  0.00    +0.000 OA
ENDROOT
BRANCH   4  12
ATOM     12  C   UNL     1       2.366   7.620  18.557  0.00  0.00    +0.000 A 
ATOM     13  C   UNL     1       1.800   8.628  17.787  0.00  0.00    +0.000 A 
ATOM     14  N   UNL     1       1.021   9.618  18.281  0.00  0.00    +0.000 NA
ATOM     15  C   UNL     1       0.767   9.623  19.601  0.00  0.00    +0.000 A 
ATOM     16  C   UNL     1      -0.054  10.605  20.140  0.00  0.00    +0.000 A 
ATOM     17  C   UNL     1      -0.366  10.639  21.503  0.00  0.00    +0.000 A 
ATOM     18  C   UNL     1       0.156   9.674  22.356  0.00  0.00    +0.000 A 
ATOM     19  C   UNL     1       0.990   8.682  21.845  0.00  0.00    +0.000 A 
ATOM     20  C   UNL     1       1.297   8.647  20.474  0.00  0.00    +0.000 A 
ATOM     21  C   UNL     1       2.117   7.648  19.929  0.00  0.00    +0.000 A 
ENDBRANCH   4  12
TORSDOF 1
ENDMDL
MODEL 3
REMARK VINA RESULT:      -8.6      2.956      7.062
REMARK  Name = 
REMARK  1 active torsions:
REMARK  status: ('A' for Active; 'I' for Inactive)
REMARK    1  A    between atoms: C_4  and  C_5
REMARK                            x       y       z     vdW  Elec       q    Type
REMARK                         _______ _______ _______ _____ _____    ______ ____
ROOT
ATOM      1  O   UNL     1       2.025   2.597  17.396  0.00  0.00    +0.000 OA
ATOM      2  C   UNL     1       2.788   3.555  17.445  0.00  0.00    +0.000 A 
ATOM      3  C   UNL     1       2.321   4.857  17.946  0.00  0.00    +0.000 A 
ATOM      4  C   UNL     1       3.094   5.954  17.999  0.00  0.00    +0.000 A 
ATOM      5  C   UNL     1       4.481   5.838  17.524  0.00  0.00    +0.000 A 
ATOM      6  C   UNL     1       5.367   6.921  17.504  0.00  0.00    +0.000 A 
ATOM      7  C   UNL     1       6.678   6.757  17.042  0.00  0.00    +0.000 A 
ATOM      8  C   UNL     1       7.122   5.507  16.608  0.00  0.00    +0.000 A 
ATOM      9  C   UNL     1       6.252   4.420  16.626  0.00  0.00    +0.000 A 
ATOM     10  C   UNL     1       4.945   4.601  17.078  0.00  0.00    +0.000 A 
ATOM     11  O   UNL     1       4.111   3.469  17.051  0.00  0.00    +0.000 OA
ENDROOT
BRANCH   4  12
ATOM     12  C   UNL     1       2.459   7.165  18.543  0.00  0.00    +0.000 A 
ATOM     13  C   UNL     1       2.115   8.237  17.729  0.00  0.00    +0.000 A 
ATOM     14  N   UNL     1       1.491   9.356  18.165  0.00  0.00    +0.000 NA
ATOM     15  C   UNL     1       1.171   9.433  19.469  0.00  0.00    +0.000 A 
ATOM     16  C   UNL     1       0.501  10.552  19.948  0.00  0.00    +0.000 A 
ATOM     17  C   UNL     1       0.127  10.668  21.290  0.00  0.00    +0.000 A 
ATOM     18  C   UNL     1       0.431   9.648  22.183  0.00  0.00    +0.000 A 
ATOM     19  C   UNL     1       1.110   8.518  21.734  0.00  0.00    +0.000 A 
ATOM     20  C   UNL     1       1.480   8.401  20.383  0.00  0.00    +0.000 A 
ATOM     21  C   UNL     1       2.145   7.266  19.899  0.00  0.00    +0.000 A 
ENDBRANCH   4  12
TORSDOF 1
ENDMDL
MODEL 4
REMARK VINA RESULT:      -8.5      1.201      2.832
REMARK  Name = 
REMARK  1 active torsions:
REMARK  status: ('A' for Active; 'I' for Inactive)
REMARK    1  A    between atoms: C_4  and  C_5
REMARK                            x       y       z     vdW  Elec       q    Type
REMARK                         _______ _______ _______ _____ _____    ______ ____
ROOT
ATOM      1  O   UNL     1       2.106   8.136  18.971  0.00  0.00    +0.000 OA
ATOM      2  C   UNL     1       2.636   7.032  18.911  0.00  0.00    +0.000 A 
ATOM      3  C   UNL     1       3.553   6.703  17.809  0.00  0.00    +0.000 A 
ATOM      4  C   UNL     1       4.143   5.505  17.665  0.00  0.00    +0.000 A 
ATOM      5  C   UNL     1       3.847   4.472  18.669  0.00  0.00    +0.000 A 
ATOM      6  C   UNL     1       4.380   3.179  18.604  0.00  0.00    +0.000 A 
ATOM      7  C   UNL     1       4.066   2.232  19.586  0.00  0.00    +0.000 A 
ATOM      8  C   UNL     1       3.227   2.569  20.649  0.00  0.00    +0.000 A 
ATOM      9  C   UNL     1       2.693   3.853  20.728  0.00  0.00    +0.000 A 
ATOM     10  C   UNL     1       3.004   4.783  19.736  0.00  0.00    +0.000 A 
ATOM     11  O   UNL     1       2.416   6.054  19.862  0.00  0.00    +0.000 OA
ENDROOT
BRANCH   4  12
ATOM     12  C   UNL     1       5.041   5.362  16.508  0.00  0.00    +0.000 A 
ATOM     13  C   UNL     1       6.297   5.955  16.482  0.00  0.00    +0.000 A 
ATOM     14  N   UNL     1       7.182   5.823  15.467  0.00  0.00    +0.000 NA
ATOM     15  C   UNL     1       6.830   5.057  14.418  0.00  0.00    +0.000 A 
ATOM     16  C   UNL     1       7.723   4.872  13.372  0.00  0.00    +0.000 A 
ATOM     17  C   UNL     1       7.413   4.067  12.271  0.00  0.00    +0.000 A 
ATOM     18  C   UNL     1       6.178   3.434  12.205  0.00  0.00    +0.000 A 
ATOM     19  C   UNL     1       5.257   3.609  13.235  0.00  0.00    +0.000 A 
ATOM     20  C   UNL     1       5.575   4.414  14.343  0.00  0.00    +0.000 A 
ATOM     21  C   UNL     1       4.676   4.591  15.405  0.00  0.00    +0.000 A 
ENDBRANCH   4  12
TORSDOF 1
ENDMDL
MODEL 5
REMARK VINA RESULT:      -8.4      3.929      7.103
REMARK  Name = 
REMARK  1 active torsions:
REMARK  status: ('A' for Active; 'I' for Inactive)
REMARK    1  A    between atoms: C_4  and  C_5
REMARK                            x       y       z     vdW  Elec       q    Type
REMARK                         _______ _______ _______ _____ _____    ______ ____
ROOT
ATOM      1  O   UNL     1       6.779   4.818  18.949  0.00  0.00    +0.000 OA
ATOM      2  C   UNL     1       5.563   4.659  18.959  0.00  0.00    +0.000 A 
ATOM      3  C   UNL     1       4.660   5.815  19.063  0.00  0.00    +0.000 A 
ATOM      4  C   UNL     1       3.321   5.711  19.110  0.00  0.00    +0.000 A 
ATOM      5  C   UNL     1       2.738   4.363  19.055  0.00  0.00    +0.000 A 
ATOM      6  C   UNL     1       1.359   4.132  19.126  0.00  0.00    +0.000 A 
ATOM      7  C   UNL     1       0.854   2.827  19.068  0.00  0.00    +0.000 A 
ATOM      8  C   UNL     1       1.719   1.742  18.928  0.00  0.00    +0.000 A 
ATOM      9  C   UNL     1       3.092   1.957  18.852  0.00  0.00    +0.000 A 
ATOM     10  C   UNL     1       3.582   3.261  18.922  0.00  0.00    +0.000 A 
ATOM     11  O   UNL     1       4.979   3.410  18.862  0.00  0.00    +0.000 OA
ENDROOT
BRANCH   4  12
ATOM     12  C   UNL     1       2.578   6.978  19.201  0.00  0.00    +0.000 A 
ATOM     13  C   UNL     1       2.421   7.813  18.102  0.00  0.00    +0.000 A 
ATOM     14  N   UNL     1       1.712   8.966  18.115  0.00  0.00    +0.000 NA
ATOM     15  C   UNL     1       1.110   9.324  19.264  0.00  0.00    +0.000 A 
ATOM     16  C   UNL     1       0.348  10.484  19.308  0.00  0.00    +0.000 A 
ATOM     17  C   UNL     1      -0.315  10.886  20.471  0.00  0.00    +0.000 A 
ATOM     18  C   UNL     1      -0.215  10.118  21.625  0.00  0.00    +0.000 A 
ATOM     19  C   UNL     1       0.550   8.954  21.613  0.00  0.00    +0.000 A 
ATOM     20  C   UNL     1       1.211   8.549  20.440  0.00  0.00    +0.000 A 
ATOM     21  C   UNL     1       1.971   7.371  20.394  0.00  0.00    +0.000 A 
ENDBRANCH   4  12
TORSDOF 1
ENDMDL
MODEL 6
REMARK VINA RESULT:      -8.4      2.863      6.712
REMARK  Name = 
REMARK  1 active torsions:
REMARK  status: ('A' for Active; 'I' for Inactive)
REMARK    1  A    between atoms: C_4  and  C_5
REMARK                            x       y       z     vdW  Elec       q    Type
REMARK                         _______ _______ _______ _____ _____    ______ ____
ROOT
ATOM      1  O   UNL     1       8.137   7.804  17.929  0.00  0.00    +0.000 OA
ATOM      2  C   UNL     1       7.453   6.976  17.336  0.00  0.00    +0.000 A 
ATOM      3  C   UNL     1       6.240   6.426  17.960  0.00  0.00    +0.000 A 
ATOM      4  C   UNL     1       5.463   5.496  17.382  0.00  0.00    +0.000 A 
ATOM      5  C   UNL     1       5.857   5.006  16.052  0.00  0.00    +0.000 A 
ATOM      6  C   UNL     1       5.141   4.017  15.368  0.00  0.00    +0.000 A 
ATOM      7  C   UNL     1       5.559   3.585  14.103  0.00  0.00    +0.000 A 
ATOM      8  C   UNL     1       6.688   4.144  13.505  0.00  0.00    +0.000 A 
ATOM      9  C   UNL     1       7.408   5.132  14.173  0.00  0.00    +0.000 A 
ATOM     10  C   UNL     1       6.987   5.544  15.437  0.00  0.00    +0.000 A 
ATOM     11  O   UNL     1       7.769   6.528  16.067  0.00  0.00    +0.000 OA
ENDROOT
BRANCH   4  12
ATOM     12  C   UNL     1       4.281   5.073  18.150  0.00  0.00    +0.000 A 
ATOM     13  C   UNL     1       3.010   5.547  17.852  0.00  0.00    +0.000 A 
ATOM     14  N   UNL     1       1.883   5.161  18.494  0.00  0.00    +0.000 NA
ATOM     15  C   UNL     1       1.996   4.250  19.477  0.00  0.00    +0.000 A 
ATOM     16  C   UNL     1       0.858   3.806  20.137  0.00  0.00    +0.000 A 
ATOM     17  C   UNL     1       0.922   2.844  21.150  0.00  0.00    +0.000 A 
ATOM     18  C   UNL     1       2.151   2.312  21.522  0.00  0.00    +0.000 A 
ATOM     19  C   UNL     1       3.311   2.746  20.884  0.00  0.00    +0.000 A 
ATOM     20  C   UNL     1       3.243   3.708  19.862  0.00  0.00    +0.000 A 
ATOM     21  C   UNL     1       4.391   4.148  19.188  0.00  0.00    +0.000 A 
ENDBRANCH   4  12
TORSDOF 1
ENDMDL
MODEL 7
REMARK VINA RESULT:      -8.2      2.980      6.741
REMARK  Name = 
REMARK  1 active torsions:
REMARK  status: ('A' for Active; 'I' for Inactive)
REMARK    1  A    between atoms: C_4  and  C_5
REMARK                            x       y       z     vdW  Elec       q    Type
REMARK                         _______ _______ _______ _____ _____    ______ ____
ROOT
ATOM      1  O   UNL     1       2.191   2.225  17.352  0.00  0.00    +0.000 OA
ATOM      2  C   UNL     1       2.902   3.222  17.409  0.00  0.00    +0.000 A 
ATOM      3  C   UNL     1       2.403   4.461  18.026  0.00  0.00    +0.000 A 
ATOM      4  C   UNL     1       3.117   5.597  18.094  0.00  0.00    +0.000 A 
ATOM      5  C   UNL     1       4.469   5.591  17.516  0.00  0.00    +0.000 A 
ATOM      6  C   UNL     1       5.291   6.724  17.503  0.00  0.00    +0.000 A 
ATOM      7  C   UNL     1       6.572   6.666  16.940  0.00  0.00    +0.000 A 
ATOM      8  C   UNL     1       7.049   5.473  16.395  0.00  0.00    +0.000 A 
ATOM      9  C   UNL     1       6.243   4.337  16.405  0.00  0.00    +0.000 A 
ATOM     10  C   UNL     1       4.965   4.413  16.958  0.00  0.00    +0.000 A 
ATOM     11  O   UNL     1       4.194   3.238  16.918  0.00  0.00    +0.000 OA
ENDROOT
BRANCH   4  12
ATOM     12  C   UNL     1       2.460   6.733  18.759  0.00  0.00    +0.000 A 
ATOM     13  C   UNL     1       2.100   6.685  20.100  0.00  0.00    +0.000 A 
ATOM     14  N   UNL     1       1.535   7.713  20.775  0.00  0.00    +0.000 NA
ATOM     15  C   UNL     1       1.315   8.861  20.110  0.00  0.00    +0.000 A 
ATOM     16  C   UNL     1       0.766   9.948  20.777  0.00  0.00    +0.000 A 
ATOM     17  C   UNL     1       0.541  11.169  20.135  0.00  0.00    +0.000 A 
ATOM     18  C   UNL     1       0.864  11.314  18.791  0.00  0.00    +0.000 A 
ATOM     19  C   UNL     1       1.408  10.238  18.094  0.00  0.00    +0.000 A 
ATOM     20  C   UNL     1       1.639   9.013  18.744  0.00  0.00    +0.000 A 
ATOM     21  C   UNL     1       2.205   7.920  18.072  0.00  0.00    +0.000 A 
ENDBRANCH   4  12
TORSDOF 1
ENDMDL
MODEL 8
REMARK VINA RESULT:      -8.2      3.510      7.347
REMARK  Name = 
REMARK  1 active torsions:
REMARK  status: ('A' for Active; 'I' for Inactive)
REMARK    1  A    between atoms: C_4  and  C_5
REMARK                            x       y       z     vdW  Elec       q    Type
REMARK                         _______ _______ _______ _____ _____    ______ ____
ROOT
ATOM      1  O   UNL     1       6.009   6.674  16.063  0.00  0.00    +0.000 OA
ATOM      2  C   UNL     1       5.042   6.171  16.627  0.00  0.00    +0.000 A 
ATOM      3  C   UNL     1       4.140   6.999  17.441  0.00  0.00    +0.000 A 
ATOM      4  C   UNL     1       3.083   6.510  18.110  0.00  0.00    +0.000 A 
ATOM      5  C   UNL     1       2.824   5.065  18.017  0.00  0.00    +0.000 A 
ATOM      6  C   UNL     1       1.771   4.440  18.695  0.00  0.00    +0.000 A 
ATOM      7  C   UNL     1       1.568   3.060  18.573  0.00  0.00    +0.000 A 
ATOM      8  C   UNL     1       2.407   2.293  17.765  0.00  0.00    +0.000 A 
ATOM      9  C   UNL     1       3.456   2.902  17.082  0.00  0.00    +0.000 A 
ATOM     10  C   UNL     1       3.654   4.275  17.222  0.00  0.00    +0.000 A 
ATOM     11  O   UNL     1       4.743   4.826  16.524  0.00  0.00    +0.000 OA
ENDROOT
BRANCH   4  12
ATOM     12  C   UNL     1       2.284   7.490  18.862  0.00  0.00    +0.000 A 
ATOM     13  C   UNL     1       2.075   7.365  20.230  0.00  0.00    +0.000 A 
ATOM     14  N   UNL     1       1.388   8.258  20.981  0.00  0.00    +0.000 NA
ATOM     15  C   UNL     1       0.883   9.343  20.367  0.00  0.00    +0.000 A 
ATOM     16  C   UNL     1       0.200  10.297  21.110  0.00  0.00    +0.000 A 
ATOM     17  C   UNL     1      -0.323  11.453  20.523  0.00  0.00    +0.000 A 
ATOM     18  C   UNL     1      -0.168  11.665  19.158  0.00  0.00    +0.000 A 
ATOM     19  C   UNL     1       0.505  10.722  18.386  0.00  0.00    +0.000 A 
ATOM     20  C   UNL     1       1.035   9.563  18.980  0.00  0.00    +0.000 A 
ATOM     21  C   UNL     1       1.735   8.607  18.231  0.00  0.00    +0.000 A 
ENDBRANCH   4  12
TORSDOF 1
ENDMDL
MODEL 9
REMARK VINA RESULT:      -8.0      4.154      6.948
REMARK  Name = 
REMARK  1 active torsions:
REMARK  status: ('A' for Active; 'I' for Inactive)
REMARK    1  A    between atoms: C_4  and  C_5
REMARK                            x       y       z     vdW  Elec       q    Type
REMARK                         _______ _______ _______ _____ _____    ______ ____
ROOT
ATOM      1  O   UNL     1       6.695   4.858  19.056  0.00  0.00    +0.000 OA
ATOM      2  C   UNL     1       5.486   4.650  19.042  0.00  0.00    +0.000 A 
ATOM      3  C   UNL     1       4.538   5.736  19.329  0.00  0.00    +0.000 A 
ATOM      4  C   UNL     1       3.205   5.571  19.360  0.00  0.00    +0.000 A 
ATOM      5  C   UNL     1       2.677   4.224  19.094  0.00  0.00    +0.000 A 
ATOM      6  C   UNL     1       1.309   3.928  19.130  0.00  0.00    +0.000 A 
ATOM      7  C   UNL     1       0.857   2.629  18.868  0.00  0.00    +0.000 A 
ATOM      8  C   UNL     1       1.765   1.616  18.557  0.00  0.00    +0.000 A 
ATOM      9  C   UNL     1       3.128   1.898  18.514  0.00  0.00    +0.000 A 
ATOM     10  C   UNL     1       3.565   3.194  18.788  0.00  0.00    +0.000 A 
ATOM     11  O   UNL     1       4.954   3.408  18.750  0.00  0.00    +0.000 OA
ENDROOT
BRANCH   4  12
ATOM     12  C   UNL     1       2.412   6.775  19.652  0.00  0.00    +0.000 A 
ATOM     13  C   UNL     1       1.766   6.946  20.870  0.00  0.00    +0.000 A 
ATOM     14  N   UNL     1       1.060   8.050  21.210  0.00  0.00    +0.000 NA
ATOM     15  C   UNL     1       0.987   9.053  20.318  0.00  0.00    +0.000 A 
ATOM     16  C   UNL     1       0.298  10.214  20.643  0.00  0.00    +0.000 A 
ATOM     17  C   UNL     1       0.214  11.293  19.758  0.00  0.00    +0.000 A 
ATOM     18  C   UNL     1       0.825  11.215  18.512  0.00  0.00    +0.000 A 
ATOM     19  C   UNL     1       1.515  10.059  18.154  0.00  0.00    +0.000 A 
ATOM     20  C   UNL     1       1.603   8.978  19.049  0.00  0.00    +0.000 A 
ATOM     21  C   UNL     1       2.309   7.811  18.723  0.00  0.00    +0.000 A 
ENDBRANCH   4  12
TORSDOF 1
ENDMDL
