MODEL 1
REMARK VINA RESULT:      -7.3      0.000      0.000
REMARK  Name = 
REMARK  5 active torsions:
REMARK  status: ('A' for Active; 'I' for Inactive)
REMARK    1  A    between atoms: C_1  and  C_2
REMARK    2  A    between atoms: C_2  and  C_3
REMARK    3  A    between atoms: C_2  and  N_4
REMARK    4  A    between atoms: C_11  and  C_12
REMARK    5  A    between atoms: C_19  and  C_20
REMARK                            x       y       z     vdW  Elec       q    Type
REMARK                         _______ _______ _______ _____ _____    ______ ____
ROOT
ATOM      1  N   UNL     1       2.028   5.318  19.924  0.00  0.00    +0.000 N 
ATOM      2  N   UNL     1       1.727   6.609  20.153  0.00  0.00    +0.000 NA
ATOM      3  C   UNL     1       2.399   7.305  19.237  0.00  0.00    +0.000 A 
ATOM      4  N   UNL     1       2.340   8.631  18.971  0.00  0.00    +0.000 N 
ATOM      5  C   UNL     1       1.309   9.517  19.308  0.00  0.00    +0.000 A 
ATOM      6  C   UNL     1       0.483   9.300  20.400  0.00  0.00    +0.000 A 
ATOM      7  C   UNL     1      -0.632  10.107  20.598  0.00  0.00    +0.000 A 
ATOM      8  C   UNL     1      -0.883  11.151  19.717  0.00  0.00    +0.000 A 
ATOM      9  C   UNL     1       0.031  11.349  18.695  0.00  0.00    +0.000 A 
ATOM     10  N   UNL     1       1.118  10.569  18.476  0.00  0.00    +0.000 NA
ATOM     11  C   UNL     1       3.193   6.448  18.464  0.00  0.00    +0.000 A 
ATOM     12  C   UNL     1       2.912   5.156  18.880  0.00  0.00    +0.000 A 
ATOM     13  H   UNL     1       2.789   8.990  18.139  0.00  0.00    +0.000 HD
ENDROOT
BRANCH  12  14
ATOM     14  C   UNL     1       3.387   3.840  18.327  0.00  0.00    +0.000 C 
ATOM     15  C   UNL     1       4.675   3.357  19.004  0.00  0.00    +0.000 C 
ATOM     16  C   UNL     1       5.921   4.096  18.521  0.00  0.00    +0.000 C 
ATOM     17  N   UNL     1       6.042   4.118  17.060  0.00  0.00    +0.000 NA
ATOM     18  C   UNL     1       4.848   4.638  16.394  0.00  0.00    +0.000 C 
ATOM     19  C   UNL     1       3.574   3.900  16.806  0.00  0.00    +0.000 C 
ATOM     20  H   UNL     1       6.216   3.171  16.731  0.00  0.00    +0.000 HD
ENDBRANCH  12  14
BRANCH   8  21
ATOM     21  C   UNL     1      -2.096  12.012  19.845  0.00  0.00    +0.000 C 
ATOM     22  F   UNL     1      -3.138  11.590  19.075  0.00  0.00    +0.000 F 
ATOM     23  F   UNL     1      -2.571  12.062  21.119  0.00  0.00    +0.000 F 
ATOM     24  F   UNL     1      -1.864  13.301  19.477  0.00  0.00    +0.000 F 
ENDBRANCH   8  21
BRANCH   1  26
ATOM     25  C   UNL     1       0.653   3.254  19.894  0.00  0.00    +0.000 C 
ATOM     26  C   UNL     1       1.368   4.304  20.747  0.00  0.00    +0.000 C 
ATOM     27  C   UNL     1       2.340   3.658  21.737  0.00  0.00    +0.000 C 
ENDBRANCH   1  26
TORSDOF 3
ENDMDL
MODEL 2
REMARK VINA RESULT:      -7.3      2.350      3.892
REMARK  Name = 
REMARK  5 active torsions:
REMARK  status: ('A' for Active; 'I' for Inactive)
REMARK    1  A    between atoms: C_1  and  C_2
REMARK    2  A    between atoms: C_2  and  C_3
REMARK    3  A    between atoms: C_2  and  N_4
REMARK    4  A    between atoms: C_11  and  C_12
REMARK    5  A    between atoms: C_19  and  C_20
REMARK                            x       y       z     vdW  Elec       q    Type
REMARK                         _______ _______ _______ _____ _____    ______ ____
ROOT
ATOM      1  N   UNL     1       3.895   6.072  17.999  0.00  0.00    +0.000 N 
ATOM      2  N   UNL     1       3.211   7.225  17.885  0.00  0.00    +0.000 NA
ATOM      3  C   UNL     1       2.239   7.161  18.794  0.00  0.00    +0.000 A 
ATOM      4  N   UNL     1       1.355   8.119  19.156  0.00  0.00    +0.000 N 
ATOM      5  C   UNL     1       1.476   9.501  18.960  0.00  0.00    +0.000 A 
ATOM      6  C   UNL     1       2.225  10.031  17.921  0.00  0.00    +0.000 A 
ATOM      7  C   UNL     1       2.461  11.400  17.865  0.00  0.00    +0.000 A 
ATOM      8  C   UNL     1       1.908  12.228  18.833  0.00  0.00    +0.000 A 
ATOM      9  C   UNL     1       1.110  11.630  19.795  0.00  0.00    +0.000 A 
ATOM     10  N   UNL     1       0.875  10.297  19.876  0.00  0.00    +0.000 NA
ATOM     11  C   UNL     1       2.265   5.919  19.443  0.00  0.00    +0.000 A 
ATOM     12  C   UNL     1       3.370   5.237  18.959  0.00  0.00    +0.000 A 
ATOM     13  H   UNL     1       0.778   7.978  19.975  0.00  0.00    +0.000 HD
ENDROOT
BRANCH  12  14
ATOM     14  C   UNL     1       3.946   3.912  19.382  0.00  0.00    +0.000 C 
ATOM     15  C   UNL     1       4.085   2.938  18.206  0.00  0.00    +0.000 C 
ATOM     16  C   UNL     1       2.757   2.312  17.783  0.00  0.00    +0.000 C 
ATOM     17  N   UNL     1       2.023   1.719  18.905  0.00  0.00    +0.000 NA
ATOM     18  C   UNL     1       1.820   2.651  20.014  0.00  0.00    +0.000 C 
ATOM     19  C   UNL     1       3.126   3.272  20.509  0.00  0.00    +0.000 C 
ATOM     20  H   UNL     1       2.540   0.912  19.245  0.00  0.00    +0.000 HD
ENDBRANCH  12  14
BRANCH   8  21
ATOM     21  C   UNL     1       2.176  13.696  18.857  0.00  0.00    +0.000 C 
ATOM     22  F   UNL     1       2.993  14.077  19.879  0.00  0.00    +0.000 F 
ATOM     23  F   UNL     1       2.775  14.139  17.718  0.00  0.00    +0.000 F 
ATOM     24  F   UNL     1       1.042  14.434  18.999  0.00  0.00    +0.000 F 
ENDBRANCH   8  21
BRANCH   1  26
ATOM     25  C   UNL     1       4.971   6.668  15.845  0.00  0.00    +0.000 C 
ATOM     26  C   UNL     1       5.079   5.892  17.159  0.00  0.00    +0.000 C 
ATOM     27  C   UNL     1       6.365   6.238  17.913  0.00  0.00    +0.000 C 
ENDBRANCH   1  26
TORSDOF 3
ENDMDL
MODEL 3
REMARK VINA RESULT:      -7.1      2.250      3.854
REMARK  Name = 
REMARK  5 active torsions:
REMARK  status: ('A' for Active; 'I' for Inactive)
REMARK    1  A    between atoms: C_1  and  C_2
REMARK    2  A    between atoms: C_2  and  C_3
REMARK    3  A    between atoms: C_2  and  N_4
REMARK    4  A    between atoms: C_11  and  C_12
REMARK    5  A    between atoms: C_19  and  C_20
REMARK                            x       y       z     vdW  Elec       q    Type
REMARK                         _______ _______ _______ _____ _____    ______ ____
ROOT
ATOM      1  N   UNL     1       4.239   6.557  17.322  0.00  0.00    +0.000 N 
ATOM      2  N   UNL     1       3.445   7.640  17.402  0.00  0.00    +0.000 NA
ATOM      3  C   UNL     1       2.460   7.307  18.235  0.00  0.00    +0.000 A 
ATOM      4  N   UNL     1       1.474   8.087  18.735  0.00  0.00    +0.000 N 
ATOM      5  C   UNL     1       1.460   9.485  18.817  0.00  0.00    +0.000 A 
ATOM      6  C   UNL     1       2.179  10.279  17.937  0.00  0.00    +0.000 A 
ATOM      7  C   UNL     1       2.276  11.648  18.159  0.00  0.00    +0.000 A 
ATOM      8  C   UNL     1       1.616  12.212  19.243  0.00  0.00    +0.000 A 
ATOM      9  C   UNL     1       0.857  11.363  20.031  0.00  0.00    +0.000 A 
ATOM     10  N   UNL     1       0.756  10.024  19.842  0.00  0.00    +0.000 NA
ATOM     11  C   UNL     1       2.594   5.969  18.632  0.00  0.00    +0.000 A 
ATOM     12  C   UNL     1       3.775   5.502  18.076  0.00  0.00    +0.000 A 
ATOM     13  H   UNL     1       0.893   7.733  19.483  0.00  0.00    +0.000 HD
ENDROOT
BRANCH  12  14
ATOM     14  C   UNL     1       4.471   4.181  18.260  0.00  0.00    +0.000 C 
ATOM     15  C   UNL     1       3.946   3.110  17.296  0.00  0.00    +0.000 C 
ATOM     16  C   UNL     1       2.591   2.541  17.710  0.00  0.00    +0.000 C 
ATOM     17  N   UNL     1       2.563   2.087  19.103  0.00  0.00    +0.000 NA
ATOM     18  C   UNL     1       2.997   3.114  20.050  0.00  0.00    +0.000 C 
ATOM     19  C   UNL     1       4.374   3.686  19.709  0.00  0.00    +0.000 C 
ATOM     20  H   UNL     1       3.171   1.277  19.196  0.00  0.00    +0.000 HD
ENDBRANCH  12  14
BRANCH   8  21
ATOM     21  C   UNL     1       1.734  13.665  19.564  0.00  0.00    +0.000 C 
ATOM     22  F   UNL     1       1.257  14.475  18.577  0.00  0.00    +0.000 F 
ATOM     23  F   UNL     1       1.052  14.010  20.690  0.00  0.00    +0.000 F 
ATOM     24  F   UNL     1       3.021  14.053  19.768  0.00  0.00    +0.000 F 
ENDBRANCH   8  21
BRANCH   1  26
ATOM     25  C   UNL     1       6.717   6.453  17.364  0.00  0.00    +0.000 C 
ATOM     26  C   UNL     1       5.458   6.659  16.519  0.00  0.00    +0.000 C 
ATOM     27  C   UNL     1       5.425   5.711  15.318  0.00  0.00    +0.000 C 
ENDBRANCH   1  26
TORSDOF 3
ENDMDL
MODEL 4
REMARK VINA RESULT:      -7.0      1.046      1.621
REMARK  Name = 
REMARK  5 active torsions:
REMARK  status: ('A' for Active; 'I' for Inactive)
REMARK    1  A    between atoms: C_1  and  C_2
REMARK    2  A    between atoms: C_2  and  C_3
REMARK    3  A    between atoms: C_2  and  N_4
REMARK    4  A    between atoms: C_11  and  C_12
REMARK    5  A    between atoms: C_19  and  C_20
REMARK                            x       y       z     vdW  Elec       q    Type
REMARK                         _______ _______ _______ _____ _____    ______ ____
ROOT
ATOM      1  N   UNL     1       2.810   5.605  18.647  0.00  0.00    +0.000 N 
ATOM      2  N   UNL     1       2.370   6.798  19.088  0.00  0.00    +0.000 NA
ATOM      3  C   UNL     1       2.999   7.712  18.351  0.00  0.00    +0.000 A 
ATOM      4  N   UNL     1       2.815   9.052  18.326  0.00  0.00    +0.000 N 
ATOM      5  C   UNL     1       1.687   9.760  18.762  0.00  0.00    +0.000 A 
ATOM      6  C   UNL     1       0.849   9.267  19.751  0.00  0.00    +0.000 A 
ATOM      7  C   UNL     1      -0.348   9.915  20.031  0.00  0.00    +0.000 A 
ATOM      8  C   UNL     1      -0.674  11.076  19.341  0.00  0.00    +0.000 A 
ATOM      9  C   UNL     1       0.251  11.545  18.422  0.00  0.00    +0.000 A 
ATOM     10  N   UNL     1       1.419  10.925  18.124  0.00  0.00    +0.000 NA
ATOM     11  C   UNL     1       3.904   7.091  17.479  0.00  0.00    +0.000 A 
ATOM     12  C   UNL     1       3.742   5.724  17.640  0.00  0.00    +0.000 A 
ATOM     13  H   UNL     1       3.254   9.600  17.598  0.00  0.00    +0.000 HD
ENDROOT
BRANCH  12  14
ATOM     14  C   UNL     1       4.369   4.583  16.884  0.00  0.00    +0.000 C 
ATOM     15  C   UNL     1       5.335   3.772  17.754  0.00  0.00    +0.000 C 
ATOM     16  C   UNL     1       6.678   4.467  17.970  0.00  0.00    +0.000 C 
ATOM     17  N   UNL     1       7.302   4.906  16.718  0.00  0.00    +0.000 NA
ATOM     18  C   UNL     1       6.421   5.738  15.899  0.00  0.00    +0.000 C 
ATOM     19  C   UNL     1       5.076   5.068  15.612  0.00  0.00    +0.000 C 
ATOM     20  H   UNL     1       7.571   4.085  16.181  0.00  0.00    +0.000 HD
ENDBRANCH  12  14
BRANCH   8  21
ATOM     21  C   UNL     1      -1.972  11.780  19.557  0.00  0.00    +0.000 C 
ATOM     22  F   UNL     1      -2.362  11.801  20.863  0.00  0.00    +0.000 F 
ATOM     23  F   UNL     1      -1.936  13.081  19.159  0.00  0.00    +0.000 F 
ATOM     24  F   UNL     1      -2.999  11.205  18.876  0.00  0.00    +0.000 F 
ENDBRANCH   8  21
BRANCH   1  26
ATOM     25  C   UNL     1       1.598   4.678  20.602  0.00  0.00    +0.000 C 
ATOM     26  C   UNL     1       2.229   4.399  19.236  0.00  0.00    +0.000 C 
ATOM     27  C   UNL     1       1.237   3.726  18.284  0.00  0.00    +0.000 C 
ENDBRANCH   1  26
TORSDOF 3
ENDMDL
MODEL 5
REMARK VINA RESULT:      -7.0      4.521      8.205
REMARK  Name = 
REMARK  5 active torsions:
REMARK  status: ('A' for Active; 'I' for Inactive)
REMARK    1  A    between atoms: C_1  and  C_2
REMARK    2  A    between atoms: C_2  and  C_3
REMARK    3  A    between atoms: C_2  and  N_4
REMARK    4  A    between atoms: C_11  and  C_12
REMARK    5  A    between atoms: C_19  and  C_20
REMARK                            x       y       z     vdW  Elec       q    Type
REMARK                         _______ _______ _______ _____ _____    ______ ____
ROOT
ATOM      1  N   UNL     1       0.528  10.728  20.701  0.00  0.00    +0.000 N 
ATOM      2  N   UNL     1       0.918   9.566  20.146  0.00  0.00    +0.000 NA
ATOM      3  C   UNL     1       1.272   9.862  18.897  0.00  0.00    +0.000 A 
ATOM      4  N   UNL     1       1.845   9.062  17.967  0.00  0.00    +0.000 N 
ATOM      5  C   UNL     1       2.548   7.872  18.191  0.00  0.00    +0.000 A 
ATOM      6  C   UNL     1       2.304   7.073  19.299  0.00  0.00    +0.000 A 
ATOM      7  C   UNL     1       3.139   5.997  19.574  0.00  0.00    +0.000 A 
ATOM      8  C   UNL     1       4.189   5.709  18.712  0.00  0.00    +0.000 A 
ATOM      9  C   UNL     1       4.321   6.508  17.588  0.00  0.00    +0.000 A 
ATOM     10  N   UNL     1       3.526   7.569  17.304  0.00  0.00    +0.000 NA
ATOM     11  C   UNL     1       1.036  11.218  18.635  0.00  0.00    +0.000 A 
ATOM     12  C   UNL     1       0.600  11.785  19.822  0.00  0.00    +0.000 A 
ATOM     13  H   UNL     1       2.204   9.471  17.114  0.00  0.00    +0.000 HD
ENDROOT
BRANCH  12  14
ATOM     14  C   UNL     1       0.309  13.224  20.154  0.00  0.00    +0.000 C 
ATOM     15  C   UNL     1       0.453  14.141  18.934  0.00  0.00    +0.000 C 
ATOM     16  C   UNL     1       1.907  14.439  18.574  0.00  0.00    +0.000 C 
ATOM     17  N   UNL     1       2.692  14.916  19.716  0.00  0.00    +0.000 NA
ATOM     18  C   UNL     1       2.624  14.022  20.872  0.00  0.00    +0.000 C 
ATOM     19  C   UNL     1       1.188  13.728  21.306  0.00  0.00    +0.000 C 
ATOM     20  H   UNL     1       2.349  15.833  19.989  0.00  0.00    +0.000 HD
ENDBRANCH  12  14
BRANCH   8  21
ATOM     21  C   UNL     1       5.153   4.603  18.989  0.00  0.00    +0.000 C 
ATOM     22  F   UNL     1       5.662   4.036  17.859  0.00  0.00    +0.000 F 
ATOM     23  F   UNL     1       6.228   5.014  19.715  0.00  0.00    +0.000 F 
ATOM     24  F   UNL     1       4.591   3.583  19.692  0.00  0.00    +0.000 F 
ENDBRANCH   8  21
BRANCH   1  26
ATOM     25  C   UNL     1      -1.307  11.157  22.314  0.00  0.00    +0.000 C 
ATOM     26  C   UNL     1       0.145  10.718  22.113  0.00  0.00    +0.000 C 
ATOM     27  C   UNL     1       0.419   9.360  22.764  0.00  0.00    +0.000 C 
ENDBRANCH   1  26
TORSDOF 3
ENDMDL
MODEL 6
REMARK VINA RESULT:      -7.0      5.463     10.626
REMARK  Name = 
REMARK  5 active torsions:
REMARK  status: ('A' for Active; 'I' for Inactive)
REMARK    1  A    between atoms: C_1  and  C_2
REMARK    2  A    between atoms: C_2  and  C_3
REMARK    3  A    between atoms: C_2  and  N_4
REMARK    4  A    between atoms: C_11  and  C_12
REMARK    5  A    between atoms: C_19  and  C_20
REMARK                            x       y       z     vdW  Elec       q    Type
REMARK                         _______ _______ _______ _____ _____    ______ ____
ROOT
ATOM      1  N   UNL     1      -6.139  12.464  19.757  0.00  0.00    +0.000 N 
ATOM      2  N   UNL     1      -4.842  12.454  19.398  0.00  0.00    +0.000 NA
ATOM      3  C   UNL     1      -4.180  13.000  20.417  0.00  0.00    +0.000 A 
ATOM      4  N   UNL     1      -2.842  13.110  20.595  0.00  0.00    +0.000 N 
ATOM      5  C   UNL     1      -1.840  12.359  19.969  0.00  0.00    +0.000 A 
ATOM      6  C   UNL     1      -2.023  11.791  18.717  0.00  0.00    +0.000 A 
ATOM      7  C   UNL     1      -1.073  10.912  18.209  0.00  0.00    +0.000 A 
ATOM      8  C   UNL     1       0.073  10.644  18.947  0.00  0.00    +0.000 A 
ATOM      9  C   UNL     1       0.217  11.309  20.154  0.00  0.00    +0.000 A 
ATOM     10  N   UNL     1      -0.701  12.161  20.675  0.00  0.00    +0.000 NA
ATOM     11  C   UNL     1      -5.077  13.426  21.405  0.00  0.00    +0.000 A 
ATOM     12  C   UNL     1      -6.341  13.033  20.995  0.00  0.00    +0.000 A 
ATOM     13  H   UNL     1      -2.485  13.405  21.494  0.00  0.00    +0.000 HD
ENDROOT
BRANCH  12  14
ATOM     14  C   UNL     1      -7.661  13.126  21.713  0.00  0.00    +0.000 C 
ATOM     15  C   UNL     1      -7.902  14.521  22.303  0.00  0.00    +0.000 C 
ATOM     16  C   UNL     1      -7.103  14.781  23.578  0.00  0.00    +0.000 C 
ATOM     17  N   UNL     1      -7.266  13.723  24.581  0.00  0.00    +0.000 NA
ATOM     18  C   UNL     1      -6.977  12.388  24.058  0.00  0.00    +0.000 C 
ATOM     19  C   UNL     1      -7.788  12.057  22.805  0.00  0.00    +0.000 C 
ATOM     20  H   UNL     1      -8.224  13.741  24.922  0.00  0.00    +0.000 HD
ENDBRANCH  12  14
BRANCH   8  21
ATOM     21  C   UNL     1       1.097   9.665  18.479  0.00  0.00    +0.000 C 
ATOM     22  F   UNL     1       0.672   8.899  17.435  0.00  0.00    +0.000 F 
ATOM     23  F   UNL     1       2.243  10.265  18.057  0.00  0.00    +0.000 F 
ATOM     24  F   UNL     1       1.466   8.788  19.452  0.00  0.00    +0.000 F 
ENDBRANCH   8  21
BRANCH   1  26
ATOM     25  C   UNL     1      -6.910  12.323  17.404  0.00  0.00    +0.000 C 
ATOM     26  C   UNL     1      -7.107  11.853  18.847  0.00  0.00    +0.000 C 
ATOM     27  C   UNL     1      -7.092  10.326  18.948  0.00  0.00    +0.000 C 
ENDBRANCH   1  26
TORSDOF 3
ENDMDL
MODEL 7
REMARK VINA RESULT:      -6.9      1.444      1.768
REMARK  Name = 
REMARK  5 active torsions:
REMARK  status: ('A' for Active; 'I' for Inactive)
REMARK    1  A    between atoms: C_1  and  C_2
REMARK    2  A    between atoms: C_2  and  C_3
REMARK    3  A    between atoms: C_2  and  N_4
REMARK    4  A    between atoms: C_11  and  C_12
REMARK    5  A    between atoms: C_19  and  C_20
REMARK                            x       y       z     vdW  Elec       q    Type
REMARK                         _______ _______ _______ _____ _____    ______ ____
ROOT
ATOM      1  N   UNL     1       1.735   5.001  20.321  0.00  0.00    +0.000 N 
ATOM      2  N   UNL     1       1.574   6.180  20.951  0.00  0.00    +0.000 NA
ATOM      3  C   UNL     1       2.176   7.086  20.183  0.00  0.00    +0.000 A 
ATOM      4  N   UNL     1       2.193   8.433  20.317  0.00  0.00    +0.000 N 
ATOM      5  C   UNL     1       1.292   9.222  21.042  0.00  0.00    +0.000 A 
ATOM      6  C   UNL     1       0.599   8.728  22.137  0.00  0.00    +0.000 A 
ATOM      7  C   UNL     1      -0.410   9.486  22.719  0.00  0.00    +0.000 A 
ATOM      8  C   UNL     1      -0.687  10.753  22.220  0.00  0.00    +0.000 A 
ATOM      9  C   UNL     1       0.100  11.205  21.173  0.00  0.00    +0.000 A 
ATOM     10  N   UNL     1       1.081  10.479  20.582  0.00  0.00    +0.000 NA
ATOM     11  C   UNL     1       2.789   6.462  19.088  0.00  0.00    +0.000 A 
ATOM     12  C   UNL     1       2.460   5.118  19.156  0.00  0.00    +0.000 A 
ATOM     13  H   UNL     1       2.559   9.001  19.565  0.00  0.00    +0.000 HD
ENDROOT
BRANCH  12  14
ATOM     14  C   UNL     1       2.748   4.004  18.186  0.00  0.00    +0.000 C 
ATOM     15  C   UNL     1       3.765   3.000  18.742  0.00  0.00    +0.000 C 
ATOM     16  C   UNL     1       5.203   3.514  18.697  0.00  0.00    +0.000 C 
ATOM     17  N   UNL     1       5.590   4.015  17.374  0.00  0.00    +0.000 NA
ATOM     18  C   UNL     1       4.669   5.024  16.851  0.00  0.00    +0.000 C 
ATOM     19  C   UNL     1       3.218   4.542  16.829  0.00  0.00    +0.000 C 
ATOM     20  H   UNL     1       5.623   3.232  16.725  0.00  0.00    +0.000 HD
ENDBRANCH  12  14
BRANCH   8  21
ATOM     21  C   UNL     1      -1.797  11.587  22.766  0.00  0.00    +0.000 C 
ATOM     22  F   UNL     1      -2.689  11.986  21.816  0.00  0.00    +0.000 F 
ATOM     23  F   UNL     1      -2.529  10.934  23.710  0.00  0.00    +0.000 F 
ATOM     24  F   UNL     1      -1.353  12.729  23.356  0.00  0.00    +0.000 F 
ENDBRANCH   8  21
BRANCH   1  26
ATOM     25  C   UNL     1       0.478   2.917  19.844  0.00  0.00    +0.000 C 
ATOM     26  C   UNL     1       1.106   3.818  20.909  0.00  0.00    +0.000 C 
ATOM     27  C   UNL     1       2.080   3.044  21.800  0.00  0.00    +0.000 C 
ENDBRANCH   1  26
TORSDOF 3
ENDMDL
MODEL 8
REMARK VINA RESULT:      -6.8      4.941      8.212
REMARK  Name = 
REMARK  5 active torsions:
REMARK  status: ('A' for Active; 'I' for Inactive)
REMARK    1  A    between atoms: C_1  and  C_2
REMARK    2  A    between atoms: C_2  and  C_3
REMARK    3  A    between atoms: C_2  and  N_4
REMARK    4  A    between atoms: C_11  and  C_12
REMARK    5  A    between atoms: C_19  and  C_20
REMARK                            x       y       z     vdW  Elec       q    Type
REMARK                         _______ _______ _______ _____ _____    ______ ____
ROOT
ATOM      1  N   UNL     1       0.984   9.006  20.404  0.00  0.00    +0.000 N 
ATOM      2  N   UNL     1       1.694   8.096  19.713  0.00  0.00    +0.000 NA
ATOM      3  C   UNL     1       1.802   8.583  18.478  0.00  0.00    +0.000 A 
ATOM      4  N   UNL     1       2.522   8.101  17.438  0.00  0.00    +0.000 N 
ATOM      5  C   UNL     1       3.609   7.221  17.496  0.00  0.00    +0.000 A 
ATOM      6  C   UNL     1       3.763   6.313  18.533  0.00  0.00    +0.000 A 
ATOM      7  C   UNL     1       4.940   5.582  18.645  0.00  0.00    +0.000 A 
ATOM      8  C   UNL     1       5.936   5.741  17.690  0.00  0.00    +0.000 A 
ATOM      9  C   UNL     1       5.675   6.610  16.644  0.00  0.00    +0.000 A 
ATOM     10  N   UNL     1       4.541   7.343  16.520  0.00  0.00    +0.000 NA
ATOM     11  C   UNL     1       1.090   9.785  18.368  0.00  0.00    +0.000 A 
ATOM     12  C   UNL     1       0.603  10.080  19.631  0.00  0.00    +0.000 A 
ATOM     13  H   UNL     1       2.634   8.668  16.608  0.00  0.00    +0.000 HD
ENDROOT
BRANCH  12  14
ATOM     14  C   UNL     1      -0.132  11.298  20.122  0.00  0.00    +0.000 C 
ATOM     15  C   UNL     1      -1.544  11.400  19.534  0.00  0.00    +0.000 C 
ATOM     16  C   UNL     1      -1.560  11.880  18.084  0.00  0.00    +0.000 C 
ATOM     17  N   UNL     1      -0.790  13.112  17.882  0.00  0.00    +0.000 NA
ATOM     18  C   UNL     1       0.584  13.017  18.376  0.00  0.00    +0.000 C 
ATOM     19  C   UNL     1       0.655  12.585  19.841  0.00  0.00    +0.000 C 
ATOM     20  H   UNL     1      -1.260  13.874  18.364  0.00  0.00    +0.000 HD
ENDBRANCH  12  14
BRANCH   8  21
ATOM     21  C   UNL     1       7.243   5.027  17.793  0.00  0.00    +0.000 C 
ATOM     22  F   UNL     1       7.711   4.586  16.591  0.00  0.00    +0.000 F 
ATOM     23  F   UNL     1       8.229   5.809  18.311  0.00  0.00    +0.000 F 
ATOM     24  F   UNL     1       7.177   3.926  18.588  0.00  0.00    +0.000 F 
ENDBRANCH   8  21
BRANCH   1  26
ATOM     25  C   UNL     1       1.719   9.589  22.701  0.00  0.00    +0.000 C 
ATOM     26  C   UNL     1       0.767   8.765  21.831  0.00  0.00    +0.000 C 
ATOM     27  C   UNL     1      -0.694   8.991  22.226  0.00  0.00    +0.000 C 
ENDBRANCH   1  26
TORSDOF 3
ENDMDL
MODEL 9
REMARK VINA RESULT:      -6.7      4.043      8.883
REMARK  Name = 
REMARK  5 active torsions:
REMARK  status: ('A' for Active; 'I' for Inactive)
REMARK    1  A    between atoms: C_1  and  C_2
REMARK    2  A    between atoms: C_2  and  C_3
REMARK    3  A    between atoms: C_2  and  N_4
REMARK    4  A    between atoms: C_11  and  C_12
REMARK    5  A    between atoms: C_19  and  C_20
REMARK                            x       y       z     vdW  Elec       q    Type
REMARK                         _______ _______ _______ _____ _____    ______ ____
ROOT
ATOM      1  N   UNL     1      -0.945  11.535  19.872  0.00  0.00    +0.000 N 
ATOM      2  N   UNL     1       0.061  10.656  19.712  0.00  0.00    +0.000 NA
ATOM      3  C   UNL     1       0.260  10.110  20.910  0.00  0.00    +0.000 A 
ATOM      4  N   UNL     1       1.079   9.088  21.250  0.00  0.00    +0.000 N 
ATOM      5  C   UNL     1       1.616   8.115  20.397  0.00  0.00    +0.000 A 
ATOM      6  C   UNL     1       1.831   8.358  19.049  0.00  0.00    +0.000 A 
ATOM      7  C   UNL     1       2.201   7.316  18.207  0.00  0.00    +0.000 A 
ATOM      8  C   UNL     1       2.390   6.046  18.735  0.00  0.00    +0.000 A 
ATOM      9  C   UNL     1       2.229   5.900  20.103  0.00  0.00    +0.000 A 
ATOM     10  N   UNL     1       1.858   6.898  20.943  0.00  0.00    +0.000 NA
ATOM     11  C   UNL     1      -0.585  10.704  21.858  0.00  0.00    +0.000 A 
ATOM     12  C   UNL     1      -1.397  11.592  21.172  0.00  0.00    +0.000 A 
ATOM     13  H   UNL     1       1.004   8.677  22.171  0.00  0.00    +0.000 HD
ENDROOT
BRANCH  12  14
ATOM     14  C   UNL     1      -2.557  12.416  21.662  0.00  0.00    +0.000 C 
ATOM     15  C   UNL     1      -2.652  13.768  20.947  0.00  0.00    +0.000 C 
ATOM     16  C   UNL     1      -1.623  14.783  21.440  0.00  0.00    +0.000 C 
ATOM     17  N   UNL     1      -1.621  14.932  22.899  0.00  0.00    +0.000 NA
ATOM     18  C   UNL     1      -1.465  13.660  23.605  0.00  0.00    +0.000 C 
ATOM     19  C   UNL     1      -2.503  12.620  23.182  0.00  0.00    +0.000 C 
ATOM     20  H   UNL     1      -2.498  15.361  23.185  0.00  0.00    +0.000 HD
ENDBRANCH  12  14
BRANCH   8  21
ATOM     21  C   UNL     1       2.728   4.878  17.870  0.00  0.00    +0.000 C 
ATOM     22  F   UNL     1       1.653   4.374  17.201  0.00  0.00    +0.000 F 
ATOM     23  F   UNL     1       3.650   5.181  16.916  0.00  0.00    +0.000 F 
ATOM     24  F   UNL     1       3.244   3.835  18.575  0.00  0.00    +0.000 F 
ENDBRANCH   8  21
BRANCH   1  26
ATOM     25  C   UNL     1      -0.383  13.207  18.127  0.00  0.00    +0.000 C 
ATOM     26  C   UNL     1      -1.431  12.243  18.688  0.00  0.00    +0.000 C 
ATOM     27  C   UNL     1      -1.935  11.274  17.616  0.00  0.00    +0.000 C 
ENDBRANCH   1  26
TORSDOF 3
ENDMDL
