MODEL 1
REMARK VINA RESULT:      -8.8      0.000      0.000
REMARK  Name = 
REMARK  6 active torsions:
REMARK  status: ('A' for Active; 'I' for Inactive)
REMARK    1  A    between atoms: C_2  and  C_22
REMARK    2  A    between atoms: N_3  and  C_4
REMARK    3  A    between atoms: C_4  and  C_5
REMARK    4  A    between atoms: C_6  and  C_7
REMARK    5  A    between atoms: C_7  and  N_8
REMARK    6  A    between atoms: N_11  and  C_12
REMARK                            x       y       z     vdW  Elec       q    Type
REMARK                         _______ _______ _______ _____ _____    ______ ____
ROOT
ATOM      1  C   UNL     1       8.494   9.532  18.233  0.00  0.00    +0.000 C 
ATOM      2  C   UNL     1       8.245   8.210  18.220  0.00  0.00    +0.000 C 
ENDROOT
BRANCH   1   3
ATOM      3  C   UNL     1       9.298  10.210  19.292  0.00  0.00    +0.000 C 
BRANCH   3   6
ATOM      4  O   UNL     1      11.770  11.439  19.533  0.00  0.00    +0.000 OA
ATOM      5  C   UNL     1      10.844  12.089  19.063  0.00  0.00    +0.000 C 
ATOM      6  N   UNL     1       9.584  11.559  18.890  0.00  0.00    +0.000 N 
ATOM      7  H   UNL     1       8.842  12.133  18.523  0.00  0.00    +0.000 HD
BRANCH   5   8
ATOM      8  C   UNL     1      10.993  13.474  18.679  0.00  0.00    +0.000 A 
ATOM      9  C   UNL     1      10.683  14.153  17.510  0.00  0.00    +0.000 A 
ATOM     10  C   UNL     1      10.970  15.533  17.704  0.00  0.00    +0.000 A 
ATOM     11  C   UNL     1      10.810  16.683  16.907  0.00  0.00    +0.000 A 
ATOM     12  C   UNL     1      11.185  17.928  17.422  0.00  0.00    +0.000 A 
ATOM     13  C   UNL     1      11.731  18.033  18.699  0.00  0.00    +0.000 A 
ATOM     14  C   UNL     1      11.906  16.904  19.505  0.00  0.00    +0.000 A 
ATOM     15  C   UNL     1      11.504  15.668  18.985  0.00  0.00    +0.000 A 
ATOM     16  N   UNL     1      11.519  14.414  19.541  0.00  0.00    +0.000 N 
ATOM     17  H   UNL     1      11.836  14.195  20.479  0.00  0.00    +0.000 HD
ENDBRANCH   5   8
ENDBRANCH   3   6
ENDBRANCH   1   3
BRANCH   2  18
ATOM     18  C   UNL     1       7.540   7.462  17.120  0.00  0.00    +0.000 C 
BRANCH  18  19
ATOM     19  N   UNL     1       7.623   6.004  17.276  0.00  0.00    +0.000 NA
ATOM     20  C   UNL     1       7.198   5.557  18.625  0.00  0.00    +0.000 C 
ATOM     21  C   UNL     1       5.693   5.735  18.929  0.00  0.00    +0.000 C 
ATOM     22  N   UNL     1       4.877   5.073  17.894  0.00  0.00    +0.000 N 
ATOM     23  C   UNL     1       5.239   5.422  16.508  0.00  0.00    +0.000 C 
ATOM     24  C   UNL     1       6.766   5.310  16.284  0.00  0.00    +0.000 C 
BRANCH  22  25
ATOM     25  C   UNL     1       3.894   4.143  18.206  0.00  0.00    +0.000 A 
ATOM     26  C   UNL     1       3.940   2.878  17.573  0.00  0.00    +0.000 A 
ATOM     27  C   UNL     1       3.015   1.866  17.825  0.00  0.00    +0.000 A 
ATOM     28  C   UNL     1       1.984   2.086  18.717  0.00  0.00    +0.000 A 
ATOM     29  C   UNL     1       1.879   3.320  19.361  0.00  0.00    +0.000 A 
ATOM     30 CL   UNL     1       0.550   3.499  20.470  0.00  0.00    +0.000 Cl
ATOM     31  C   UNL     1       2.822   4.345  19.124  0.00  0.00    +0.000 A 
ATOM     32 CL   UNL     1       2.661   5.813  20.052  0.00  0.00    +0.000 Cl
ENDBRANCH  22  25
ENDBRANCH  18  19
ENDBRANCH   2  18
TORSDOF 6
ENDMDL
MODEL 2
REMARK VINA RESULT:      -8.7      3.334      4.358
REMARK  Name = 
REMARK  6 active torsions:
REMARK  status: ('A' for Active; 'I' for Inactive)
REMARK    1  A    between atoms: C_2  and  C_22
REMARK    2  A    between atoms: N_3  and  C_4
REMARK    3  A    between atoms: C_4  and  C_5
REMARK    4  A    between atoms: C_6  and  C_7
REMARK    5  A    between atoms: C_7  and  N_8
REMARK    6  A    between atoms: N_11  and  C_12
REMARK                            x       y       z     vdW  Elec       q    Type
REMARK                         _______ _______ _______ _____ _____    ______ ____
ROOT
ATOM      1  C   UNL     1       8.562   9.746  18.291  0.00  0.00    +0.000 C 
ATOM      2  C   UNL     1       8.376   8.422  18.144  0.00  0.00    +0.000 C 
ENDROOT
BRANCH   1   3
ATOM      3  C   UNL     1       9.703  10.340  19.050  0.00  0.00    +0.000 C 
BRANCH   3   6
ATOM      4  O   UNL     1      10.062  12.922  19.988  0.00  0.00    +0.000 OA
ATOM      5  C   UNL     1       9.477  12.121  20.707  0.00  0.00    +0.000 C 
ATOM      6  N   UNL     1       9.238  10.821  20.321  0.00  0.00    +0.000 N 
ATOM      7  H   UNL     1       8.775  10.185  20.951  0.00  0.00    +0.000 HD
BRANCH   5   8
ATOM      8  C   UNL     1       9.017  12.470  22.032  0.00  0.00    +0.000 A 
ATOM      9  C   UNL     1       8.995  13.675  22.720  0.00  0.00    +0.000 A 
ATOM     10  C   UNL     1       8.358  13.461  23.974  0.00  0.00    +0.000 A 
ATOM     11  C   UNL     1       8.008  14.307  25.045  0.00  0.00    +0.000 A 
ATOM     12  C   UNL     1       7.351  13.767  26.155  0.00  0.00    +0.000 A 
ATOM     13  C   UNL     1       7.062  12.406  26.216  0.00  0.00    +0.000 A 
ATOM     14  C   UNL     1       7.407  11.546  25.168  0.00  0.00    +0.000 A 
ATOM     15  C   UNL     1       8.042  12.107  24.053  0.00  0.00    +0.000 A 
ATOM     16  N   UNL     1       8.463  11.534  22.880  0.00  0.00    +0.000 N 
ATOM     17  H   UNL     1       8.352  10.556  22.634  0.00  0.00    +0.000 HD
ENDBRANCH   5   8
ENDBRANCH   3   6
ENDBRANCH   1   3
BRANCH   2  18
ATOM     18  C   UNL     1       7.311   7.776  17.297  0.00  0.00    +0.000 C 
BRANCH  18  19
ATOM     19  N   UNL     1       7.465   6.319  17.200  0.00  0.00    +0.000 NA
ATOM     20  C   UNL     1       7.280   5.644  18.508  0.00  0.00    +0.000 C 
ATOM     21  C   UNL     1       5.839   5.686  19.066  0.00  0.00    +0.000 C 
ATOM     22  N   UNL     1       4.888   5.147  18.078  0.00  0.00    +0.000 N 
ATOM     23  C   UNL     1       5.008   5.726  16.728  0.00  0.00    +0.000 C 
ATOM     24  C   UNL     1       6.481   5.739  16.254  0.00  0.00    +0.000 C 
BRANCH  22  25
ATOM     25  C   UNL     1       3.999   4.124  18.383  0.00  0.00    +0.000 A 
ATOM     26  C   UNL     1       4.159   2.876  17.736  0.00  0.00    +0.000 A 
ATOM     27  C   UNL     1       3.335   1.780  17.980  0.00  0.00    +0.000 A 
ATOM     28  C   UNL     1       2.294   1.891  18.880  0.00  0.00    +0.000 A 
ATOM     29  C   UNL     1       2.076   3.102  19.538  0.00  0.00    +0.000 A 
ATOM     30 CL   UNL     1       0.743   3.142  20.656  0.00  0.00    +0.000 Cl
ATOM     31  C   UNL     1       2.918   4.214  19.310  0.00  0.00    +0.000 A 
ATOM     32 CL   UNL     1       2.625   5.650  20.256  0.00  0.00    +0.000 Cl
ENDBRANCH  22  25
ENDBRANCH  18  19
ENDBRANCH   2  18
TORSDOF 6
ENDMDL
MODEL 3
REMARK VINA RESULT:      -8.5      4.448     12.284
REMARK  Name = 
REMARK  6 active torsions:
REMARK  status: ('A' for Active; 'I' for Inactive)
REMARK    1  A    between atoms: C_2  and  C_22
REMARK    2  A    between atoms: N_3  and  C_4
REMARK    3  A    between atoms: C_4  and  C_5
REMARK    4  A    between atoms: C_6  and  C_7
REMARK    5  A    between atoms: C_7  and  N_8
REMARK    6  A    between atoms: N_11  and  C_12
REMARK                            x       y       z     vdW  Elec       q    Type
REMARK                         _______ _______ _______ _____ _____    ______ ____
ROOT
ATOM      1  C   UNL     1       8.224   8.237  18.540  0.00  0.00    +0.000 C 
ATOM      2  C   UNL     1       8.620   9.509  18.353  0.00  0.00    +0.000 C 
ENDROOT
BRANCH   1   3
ATOM      3  C   UNL     1       7.661   7.380  17.453  0.00  0.00    +0.000 C 
BRANCH   3   6
ATOM      4  O   UNL     1       5.056   7.066  16.563  0.00  0.00    +0.000 OA
ATOM      5  C   UNL     1       5.431   6.382  17.508  0.00  0.00    +0.000 C 
ATOM      6  N   UNL     1       6.711   6.458  18.011  0.00  0.00    +0.000 N 
ATOM      7  H   UNL     1       6.974   5.898  18.806  0.00  0.00    +0.000 HD
BRANCH   5   8
ATOM      8  C   UNL     1       4.549   5.464  18.191  0.00  0.00    +0.000 A 
ATOM      9  C   UNL     1       4.627   4.098  18.422  0.00  0.00    +0.000 A 
ATOM     10  C   UNL     1       3.514   3.715  19.220  0.00  0.00    +0.000 A 
ATOM     11  C   UNL     1       3.103   2.498  19.800  0.00  0.00    +0.000 A 
ATOM     12  C   UNL     1       1.935   2.467  20.567  0.00  0.00    +0.000 A 
ATOM     13  C   UNL     1       1.170   3.618  20.742  0.00  0.00    +0.000 A 
ATOM     14  C   UNL     1       1.554   4.835  20.169  0.00  0.00    +0.000 A 
ATOM     15  C   UNL     1       2.739   4.855  19.424  0.00  0.00    +0.000 A 
ATOM     16  N   UNL     1       3.377   5.886  18.783  0.00  0.00    +0.000 N 
ATOM     17  H   UNL     1       3.062   6.850  18.770  0.00  0.00    +0.000 HD
ENDBRANCH   5   8
ENDBRANCH   3   6
ENDBRANCH   1   3
BRANCH   2  18
ATOM     18  C   UNL     1       9.297  10.375  19.383  0.00  0.00    +0.000 C 
BRANCH  18  19
ATOM     19  N   UNL     1      10.346  11.229  18.811  0.00  0.00    +0.000 NA
ATOM     20  C   UNL     1       9.891  11.939  17.590  0.00  0.00    +0.000 C 
ATOM     21  C   UNL     1       8.817  13.024  17.829  0.00  0.00    +0.000 C 
ATOM     22  N   UNL     1       9.279  13.994  18.838  0.00  0.00    +0.000 N 
ATOM     23  C   UNL     1       9.786  13.392  20.084  0.00  0.00    +0.000 C 
ATOM     24  C   UNL     1      10.792  12.253  19.785  0.00  0.00    +0.000 C 
BRANCH  22  25
ATOM     25  C   UNL     1       9.297  15.362  18.600  0.00  0.00    +0.000 A 
ATOM     26  C   UNL     1       8.110  16.100  18.820  0.00  0.00    +0.000 A 
ATOM     27  C   UNL     1       8.022  17.477  18.629  0.00  0.00    +0.000 A 
ATOM     28  C   UNL     1       9.126  18.180  18.189  0.00  0.00    +0.000 A 
ATOM     29  C   UNL     1      10.321  17.504  17.940  0.00  0.00    +0.000 A 
ATOM     30 CL   UNL     1      11.656  18.477  17.393  0.00  0.00    +0.000 Cl
ATOM     31  C   UNL     1      10.424  16.110  18.147  0.00  0.00    +0.000 A 
ATOM     32 CL   UNL     1      11.987  15.376  17.905  0.00  0.00    +0.000 Cl
ENDBRANCH  22  25
ENDBRANCH  18  19
ENDBRANCH   2  18
TORSDOF 6
ENDMDL
MODEL 4
REMARK VINA RESULT:      -8.5      4.370     12.313
REMARK  Name = 
REMARK  6 active torsions:
REMARK  status: ('A' for Active; 'I' for Inactive)
REMARK    1  A    between atoms: C_2  and  C_22
REMARK    2  A    between atoms: N_3  and  C_4
REMARK    3  A    between atoms: C_4  and  C_5
REMARK    4  A    between atoms: C_6  and  C_7
REMARK    5  A    between atoms: C_7  and  N_8
REMARK    6  A    between atoms: N_11  and  C_12
REMARK                            x       y       z     vdW  Elec       q    Type
REMARK                         _______ _______ _______ _____ _____    ______ ____
ROOT
ATOM      1  C   UNL     1       7.694   8.474  17.815  0.00  0.00    +0.000 C 
ATOM      2  C   UNL     1       8.761   8.926  18.498  0.00  0.00    +0.000 C 
ENDROOT
BRANCH   1   3
ATOM      3  C   UNL     1       7.655   7.148  17.130  0.00  0.00    +0.000 C 
BRANCH   3   6
ATOM      4  O   UNL     1       5.051   7.210  16.183  0.00  0.00    +0.000 OA
ATOM      5  C   UNL     1       5.306   6.474  17.129  0.00  0.00    +0.000 C 
ATOM      6  N   UNL     1       6.572   6.365  17.658  0.00  0.00    +0.000 N 
ATOM      7  H   UNL     1       6.736   5.767  18.453  0.00  0.00    +0.000 HD
BRANCH   5   8
ATOM      8  C   UNL     1       4.288   5.684  17.785  0.00  0.00    +0.000 A 
ATOM      9  C   UNL     1       3.508   5.922  18.907  0.00  0.00    +0.000 A 
ATOM     10  C   UNL     1       2.606   4.833  19.063  0.00  0.00    +0.000 A 
ATOM     11  C   UNL     1       1.564   4.553  19.969  0.00  0.00    +0.000 A 
ATOM     12  C   UNL     1       0.837   3.367  19.828  0.00  0.00    +0.000 A 
ATOM     13  C   UNL     1       1.148   2.459  18.818  0.00  0.00    +0.000 A 
ATOM     14  C   UNL     1       2.184   2.712  17.913  0.00  0.00    +0.000 A 
ATOM     15  C   UNL     1       2.886   3.915  18.053  0.00  0.00    +0.000 A 
ATOM     16  N   UNL     1       3.910   4.447  17.309  0.00  0.00    +0.000 N 
ATOM     17  H   UNL     1       4.321   4.015  16.489  0.00  0.00    +0.000 HD
ENDBRANCH   5   8
ENDBRANCH   3   6
ENDBRANCH   1   3
BRANCH   2  18
ATOM     18  C   UNL     1       8.812  10.200  19.299  0.00  0.00    +0.000 C 
BRANCH  18  19
ATOM     19  N   UNL     1      10.054  10.956  19.092  0.00  0.00    +0.000 NA
ATOM     20  C   UNL     1      10.067  11.672  17.792  0.00  0.00    +0.000 C 
ATOM     21  C   UNL     1       9.065  12.844  17.683  0.00  0.00    +0.000 C 
ATOM     22  N   UNL     1       9.263  13.797  18.790  0.00  0.00    +0.000 N 
ATOM     23  C   UNL     1       9.300  13.184  20.130  0.00  0.00    +0.000 C 
ATOM     24  C   UNL     1      10.252  11.964  20.161  0.00  0.00    +0.000 C 
BRANCH  22  25
ATOM     25  C   UNL     1       9.467  15.153  18.575  0.00  0.00    +0.000 A 
ATOM     26  C   UNL     1       8.342  16.011  18.572  0.00  0.00    +0.000 A 
ATOM     27  C   UNL     1       8.435  17.389  18.382  0.00  0.00    +0.000 A 
ATOM     28  C   UNL     1       9.668  17.971  18.170  0.00  0.00    +0.000 A 
ATOM     29  C   UNL     1      10.814  17.173  18.147  0.00  0.00    +0.000 A 
ATOM     30 CL   UNL     1      12.321  17.998  17.876  0.00  0.00    +0.000 Cl
ATOM     31  C   UNL     1      10.731  15.777  18.355  0.00  0.00    +0.000 A 
ATOM     32 CL   UNL     1      12.227  14.884  18.408  0.00  0.00    +0.000 Cl
ENDBRANCH  22  25
ENDBRANCH  18  19
ENDBRANCH   2  18
TORSDOF 6
ENDMDL
MODEL 5
REMARK VINA RESULT:      -8.4      3.612      5.913
REMARK  Name = 
REMARK  6 active torsions:
REMARK  status: ('A' for Active; 'I' for Inactive)
REMARK    1  A    between atoms: C_2  and  C_22
REMARK    2  A    between atoms: N_3  and  C_4
REMARK    3  A    between atoms: C_4  and  C_5
REMARK    4  A    between atoms: C_6  and  C_7
REMARK    5  A    between atoms: C_7  and  N_8
REMARK    6  A    between atoms: N_11  and  C_12
REMARK                            x       y       z     vdW  Elec       q    Type
REMARK                         _______ _______ _______ _____ _____    ______ ____
ROOT
ATOM      1  C   UNL     1       6.272   4.869  19.145  0.00  0.00    +0.000 C 
ATOM      2  C   UNL     1       5.188   4.249  18.645  0.00  0.00    +0.000 C 
ENDROOT
BRANCH   1   3
ATOM      3  C   UNL     1       7.487   5.185  18.337  0.00  0.00    +0.000 C 
BRANCH   3   6
ATOM      4  O   UNL     1       7.130   7.346  16.640  0.00  0.00    +0.000 OA
ATOM      5  C   UNL     1       7.706   7.535  17.705  0.00  0.00    +0.000 C 
ATOM      6  N   UNL     1       7.917   6.526  18.619  0.00  0.00    +0.000 N 
ATOM      7  H   UNL     1       8.417   6.716  19.472  0.00  0.00    +0.000 HD
BRANCH   5   8
ATOM      8  C   UNL     1       8.239   8.828  18.072  0.00  0.00    +0.000 A 
ATOM      9  C   UNL     1       8.145  10.075  17.472  0.00  0.00    +0.000 A 
ATOM     10  C   UNL     1       8.800  11.023  18.307  0.00  0.00    +0.000 A 
ATOM     11  C   UNL     1       8.975  12.419  18.245  0.00  0.00    +0.000 A 
ATOM     12  C   UNL     1       9.672  13.066  19.269  0.00  0.00    +0.000 A 
ATOM     13  C   UNL     1      10.207  12.342  20.331  0.00  0.00    +0.000 A 
ATOM     14  C   UNL     1      10.052  10.954  20.410  0.00  0.00    +0.000 A 
ATOM     15  C   UNL     1       9.331  10.324  19.389  0.00  0.00    +0.000 A 
ATOM     16  N   UNL     1       8.991   9.006  19.213  0.00  0.00    +0.000 N 
ATOM     17  H   UNL     1       9.222   8.253  19.852  0.00  0.00    +0.000 HD
ENDBRANCH   5   8
ENDBRANCH   3   6
ENDBRANCH   1   3
BRANCH   2  18
ATOM     18  C   UNL     1       3.897   4.009  19.383  0.00  0.00    +0.000 C 
BRANCH  18  19
ATOM     19  N   UNL     1       2.733   4.589  18.702  0.00  0.00    +0.000 NA
ATOM     20  C   UNL     1       1.575   4.759  19.613  0.00  0.00    +0.000 C 
ATOM     21  C   UNL     1       1.758   5.833  20.709  0.00  0.00    +0.000 C 
ATOM     22  N   UNL     1       2.124   7.128  20.106  0.00  0.00    +0.000 N 
ATOM     23  C   UNL     1       3.248   7.068  19.154  0.00  0.00    +0.000 C 
ATOM     24  C   UNL     1       3.055   5.920  18.133  0.00  0.00    +0.000 C 
BRANCH  22  25
ATOM     25  C   UNL     1       1.417   8.295  20.366  0.00  0.00    +0.000 A 
ATOM     26  C   UNL     1       1.016   8.557  21.697  0.00  0.00    +0.000 A 
ATOM     27  C   UNL     1       0.318   9.704  22.071  0.00  0.00    +0.000 A 
ATOM     28  C   UNL     1      -0.026  10.639  21.116  0.00  0.00    +0.000 A 
ATOM     29  C   UNL     1       0.329  10.428  19.782  0.00  0.00    +0.000 A 
ATOM     30 CL   UNL     1      -0.145  11.665  18.654  0.00  0.00    +0.000 Cl
ATOM     31  C   UNL     1       1.052   9.276  19.397  0.00  0.00    +0.000 A 
ATOM     32 CL   UNL     1       1.535   9.154  17.726  0.00  0.00    +0.000 Cl
ENDBRANCH  22  25
ENDBRANCH  18  19
ENDBRANCH   2  18
TORSDOF 6
ENDMDL
MODEL 6
REMARK VINA RESULT:      -8.4      4.013     12.368
REMARK  Name = 
REMARK  6 active torsions:
REMARK  status: ('A' for Active; 'I' for Inactive)
REMARK    1  A    between atoms: C_2  and  C_22
REMARK    2  A    between atoms: N_3  and  C_4
REMARK    3  A    between atoms: C_4  and  C_5
REMARK    4  A    between atoms: C_6  and  C_7
REMARK    5  A    between atoms: C_7  and  N_8
REMARK    6  A    between atoms: N_11  and  C_12
REMARK                            x       y       z     vdW  Elec       q    Type
REMARK                         _______ _______ _______ _____ _____    ______ ____
ROOT
ATOM      1  C   UNL     1       8.223   8.103  18.214  0.00  0.00    +0.000 C 
ATOM      2  C   UNL     1       8.325   9.444  18.181  0.00  0.00    +0.000 C 
ENDROOT
BRANCH   1   3
ATOM      3  C   UNL     1       7.458   7.310  17.207  0.00  0.00    +0.000 C 
BRANCH   3   6
ATOM      4  O   UNL     1       4.976   6.716  16.125  0.00  0.00    +0.000 OA
ATOM      5  C   UNL     1       5.226   6.315  17.256  0.00  0.00    +0.000 C 
ATOM      6  N   UNL     1       6.436   6.547  17.870  0.00  0.00    +0.000 N 
ATOM      7  H   UNL     1       6.594   6.223  18.811  0.00  0.00    +0.000 HD
BRANCH   5   8
ATOM      8  C   UNL     1       4.257   5.591  18.046  0.00  0.00    +0.000 A 
ATOM      9  C   UNL     1       3.895   5.680  19.383  0.00  0.00    +0.000 A 
ATOM     10  C   UNL     1       2.822   4.776  19.617  0.00  0.00    +0.000 A 
ATOM     11  C   UNL     1       2.027   4.477  20.741  0.00  0.00    +0.000 A 
ATOM     12  C   UNL     1       1.012   3.523  20.626  0.00  0.00    +0.000 A 
ATOM     13  C   UNL     1       0.798   2.856  19.421  0.00  0.00    +0.000 A 
ATOM     14  C   UNL     1       1.580   3.131  18.294  0.00  0.00    +0.000 A 
ATOM     15  C   UNL     1       2.577   4.106  18.420  0.00  0.00    +0.000 A 
ATOM     16  N   UNL     1       3.462   4.606  17.499  0.00  0.00    +0.000 N 
ATOM     17  H   UNL     1       3.513   4.326  16.525  0.00  0.00    +0.000 HD
ENDBRANCH   5   8
ENDBRANCH   3   6
ENDBRANCH   1   3
BRANCH   2  18
ATOM     18  C   UNL     1       9.174  10.281  19.101  0.00  0.00    +0.000 C 
BRANCH  18  19
ATOM     19  N   UNL     1      10.132  11.130  18.381  0.00  0.00    +0.000 NA
ATOM     20  C   UNL     1       9.496  12.350  17.826  0.00  0.00    +0.000 C 
ATOM     21  C   UNL     1       9.026  13.378  18.880  0.00  0.00    +0.000 C 
ATOM     22  N   UNL     1      10.139  13.746  19.774  0.00  0.00    +0.000 N 
ATOM     23  C   UNL     1      10.865  12.604  20.357  0.00  0.00    +0.000 C 
ATOM     24  C   UNL     1      11.236  11.564  19.271  0.00  0.00    +0.000 C 
BRANCH  22  25
ATOM     25  C   UNL     1      10.513  15.067  19.989  0.00  0.00    +0.000 A 
ATOM     26  C   UNL     1      11.473  15.645  19.125  0.00  0.00    +0.000 A 
ATOM     27  C   UNL     1      11.906  16.964  19.241  0.00  0.00    +0.000 A 
ATOM     28  C   UNL     1      11.404  17.765  20.247  0.00  0.00    +0.000 A 
ATOM     29  C   UNL     1      10.466  17.245  21.141  0.00  0.00    +0.000 A 
ATOM     30 CL   UNL     1       9.891  18.332  22.371  0.00  0.00    +0.000 Cl
ATOM     31  C   UNL     1      10.008  15.914  21.020  0.00  0.00    +0.000 A 
ATOM     32 CL   UNL     1       8.761  15.391  22.122  0.00  0.00    +0.000 Cl
ENDBRANCH  22  25
ENDBRANCH  18  19
ENDBRANCH   2  18
TORSDOF 6
ENDMDL
MODEL 7
REMARK VINA RESULT:      -8.4      4.588     12.168
REMARK  Name = 
REMARK  6 active torsions:
REMARK  status: ('A' for Active; 'I' for Inactive)
REMARK    1  A    between atoms: C_2  and  C_22
REMARK    2  A    between atoms: N_3  and  C_4
REMARK    3  A    between atoms: C_4  and  C_5
REMARK    4  A    between atoms: C_6  and  C_7
REMARK    5  A    between atoms: C_7  and  N_8
REMARK    6  A    between atoms: N_11  and  C_12
REMARK                            x       y       z     vdW  Elec       q    Type
REMARK                         _______ _______ _______ _____ _____    ______ ____
ROOT
ATOM      1  C   UNL     1       7.951   8.701  17.900  0.00  0.00    +0.000 C 
ATOM      2  C   UNL     1       8.798   9.699  18.209  0.00  0.00    +0.000 C 
ENDROOT
BRANCH   1   3
ATOM      3  C   UNL     1       8.211   7.268  18.230  0.00  0.00    +0.000 C 
BRANCH   3   6
ATOM      4  O   UNL     1       7.684   4.708  17.306  0.00  0.00    +0.000 OA
ATOM      5  C   UNL     1       6.789   5.310  17.889  0.00  0.00    +0.000 C 
ATOM      6  N   UNL     1       6.961   6.578  18.396  0.00  0.00    +0.000 N 
ATOM      7  H   UNL     1       6.193   7.050  18.846  0.00  0.00    +0.000 HD
BRANCH   5   8
ATOM      8  C   UNL     1       5.470   4.745  18.062  0.00  0.00    +0.000 A 
ATOM      9  C   UNL     1       4.228   5.117  17.569  0.00  0.00    +0.000 A 
ATOM     10  C   UNL     1       3.271   4.155  17.996  0.00  0.00    +0.000 A 
ATOM     11  C   UNL     1       1.892   3.982  17.763  0.00  0.00    +0.000 A 
ATOM     12  C   UNL     1       1.235   2.887  18.332  0.00  0.00    +0.000 A 
ATOM     13  C   UNL     1       1.926   1.985  19.138  0.00  0.00    +0.000 A 
ATOM     14  C   UNL     1       3.293   2.141  19.389  0.00  0.00    +0.000 A 
ATOM     15  C   UNL     1       3.941   3.229  18.793  0.00  0.00    +0.000 A 
ATOM     16  N   UNL     1       5.257   3.617  18.826  0.00  0.00    +0.000 N 
ATOM     17  H   UNL     1       5.999   3.125  19.313  0.00  0.00    +0.000 HD
ENDBRANCH   5   8
ENDBRANCH   3   6
ENDBRANCH   1   3
BRANCH   2  18
ATOM     18  C   UNL     1       8.534  11.167  18.002  0.00  0.00    +0.000 C 
BRANCH  18  19
ATOM     19  N   UNL     1       9.721  12.000  18.234  0.00  0.00    +0.000 NA
ATOM     20  C   UNL     1       9.394  13.446  18.282  0.00  0.00    +0.000 C 
ATOM     21  C   UNL     1       8.562  13.887  19.507  0.00  0.00    +0.000 C 
ATOM     22  N   UNL     1       9.227  13.475  20.757  0.00  0.00    +0.000 N 
ATOM     23  C   UNL     1       9.627  12.057  20.803  0.00  0.00    +0.000 C 
ATOM     24  C   UNL     1      10.380  11.647  19.514  0.00  0.00    +0.000 C 
BRANCH  22  25
ATOM     25  C   UNL     1       9.513  14.372  21.778  0.00  0.00    +0.000 A 
ATOM     26  C   UNL     1       8.736  14.318  22.959  0.00  0.00    +0.000 A 
ATOM     27  C   UNL     1       8.949  15.159  24.050  0.00  0.00    +0.000 A 
ATOM     28  C   UNL     1       9.946  16.112  23.997  0.00  0.00    +0.000 A 
ATOM     29  C   UNL     1      10.735  16.224  22.851  0.00  0.00    +0.000 A 
ATOM     30 CL   UNL     1      11.968  17.451  22.881  0.00  0.00    +0.000 Cl
ATOM     31  C   UNL     1      10.538  15.363  21.747  0.00  0.00    +0.000 A 
ATOM     32 CL   UNL     1      11.640  15.516  20.404  0.00  0.00    +0.000 Cl
ENDBRANCH  22  25
ENDBRANCH  18  19
ENDBRANCH   2  18
TORSDOF 6
ENDMDL
MODEL 8
REMARK VINA RESULT:      -8.2      4.095     12.376
REMARK  Name = 
REMARK  6 active torsions:
REMARK  status: ('A' for Active; 'I' for Inactive)
REMARK    1  A    between atoms: C_2  and  C_22
REMARK    2  A    between atoms: N_3  and  C_4
REMARK    3  A    between atoms: C_4  and  C_5
REMARK    4  A    between atoms: C_6  and  C_7
REMARK    5  A    between atoms: C_7  and  N_8
REMARK    6  A    between atoms: N_11  and  C_12
REMARK                            x       y       z     vdW  Elec       q    Type
REMARK                         _______ _______ _______ _____ _____    ______ ____
ROOT
ATOM      1  C   UNL     1       8.145   7.945  18.465  0.00  0.00    +0.000 C 
ATOM      2  C   UNL     1       8.390   9.218  18.107  0.00  0.00    +0.000 C 
ENDROOT
BRANCH   1   3
ATOM      3  C   UNL     1       7.581   6.921  17.537  0.00  0.00    +0.000 C 
BRANCH   3   6
ATOM      4  O   UNL     1       4.941   6.819  16.702  0.00  0.00    +0.000 OA
ATOM      5  C   UNL     1       5.250   6.209  17.719  0.00  0.00    +0.000 C 
ATOM      6  N   UNL     1       6.540   6.189  18.203  0.00  0.00    +0.000 N 
ATOM      7  H   UNL     1       6.750   5.696  19.056  0.00  0.00    +0.000 HD
BRANCH   5   8
ATOM      8  C   UNL     1       4.279   5.488  18.508  0.00  0.00    +0.000 A 
ATOM      9  C   UNL     1       2.946   5.740  18.799  0.00  0.00    +0.000 A 
ATOM     10  C   UNL     1       2.442   4.654  19.566  0.00  0.00    +0.000 A 
ATOM     11  C   UNL     1       1.173   4.336  20.089  0.00  0.00    +0.000 A 
ATOM     12  C   UNL     1       1.005   3.144  20.799  0.00  0.00    +0.000 A 
ATOM     13  C   UNL     1       2.082   2.286  21.008  0.00  0.00    +0.000 A 
ATOM     14  C   UNL     1       3.353   2.584  20.505  0.00  0.00    +0.000 A 
ATOM     15  C   UNL     1       3.498   3.770  19.776  0.00  0.00    +0.000 A 
ATOM     16  N   UNL     1       4.591   4.304  19.142  0.00  0.00    +0.000 N 
ATOM     17  H   UNL     1       5.510   3.876  19.101  0.00  0.00    +0.000 HD
ENDBRANCH   5   8
ENDBRANCH   3   6
ENDBRANCH   1   3
BRANCH   2  18
ATOM     18  C   UNL     1       9.061  10.257  18.967  0.00  0.00    +0.000 C 
BRANCH  18  19
ATOM     19  N   UNL     1       9.919  11.167  18.199  0.00  0.00    +0.000 NA
ATOM     20  C   UNL     1       9.282  12.488  17.975  0.00  0.00    +0.000 C 
ATOM     21  C   UNL     1       9.108  13.353  19.245  0.00  0.00    +0.000 C 
ATOM     22  N   UNL     1      10.401  13.522  19.933  0.00  0.00    +0.000 N 
ATOM     23  C   UNL     1      11.138  12.270  20.177  0.00  0.00    +0.000 C 
ATOM     24  C   UNL     1      11.207  11.404  18.895  0.00  0.00    +0.000 C 
BRANCH  22  25
ATOM     25  C   UNL     1      10.909  14.773  20.261  0.00  0.00    +0.000 A 
ATOM     26  C   UNL     1      11.779  15.408  19.343  0.00  0.00    +0.000 A 
ATOM     27  C   UNL     1      12.331  16.668  19.563  0.00  0.00    +0.000 A 
ATOM     28  C   UNL     1      12.048  17.346  20.731  0.00  0.00    +0.000 A 
ATOM     29  C   UNL     1      11.208  16.764  21.682  0.00  0.00    +0.000 A 
ATOM     30 CL   UNL     1      10.907  17.698  23.119  0.00  0.00    +0.000 Cl
ATOM     31  C   UNL     1      10.630  15.494  21.459  0.00  0.00    +0.000 A 
ATOM     32 CL   UNL     1       9.516  14.897  22.661  0.00  0.00    +0.000 Cl
ENDBRANCH  22  25
ENDBRANCH  18  19
ENDBRANCH   2  18
TORSDOF 6
ENDMDL
MODEL 9
REMARK VINA RESULT:      -8.2      4.422     12.372
REMARK  Name = 
REMARK  6 active torsions:
REMARK  status: ('A' for Active; 'I' for Inactive)
REMARK    1  A    between atoms: C_2  and  C_22
REMARK    2  A    between atoms: N_3  and  C_4
REMARK    3  A    between atoms: C_4  and  C_5
REMARK    4  A    between atoms: C_6  and  C_7
REMARK    5  A    between atoms: C_7  and  N_8
REMARK    6  A    between atoms: N_11  and  C_12
REMARK                            x       y       z     vdW  Elec       q    Type
REMARK                         _______ _______ _______ _____ _____    ______ ____
ROOT
ATOM      1  C   UNL     1       8.313   8.169  17.782  0.00  0.00    +0.000 C 
ATOM      2  C   UNL     1       8.206   9.424  18.255  0.00  0.00    +0.000 C 
ENDROOT
BRANCH   1   3
ATOM      3  C   UNL     1       7.253   7.501  16.968  0.00  0.00    +0.000 C 
BRANCH   3   6
ATOM      4  O   UNL     1       4.868   6.335  16.173  0.00  0.00    +0.000 OA
ATOM      5  C   UNL     1       5.196   6.238  17.350  0.00  0.00    +0.000 C 
ATOM      6  N   UNL     1       6.370   6.771  17.835  0.00  0.00    +0.000 N 
ATOM      7  H   UNL     1       6.593   6.691  18.814  0.00  0.00    +0.000 HD
BRANCH   5   8
ATOM      8  C   UNL     1       4.361   5.581  18.329  0.00  0.00    +0.000 A 
ATOM      9  C   UNL     1       3.219   5.992  19.001  0.00  0.00    +0.000 A 
ATOM     10  C   UNL     1       2.757   4.909  19.800  0.00  0.00    +0.000 A 
ATOM     11  C   UNL     1       1.639   4.724  20.637  0.00  0.00    +0.000 A 
ATOM     12  C   UNL     1       1.463   3.495  21.279  0.00  0.00    +0.000 A 
ATOM     13  C   UNL     1       2.390   2.469  21.114  0.00  0.00    +0.000 A 
ATOM     14  C   UNL     1       3.512   2.633  20.295  0.00  0.00    +0.000 A 
ATOM     15  C   UNL     1       3.661   3.861  19.640  0.00  0.00    +0.000 A 
ATOM     16  N   UNL     1       4.621   4.298  18.763  0.00  0.00    +0.000 N 
ATOM     17  H   UNL     1       5.406   3.747  18.434  0.00  0.00    +0.000 HD
ENDBRANCH   5   8
ENDBRANCH   3   6
ENDBRANCH   1   3
BRANCH   2  18
ATOM     18  C   UNL     1       9.286  10.181  18.980  0.00  0.00    +0.000 C 
BRANCH  18  19
ATOM     19  N   UNL     1      10.050  11.072  18.097  0.00  0.00    +0.000 NA
ATOM     20  C   UNL     1       9.250  12.234  17.641  0.00  0.00    +0.000 C 
ATOM     21  C   UNL     1       8.894  13.256  18.744  0.00  0.00    +0.000 C 
ATOM     22  N   UNL     1      10.113  13.718  19.432  0.00  0.00    +0.000 N 
ATOM     23  C   UNL     1      11.002  12.639  19.900  0.00  0.00    +0.000 C 
ATOM     24  C   UNL     1      11.255  11.599  18.782  0.00  0.00    +0.000 C 
BRANCH  22  25
ATOM     25  C   UNL     1      10.427  15.064  19.563  0.00  0.00    +0.000 A 
ATOM     26  C   UNL     1      10.264  15.674  20.830  0.00  0.00    +0.000 A 
ATOM     27  C   UNL     1      10.565  17.012  21.076  0.00  0.00    +0.000 A 
ATOM     28  C   UNL     1      11.030  17.810  20.051  0.00  0.00    +0.000 A 
ATOM     29  C   UNL     1      11.197  17.269  18.775  0.00  0.00    +0.000 A 
ATOM     30 CL   UNL     1      11.793  18.352  17.550  0.00  0.00    +0.000 Cl
ATOM     31  C   UNL     1      10.911  15.908  18.520  0.00  0.00    +0.000 A 
ATOM     32 CL   UNL     1      11.248  15.303  16.919  0.00  0.00    +0.000 Cl
ENDBRANCH  22  25
ENDBRANCH  18  19
ENDBRANCH   2  18
TORSDOF 6
ENDMDL
