MODEL 1
REMARK VINA RESULT:      -7.2      0.000      0.000
REMARK  Name = 
REMARK  9 active torsions:
REMARK  status: ('A' for Active; 'I' for Inactive)
REMARK    1  A    between atoms: C_1  and  C_2
REMARK    2  A    between atoms: C_2  and  C_3
REMARK    3  A    between atoms: C_3  and  C_4
REMARK    4  A    between atoms: C_4  and  C_5
REMARK    5  A    between atoms: C_5  and  O_6
REMARK    6  A    between atoms: O_6  and  C_7
REMARK    7  A    between atoms: C_10  and  C_11
REMARK    8  A    between atoms: C_11  and  C_12
REMARK    9  A    between atoms: N_13  and  N_14
REMARK                            x       y       z     vdW  Elec       q    Type
REMARK                         _______ _______ _______ _____ _____    ______ ____
ROOT
ATOM      1  C   UNL     1       5.469   5.627  16.063  0.00  0.00    +0.000 A 
ATOM      2  C   UNL     1       5.005   4.520  16.788  0.00  0.00    +0.000 A 
ATOM      3  C   UNL     1       4.094   4.675  17.826  0.00  0.00    +0.000 A 
ATOM      4  C   UNL     1       3.624   5.933  18.197  0.00  0.00    +0.000 A 
ATOM      5  C   UNL     1       4.093   7.046  17.480  0.00  0.00    +0.000 A 
ATOM      6  C   UNL     1       5.016   6.894  16.416  0.00  0.00    +0.000 A 
ENDROOT
BRANCH   4   7
ATOM      7  C   UNL     1       2.669   6.105  19.345  0.00  0.00    +0.000 C 
ATOM      8  C   UNL     1       2.055   4.881  20.014  0.00  0.00    +0.000 C 
ATOM      9  N   UNL     1       2.409   7.324  19.743  0.00  0.00    +0.000 NA
BRANCH   9  10
ATOM     10  N   UNL     1       1.643   7.461  20.883  0.00  0.00    +0.000 N 
ATOM     11  C   UNL     1       0.968   8.607  21.196  0.00  0.00    +0.000 C 
ATOM     12  N   UNL     1       0.733   9.039  22.405  0.00  0.00    +0.000 NA
ATOM     13  C   UNL     1       0.013  10.334  22.177  0.00  0.00    +0.000 C 
ATOM     14  C   UNL     1       0.136  10.653  20.678  0.00  0.00    +0.000 C 
ATOM     15  N   UNL     1       0.506   9.365  20.173  0.00  0.00    +0.000 N 
ATOM     16  H   UNL     1       1.959   6.998  21.733  0.00  0.00    +0.000 HD
ATOM     17  H   UNL     1       0.832   9.183  19.235  0.00  0.00    +0.000 HD
ENDBRANCH   9  10
ENDBRANCH   4   7
BRANCH   1  18
ATOM     18  O   UNL     1       6.361   5.538  15.017  0.00  0.00    +0.000 OA
BRANCH  18  19
ATOM     19  C   UNL     1       6.499   4.212  14.486  0.00  0.00    +0.000 C 
BRANCH  19  20
ATOM     20  C   UNL     1       5.507   3.945  13.363  0.00  0.00    +0.000 C 
BRANCH  20  21
ATOM     21  C   UNL     1       6.207   3.215  12.210  0.00  0.00    +0.000 C 
BRANCH  21  23
ATOM     22  C   UNL     1       3.925   3.159  11.147  0.00  0.00    +0.000 C 
ATOM     23  C   UNL     1       5.219   2.398  11.386  0.00  0.00    +0.000 C 
ENDBRANCH  21  23
ENDBRANCH  20  21
ENDBRANCH  19  20
ENDBRANCH  18  19
ENDBRANCH   1  18
TORSDOF 7
ENDMDL
MODEL 2
REMARK VINA RESULT:      -7.0      4.916      5.645
REMARK  Name = 
REMARK  9 active torsions:
REMARK  status: ('A' for Active; 'I' for Inactive)
REMARK    1  A    between atoms: C_1  and  C_2
REMARK    2  A    between atoms: C_2  and  C_3
REMARK    3  A    between atoms: C_3  and  C_4
REMARK    4  A    between atoms: C_4  and  C_5
REMARK    5  A    between atoms: C_5  and  O_6
REMARK    6  A    between atoms: O_6  and  C_7
REMARK    7  A    between atoms: C_10  and  C_11
REMARK    8  A    between atoms: C_11  and  C_12
REMARK    9  A    between atoms: N_13  and  N_14
REMARK                            x       y       z     vdW  Elec       q    Type
REMARK                         _______ _______ _______ _____ _____    ______ ____
ROOT
ATOM      1  C   UNL     1       5.693   4.715  14.734  0.00  0.00    +0.000 A 
ATOM      2  C   UNL     1       6.842   4.197  15.347  0.00  0.00    +0.000 A 
ATOM      3  C   UNL     1       7.443   4.858  16.412  0.00  0.00    +0.000 A 
ATOM      4  C   UNL     1       6.941   6.065  16.894  0.00  0.00    +0.000 A 
ATOM      5  C   UNL     1       5.795   6.592  16.276  0.00  0.00    +0.000 A 
ATOM      6  C   UNL     1       5.173   5.919  15.196  0.00  0.00    +0.000 A 
ENDROOT
BRANCH   4   7
ATOM      7  C   UNL     1       7.614   6.800  18.019  0.00  0.00    +0.000 C 
ATOM      8  C   UNL     1       7.941   6.071  19.317  0.00  0.00    +0.000 C 
ATOM      9  N   UNL     1       7.912   8.060  17.831  0.00  0.00    +0.000 NA
BRANCH   9  10
ATOM     10  N   UNL     1       8.653   8.683  18.815  0.00  0.00    +0.000 N 
ATOM     11  C   UNL     1       9.037   9.992  18.744  0.00  0.00    +0.000 C 
ATOM     12  N   UNL     1      10.136  10.485  19.250  0.00  0.00    +0.000 NA
ATOM     13  C   UNL     1      10.083  11.929  18.851  0.00  0.00    +0.000 C 
ATOM     14  C   UNL     1       8.934  12.070  17.839  0.00  0.00    +0.000 C 
ATOM     15  N   UNL     1       8.221  10.854  18.094  0.00  0.00    +0.000 N 
ATOM     16  H   UNL     1       9.360   8.137  19.303  0.00  0.00    +0.000 HD
ATOM     17  H   UNL     1       7.474  10.491  17.520  0.00  0.00    +0.000 HD
ENDBRANCH   9  10
ENDBRANCH   4   7
BRANCH   1  18
ATOM     18  O   UNL     1       5.044   4.101  13.684  0.00  0.00    +0.000 OA
BRANCH  18  19
ATOM     19  C   UNL     1       5.930   3.518  12.717  0.00  0.00    +0.000 C 
BRANCH  19  20
ATOM     20  C   UNL     1       5.169   2.787  11.620  0.00  0.00    +0.000 C 
BRANCH  20  21
ATOM     21  C   UNL     1       3.826   3.482  11.365  0.00  0.00    +0.000 C 
BRANCH  21  23
ATOM     22  C   UNL     1       2.687   4.508   9.367  0.00  0.00    +0.000 C 
ATOM     23  C   UNL     1       3.346   3.261   9.935  0.00  0.00    +0.000 C 
ENDBRANCH  21  23
ENDBRANCH  20  21
ENDBRANCH  19  20
ENDBRANCH  18  19
ENDBRANCH   1  18
TORSDOF 7
ENDMDL
MODEL 3
REMARK VINA RESULT:      -7.0      0.809      1.296
REMARK  Name = 
REMARK  9 active torsions:
REMARK  status: ('A' for Active; 'I' for Inactive)
REMARK    1  A    between atoms: C_1  and  C_2
REMARK    2  A    between atoms: C_2  and  C_3
REMARK    3  A    between atoms: C_3  and  C_4
REMARK    4  A    between atoms: C_4  and  C_5
REMARK    5  A    between atoms: C_5  and  O_6
REMARK    6  A    between atoms: O_6  and  C_7
REMARK    7  A    between atoms: C_10  and  C_11
REMARK    8  A    between atoms: C_11  and  C_12
REMARK    9  A    between atoms: N_13  and  N_14
REMARK                            x       y       z     vdW  Elec       q    Type
REMARK                         _______ _______ _______ _____ _____    ______ ____
ROOT
ATOM      1  C   UNL     1       6.313   5.349  16.830  0.00  0.00    +0.000 A 
ATOM      2  C   UNL     1       5.286   6.258  16.544  0.00  0.00    +0.000 A 
ATOM      3  C   UNL     1       4.245   6.466  17.440  0.00  0.00    +0.000 A 
ATOM      4  C   UNL     1       4.172   5.768  18.643  0.00  0.00    +0.000 A 
ATOM      5  C   UNL     1       5.194   4.848  18.930  0.00  0.00    +0.000 A 
ATOM      6  C   UNL     1       6.262   4.637  18.024  0.00  0.00    +0.000 A 
ENDROOT
BRANCH   4   7
ATOM      7  C   UNL     1       3.025   5.964  19.595  0.00  0.00    +0.000 C 
ATOM      8  C   UNL     1       2.369   4.757  20.255  0.00  0.00    +0.000 C 
ATOM      9  N   UNL     1       2.635   7.190  19.835  0.00  0.00    +0.000 NA
BRANCH   9  10
ATOM     10  N   UNL     1       1.677   7.363  20.814  0.00  0.00    +0.000 N 
ATOM     11  C   UNL     1       1.034   8.550  21.026  0.00  0.00    +0.000 C 
ATOM     12  N   UNL     1       0.602   8.978  22.182  0.00  0.00    +0.000 NA
ATOM     13  C   UNL     1       0.028  10.325  21.859  0.00  0.00    +0.000 C 
ATOM     14  C   UNL     1       0.455  10.657  20.420  0.00  0.00    +0.000 C 
ATOM     15  N   UNL     1       0.827   9.355  19.958  0.00  0.00    +0.000 N 
ATOM     16  H   UNL     1       1.794   6.865  21.693  0.00  0.00    +0.000 HD
ATOM     17  H   UNL     1       1.313   9.165  19.093  0.00  0.00    +0.000 HD
ENDBRANCH   9  10
ENDBRANCH   4   7
BRANCH   1  18
ATOM     18  O   UNL     1       7.378   5.107  15.990  0.00  0.00    +0.000 OA
BRANCH  18  19
ATOM     19  C   UNL     1       7.020   5.063  14.600  0.00  0.00    +0.000 C 
BRANCH  19  20
ATOM     20  C   UNL     1       6.385   3.733  14.221  0.00  0.00    +0.000 C 
BRANCH  20  21
ATOM     21  C   UNL     1       5.201   3.970  13.275  0.00  0.00    +0.000 C 
BRANCH  21  23
ATOM     22  C   UNL     1       4.065   3.192  11.167  0.00  0.00    +0.000 C 
ATOM     23  C   UNL     1       5.341   3.159  11.992  0.00  0.00    +0.000 C 
ENDBRANCH  21  23
ENDBRANCH  20  21
ENDBRANCH  19  20
ENDBRANCH  18  19
ENDBRANCH   1  18
TORSDOF 7
ENDMDL
MODEL 4
REMARK VINA RESULT:      -7.0      1.010      1.100
REMARK  Name = 
REMARK  9 active torsions:
REMARK  status: ('A' for Active; 'I' for Inactive)
REMARK    1  A    between atoms: C_1  and  C_2
REMARK    2  A    between atoms: C_2  and  C_3
REMARK    3  A    between atoms: C_3  and  C_4
REMARK    4  A    between atoms: C_4  and  C_5
REMARK    5  A    between atoms: C_5  and  O_6
REMARK    6  A    between atoms: O_6  and  C_7
REMARK    7  A    between atoms: C_10  and  C_11
REMARK    8  A    between atoms: C_11  and  C_12
REMARK    9  A    between atoms: N_13  and  N_14
REMARK                            x       y       z     vdW  Elec       q    Type
REMARK                         _______ _______ _______ _____ _____    ______ ____
ROOT
ATOM      1  C   UNL     1       4.901   4.257  16.634  0.00  0.00    +0.000 A 
ATOM      2  C   UNL     1       3.714   3.635  17.044  0.00  0.00    +0.000 A 
ATOM      3  C   UNL     1       2.909   4.205  18.022  0.00  0.00    +0.000 A 
ATOM      4  C   UNL     1       3.260   5.401  18.645  0.00  0.00    +0.000 A 
ATOM      5  C   UNL     1       4.454   6.023  18.244  0.00  0.00    +0.000 A 
ATOM      6  C   UNL     1       5.275   5.451  17.241  0.00  0.00    +0.000 A 
ENDROOT
BRANCH   4   7
ATOM      7  C   UNL     1       2.410   5.998  19.732  0.00  0.00    +0.000 C 
ATOM      8  C   UNL     1       1.723   5.091  20.745  0.00  0.00    +0.000 C 
ATOM      9  N   UNL     1       2.302   7.301  19.774  0.00  0.00    +0.000 NA
BRANCH   9  10
ATOM     10  N   UNL     1       1.636   7.840  20.856  0.00  0.00    +0.000 N 
ATOM     11  C   UNL     1       1.104   9.099  20.854  0.00  0.00    +0.000 C 
ATOM     12  N   UNL     1       0.999   9.876  21.898  0.00  0.00    +0.000 NA
ATOM     13  C   UNL     1       0.402  11.131  21.337  0.00  0.00    +0.000 C 
ATOM     14  C   UNL     1       0.452  11.002  19.805  0.00  0.00    +0.000 C 
ATOM     15  N   UNL     1       0.652   9.590  19.676  0.00  0.00    +0.000 N 
ATOM     16  H   UNL     1       1.961   7.599  21.790  0.00  0.00    +0.000 HD
ATOM     17  H   UNL     1       0.892   9.116  18.817  0.00  0.00    +0.000 HD
ENDBRANCH   9  10
ENDBRANCH   4   7
BRANCH   1  18
ATOM     18  O   UNL     1       5.735   3.749  15.661  0.00  0.00    +0.000 OA
BRANCH  18  19
ATOM     19  C   UNL     1       5.555   4.355  14.371  0.00  0.00    +0.000 C 
BRANCH  19  20
ATOM     20  C   UNL     1       6.702   4.027  13.427  0.00  0.00    +0.000 C 
BRANCH  20  21
ATOM     21  C   UNL     1       6.150   3.494  12.099  0.00  0.00    +0.000 C 
BRANCH  21  23
ATOM     22  C   UNL     1       3.935   3.480  10.900  0.00  0.00    +0.000 C 
ATOM     23  C   UNL     1       4.663   3.177  12.200  0.00  0.00    +0.000 C 
ENDBRANCH  21  23
ENDBRANCH  20  21
ENDBRANCH  19  20
ENDBRANCH  18  19
ENDBRANCH   1  18
TORSDOF 7
ENDMDL
MODEL 5
REMARK VINA RESULT:      -6.8      3.530      5.005
REMARK  Name = 
REMARK  9 active torsions:
REMARK  status: ('A' for Active; 'I' for Inactive)
REMARK    1  A    between atoms: C_1  and  C_2
REMARK    2  A    between atoms: C_2  and  C_3
REMARK    3  A    between atoms: C_3  and  C_4
REMARK    4  A    between atoms: C_4  and  C_5
REMARK    5  A    between atoms: C_5  and  O_6
REMARK    6  A    between atoms: O_6  and  C_7
REMARK    7  A    between atoms: C_10  and  C_11
REMARK    8  A    between atoms: C_11  and  C_12
REMARK    9  A    between atoms: N_13  and  N_14
REMARK                            x       y       z     vdW  Elec       q    Type
REMARK                         _______ _______ _______ _____ _____    ______ ____
ROOT
ATOM      1  C   UNL     1       3.983   5.673  18.450  0.00  0.00    +0.000 A 
ATOM      2  C   UNL     1       3.917   6.744  17.548  0.00  0.00    +0.000 A 
ATOM      3  C   UNL     1       3.068   7.820  17.775  0.00  0.00    +0.000 A 
ATOM      4  C   UNL     1       2.239   7.865  18.894  0.00  0.00    +0.000 A 
ATOM      5  C   UNL     1       2.295   6.790  19.796  0.00  0.00    +0.000 A 
ATOM      6  C   UNL     1       3.164   5.694  19.573  0.00  0.00    +0.000 A 
ENDROOT
BRANCH   4   7
ATOM      7  C   UNL     1       1.290   9.010  19.120  0.00  0.00    +0.000 C 
ATOM      8  C   UNL     1       0.913   9.416  20.540  0.00  0.00    +0.000 C 
ATOM      9  N   UNL     1       0.827   9.634  18.068  0.00  0.00    +0.000 NA
BRANCH   9  10
ATOM     10  N   UNL     1       0.072  10.767  18.293  0.00  0.00    +0.000 N 
ATOM     11  C   UNL     1      -1.263  10.842  18.010  0.00  0.00    +0.000 C 
ATOM     12  N   UNL     1      -1.897  11.922  17.639  0.00  0.00    +0.000 NA
ATOM     13  C   UNL     1      -3.300  11.442  17.420  0.00  0.00    +0.000 C 
ATOM     14  C   UNL     1      -3.258   9.906  17.473  0.00  0.00    +0.000 C 
ATOM     15  N   UNL     1      -1.995   9.708  18.116  0.00  0.00    +0.000 N 
ATOM     16  H   UNL     1       0.511  11.674  18.152  0.00  0.00    +0.000 HD
ATOM     17  H   UNL     1      -1.522   8.820  18.201  0.00  0.00    +0.000 HD
ENDBRANCH   9  10
ENDBRANCH   4   7
BRANCH   1  18
ATOM     18  O   UNL     1       4.813   4.585  18.287  0.00  0.00    +0.000 OA
BRANCH  18  19
ATOM     19  C   UNL     1       6.178   4.935  18.008  0.00  0.00    +0.000 C 
BRANCH  19  20
ATOM     20  C   UNL     1       6.881   5.496  19.235  0.00  0.00    +0.000 C 
BRANCH  20  21
ATOM     21  C   UNL     1       7.986   6.468  18.806  0.00  0.00    +0.000 C 
BRANCH  21  23
ATOM     22  C   UNL     1       7.943   8.749  17.740  0.00  0.00    +0.000 C 
ATOM     23  C   UNL     1       7.569   7.283  17.587  0.00  0.00    +0.000 C 
ENDBRANCH  21  23
ENDBRANCH  20  21
ENDBRANCH  19  20
ENDBRANCH  18  19
ENDBRANCH   1  18
TORSDOF 7
ENDMDL
MODEL 6
REMARK VINA RESULT:      -6.8      1.133      1.283
REMARK  Name = 
REMARK  9 active torsions:
REMARK  status: ('A' for Active; 'I' for Inactive)
REMARK    1  A    between atoms: C_1  and  C_2
REMARK    2  A    between atoms: C_2  and  C_3
REMARK    3  A    between atoms: C_3  and  C_4
REMARK    4  A    between atoms: C_4  and  C_5
REMARK    5  A    between atoms: C_5  and  O_6
REMARK    6  A    between atoms: O_6  and  C_7
REMARK    7  A    between atoms: C_10  and  C_11
REMARK    8  A    between atoms: C_11  and  C_12
REMARK    9  A    between atoms: N_13  and  N_14
REMARK                            x       y       z     vdW  Elec       q    Type
REMARK                         _______ _______ _______ _____ _____    ______ ____
ROOT
ATOM      1  C   UNL     1       5.726   4.446  17.054  0.00  0.00    +0.000 A 
ATOM      2  C   UNL     1       6.080   4.885  18.337  0.00  0.00    +0.000 A 
ATOM      3  C   UNL     1       5.110   5.277  19.251  0.00  0.00    +0.000 A 
ATOM      4  C   UNL     1       3.756   5.268  18.922  0.00  0.00    +0.000 A 
ATOM      5  C   UNL     1       3.397   4.838  17.634  0.00  0.00    +0.000 A 
ATOM      6  C   UNL     1       4.381   4.429  16.700  0.00  0.00    +0.000 A 
ENDROOT
BRANCH   4   7
ATOM      7  C   UNL     1       2.710   5.730  19.898  0.00  0.00    +0.000 C 
ATOM      8  C   UNL     1       2.026   4.723  20.814  0.00  0.00    +0.000 C 
ATOM      9  N   UNL     1       2.431   7.008  19.932  0.00  0.00    +0.000 NA
BRANCH   9  10
ATOM     10  N   UNL     1       1.573   7.436  20.926  0.00  0.00    +0.000 N 
ATOM     11  C   UNL     1       1.074   8.707  20.984  0.00  0.00    +0.000 C 
ATOM     12  N   UNL     1       0.779   9.352  22.081  0.00  0.00    +0.000 NA
ATOM     13  C   UNL     1       0.325  10.691  21.583  0.00  0.00    +0.000 C 
ATOM     14  C   UNL     1       0.675  10.751  20.086  0.00  0.00    +0.000 C 
ATOM     15  N   UNL     1       0.872   9.359  19.815  0.00  0.00    +0.000 N 
ATOM     16  H   UNL     1       1.704   7.067  21.865  0.00  0.00    +0.000 HD
ATOM     17  H   UNL     1       1.269   8.986  18.965  0.00  0.00    +0.000 HD
ENDBRANCH   9  10
ENDBRANCH   4   7
BRANCH   1  18
ATOM     18  O   UNL     1       6.638   4.032  16.107  0.00  0.00    +0.000 OA
BRANCH  18  19
ATOM     19  C   UNL     1       6.044   3.660  14.854  0.00  0.00    +0.000 C 
BRANCH  19  20
ATOM     20  C   UNL     1       6.826   4.212  13.671  0.00  0.00    +0.000 C 
BRANCH  20  21
ATOM     21  C   UNL     1       6.275   3.629  12.364  0.00  0.00    +0.000 C 
BRANCH  21  23
ATOM     22  C   UNL     1       4.201   2.988  11.089  0.00  0.00    +0.000 C 
ATOM     23  C   UNL     1       4.751   3.645  12.344  0.00  0.00    +0.000 C 
ENDBRANCH  21  23
ENDBRANCH  20  21
ENDBRANCH  19  20
ENDBRANCH  18  19
ENDBRANCH   1  18
TORSDOF 7
ENDMDL
MODEL 7
REMARK VINA RESULT:      -6.8      1.976      2.516
REMARK  Name = 
REMARK  9 active torsions:
REMARK  status: ('A' for Active; 'I' for Inactive)
REMARK    1  A    between atoms: C_1  and  C_2
REMARK    2  A    between atoms: C_2  and  C_3
REMARK    3  A    between atoms: C_3  and  C_4
REMARK    4  A    between atoms: C_4  and  C_5
REMARK    5  A    between atoms: C_5  and  O_6
REMARK    6  A    between atoms: O_6  and  C_7
REMARK    7  A    between atoms: C_10  and  C_11
REMARK    8  A    between atoms: C_11  and  C_12
REMARK    9  A    between atoms: N_13  and  N_14
REMARK                            x       y       z     vdW  Elec       q    Type
REMARK                         _______ _______ _______ _____ _____    ______ ____
ROOT
ATOM      1  C   UNL     1       4.687   4.898  16.930  0.00  0.00    +0.000 A 
ATOM      2  C   UNL     1       3.472   4.533  17.526  0.00  0.00    +0.000 A 
ATOM      3  C   UNL     1       2.638   5.489  18.092  0.00  0.00    +0.000 A 
ATOM      4  C   UNL     1       2.985   6.838  18.107  0.00  0.00    +0.000 A 
ATOM      5  C   UNL     1       4.206   7.207  17.519  0.00  0.00    +0.000 A 
ATOM      6  C   UNL     1       5.057   6.238  16.934  0.00  0.00    +0.000 A 
ENDROOT
BRANCH   4   7
ATOM      7  C   UNL     1       2.101   7.867  18.755  0.00  0.00    +0.000 C 
ATOM      8  C   UNL     1       1.811   7.790  20.249  0.00  0.00    +0.000 C 
ATOM      9  N   UNL     1       1.617   8.818  17.997  0.00  0.00    +0.000 NA
BRANCH   9  10
ATOM     10  N   UNL     1       0.924   9.831  18.628  0.00  0.00    +0.000 N 
ATOM     11  C   UNL     1       1.404  11.106  18.740  0.00  0.00    +0.000 C 
ATOM     12  N   UNL     1       1.161  11.919  19.733  0.00  0.00    +0.000 NA
ATOM     13  C   UNL     1       1.954  13.142  19.379  0.00  0.00    +0.000 C 
ATOM     14  C   UNL     1       2.856  12.760  18.195  0.00  0.00    +0.000 C 
ATOM     15  N   UNL     1       2.200  11.569  17.748  0.00  0.00    +0.000 N 
ATOM     16  H   UNL     1       0.364   9.595  19.444  0.00  0.00    +0.000 HD
ATOM     17  H   UNL     1       2.576  10.921  17.071  0.00  0.00    +0.000 HD
ENDBRANCH   9  10
ENDBRANCH   4   7
BRANCH   1  18
ATOM     18  O   UNL     1       5.551   4.000  16.341  0.00  0.00    +0.000 OA
BRANCH  18  19
ATOM     19  C   UNL     1       6.720   4.610  15.772  0.00  0.00    +0.000 C 
BRANCH  19  20
ATOM     20  C   UNL     1       6.640   4.678  14.254  0.00  0.00    +0.000 C 
BRANCH  20  21
ATOM     21  C   UNL     1       5.620   3.656  13.738  0.00  0.00    +0.000 C 
BRANCH  21  23
ATOM     22  C   UNL     1       4.557   3.285  11.485  0.00  0.00    +0.000 C 
ATOM     23  C   UNL     1       5.859   3.321  12.270  0.00  0.00    +0.000 C 
ENDBRANCH  21  23
ENDBRANCH  20  21
ENDBRANCH  19  20
ENDBRANCH  18  19
ENDBRANCH   1  18
TORSDOF 7
ENDMDL
MODEL 8
REMARK VINA RESULT:      -6.8      1.179      1.771
REMARK  Name = 
REMARK  9 active torsions:
REMARK  status: ('A' for Active; 'I' for Inactive)
REMARK    1  A    between atoms: C_1  and  C_2
REMARK    2  A    between atoms: C_2  and  C_3
REMARK    3  A    between atoms: C_3  and  C_4
REMARK    4  A    between atoms: C_4  and  C_5
REMARK    5  A    between atoms: C_5  and  O_6
REMARK    6  A    between atoms: O_6  and  C_7
REMARK    7  A    between atoms: C_10  and  C_11
REMARK    8  A    between atoms: C_11  and  C_12
REMARK    9  A    between atoms: N_13  and  N_14
REMARK                            x       y       z     vdW  Elec       q    Type
REMARK                         _______ _______ _______ _____ _____    ______ ____
ROOT
ATOM      1  C   UNL     1       6.280   4.925  15.241  0.00  0.00    +0.000 A 
ATOM      2  C   UNL     1       5.722   6.203  15.387  0.00  0.00    +0.000 A 
ATOM      3  C   UNL     1       4.719   6.443  16.318  0.00  0.00    +0.000 A 
ATOM      4  C   UNL     1       4.217   5.424  17.124  0.00  0.00    +0.000 A 
ATOM      5  C   UNL     1       4.766   4.140  16.975  0.00  0.00    +0.000 A 
ATOM      6  C   UNL     1       5.794   3.890  16.033  0.00  0.00    +0.000 A 
ENDROOT
BRANCH   4   7
ATOM      7  C   UNL     1       3.104   5.675  18.103  0.00  0.00    +0.000 C 
ATOM      8  C   UNL     1       1.792   4.910  17.977  0.00  0.00    +0.000 C 
ATOM      9  N   UNL     1       3.315   6.550  19.053  0.00  0.00    +0.000 NA
BRANCH   9  10
ATOM     10  N   UNL     1       2.341   6.668  20.024  0.00  0.00    +0.000 N 
ATOM     11  C   UNL     1       1.677   7.835  20.277  0.00  0.00    +0.000 C 
ATOM     12  N   UNL     1       1.223   8.207  21.444  0.00  0.00    +0.000 NA
ATOM     13  C   UNL     1       0.634   9.558  21.171  0.00  0.00    +0.000 C 
ATOM     14  C   UNL     1       1.077   9.959  19.754  0.00  0.00    +0.000 C 
ATOM     15  N   UNL     1       1.474   8.682  19.241  0.00  0.00    +0.000 N 
ATOM     16  H   UNL     1       2.451   6.134  20.884  0.00  0.00    +0.000 HD
ATOM     17  H   UNL     1       1.975   8.536  18.377  0.00  0.00    +0.000 HD
ENDBRANCH   9  10
ENDBRANCH   4   7
BRANCH   1  18
ATOM     18  O   UNL     1       7.284   4.625  14.347  0.00  0.00    +0.000 OA
BRANCH  18  19
ATOM     19  C   UNL     1       6.882   4.719  12.972  0.00  0.00    +0.000 C 
BRANCH  19  20
ATOM     20  C   UNL     1       6.180   3.455  12.500  0.00  0.00    +0.000 C 
BRANCH  20  21
ATOM     21  C   UNL     1       4.696   3.745  12.246  0.00  0.00    +0.000 C 
BRANCH  21  23
ATOM     22  C   UNL     1       3.251   3.743  10.183  0.00  0.00    +0.000 C 
ATOM     23  C   UNL     1       4.156   2.918  11.085  0.00  0.00    +0.000 C 
ENDBRANCH  21  23
ENDBRANCH  20  21
ENDBRANCH  19  20
ENDBRANCH  18  19
ENDBRANCH   1  18
TORSDOF 7
ENDMDL
MODEL 9
REMARK VINA RESULT:      -6.7      4.926      5.702
REMARK  Name = 
REMARK  9 active torsions:
REMARK  status: ('A' for Active; 'I' for Inactive)
REMARK    1  A    between atoms: C_1  and  C_2
REMARK    2  A    between atoms: C_2  and  C_3
REMARK    3  A    between atoms: C_3  and  C_4
REMARK    4  A    between atoms: C_4  and  C_5
REMARK    5  A    between atoms: C_5  and  O_6
REMARK    6  A    between atoms: O_6  and  C_7
REMARK    7  A    between atoms: C_10  and  C_11
REMARK    8  A    between atoms: C_11  and  C_12
REMARK    9  A    between atoms: N_13  and  N_14
REMARK                            x       y       z     vdW  Elec       q    Type
REMARK                         _______ _______ _______ _____ _____    ______ ____
ROOT
ATOM      1  C   UNL     1       5.691   4.682  14.721  0.00  0.00    +0.000 A 
ATOM      2  C   UNL     1       5.168   5.889  15.205  0.00  0.00    +0.000 A 
ATOM      3  C   UNL     1       5.795   6.578  16.234  0.00  0.00    +0.000 A 
ATOM      4  C   UNL     1       6.952   6.089  16.836  0.00  0.00    +0.000 A 
ATOM      5  C   UNL     1       7.476   4.875  16.361  0.00  0.00    +0.000 A 
ATOM      6  C   UNL     1       6.844   4.171  15.306  0.00  0.00    +0.000 A 
ENDROOT
BRANCH   4   7
ATOM      7  C   UNL     1       7.610   6.814  17.977  0.00  0.00    +0.000 C 
ATOM      8  C   UNL     1       7.933   6.070  19.267  0.00  0.00    +0.000 C 
ATOM      9  N   UNL     1       7.897   8.080  17.809  0.00  0.00    +0.000 NA
BRANCH   9  10
ATOM     10  N   UNL     1       8.624   8.696  18.808  0.00  0.00    +0.000 N 
ATOM     11  C   UNL     1       9.021  10.002  18.745  0.00  0.00    +0.000 C 
ATOM     12  N   UNL     1      10.114  10.485  19.272  0.00  0.00    +0.000 NA
ATOM     13  C   UNL     1      10.081  11.929  18.873  0.00  0.00    +0.000 C 
ATOM     14  C   UNL     1       8.953  12.080  17.839  0.00  0.00    +0.000 C 
ATOM     15  N   UNL     1       8.225  10.871  18.079  0.00  0.00    +0.000 N 
ATOM     16  H   UNL     1       9.316   8.143  19.309  0.00  0.00    +0.000 HD
ATOM     17  H   UNL     1       7.486  10.515  17.490  0.00  0.00    +0.000 HD
ENDBRANCH   9  10
ENDBRANCH   4   7
BRANCH   1  18
ATOM     18  O   UNL     1       5.123   3.958  13.695  0.00  0.00    +0.000 OA
BRANCH  18  19
ATOM     19  C   UNL     1       6.058   3.558  12.681  0.00  0.00    +0.000 C 
BRANCH  19  20
ATOM     20  C   UNL     1       5.449   2.557  11.711  0.00  0.00    +0.000 C 
BRANCH  20  21
ATOM     21  C   UNL     1       4.019   2.981  11.353  0.00  0.00    +0.000 C 
BRANCH  21  23
ATOM     22  C   UNL     1       2.681   4.118   9.547  0.00  0.00    +0.000 C 
ATOM     23  C   UNL     1       4.010   4.068  10.284  0.00  0.00    +0.000 C 
ENDBRANCH  21  23
ENDBRANCH  20  21
ENDBRANCH  19  20
ENDBRANCH  18  19
ENDBRANCH   1  18
TORSDOF 7
ENDMDL
