MODEL 1
REMARK VINA RESULT:      -7.7      0.000      0.000
REMARK  Name = 
REMARK  9 active torsions:
REMARK  status: ('A' for Active; 'I' for Inactive)
REMARK    1  A    between atoms: C_1  and  C_2
REMARK    2  A    between atoms: C_2  and  N_3
REMARK    3  A    between atoms: C_5  and  C_6
REMARK    4  A    between atoms: C_6  and  N_7
REMARK    5  A    between atoms: N_10  and  C_11
REMARK    6  A    between atoms: C_11  and  C_12
REMARK    7  A    between atoms: C_18  and  C_19
REMARK    8  A    between atoms: C_19  and  C_20
REMARK    9  A    between atoms: C_20  and  O_21
REMARK                            x       y       z     vdW  Elec       q    Type
REMARK                         _______ _______ _______ _____ _____    ______ ____
ROOT
ATOM      1  N   UNL     1       2.227   6.799  18.913  0.00  0.00    +0.000 NA
ATOM      2  C   UNL     1       3.674   6.673  18.619  0.00  0.00    +0.000 C 
ATOM      3  C   UNL     1       4.445   5.545  19.352  0.00  0.00    +0.000 C 
ATOM      4  N   UNL     1       3.783   4.214  19.415  0.00  0.00    +0.000 NA
ATOM      5  C   UNL     1       2.366   4.432  19.797  0.00  0.00    +0.000 C 
ATOM      6  C   UNL     1       1.632   5.441  18.866  0.00  0.00    +0.000 C 
ENDROOT
BRANCH   1   7
ATOM      7  C   UNL     1       1.929   7.443  20.214  0.00  0.00    +0.000 C 
BRANCH   7  10
ATOM      8  N   UNL     1       0.703  10.817  19.409  0.00  0.00    +0.000 N 
ATOM      9  C   UNL     1       1.184   9.600  18.997  0.00  0.00    +0.000 A 
ATOM     10  C   UNL     1       1.255   8.773  20.096  0.00  0.00    +0.000 A 
ATOM     11  C   UNL     1       0.505   9.435  21.134  0.00  0.00    +0.000 A 
ATOM     12  C   UNL     1       0.099   9.067  22.437  0.00  0.00    +0.000 A 
ATOM     13  C   UNL     1      -0.632   9.968  23.220  0.00  0.00    +0.000 A 
ATOM     14  C   UNL     1      -0.937  11.237  22.743  0.00  0.00    +0.000 A 
ATOM     15  C   UNL     1      -0.529  11.637  21.468  0.00  0.00    +0.000 A 
ATOM     16  C   UNL     1       0.176  10.714  20.675  0.00  0.00    +0.000 A 
BRANCH   8  18
ATOM     17  C   UNL     1       2.161  12.744  19.052  0.00  0.00    +0.000 C 
ATOM     18  C   UNL     1       0.879  12.038  18.641  0.00  0.00    +0.000 C 
ENDBRANCH   8  18
ENDBRANCH   7  10
ENDBRANCH   1   7
BRANCH   4  19
ATOM     19  C   UNL     1       3.995   3.427  18.180  0.00  0.00    +0.000 C 
BRANCH  19  20
ATOM     20  C   UNL     1       5.064   4.049  17.286  0.00  0.00    +0.000 A 
ATOM     21  C   UNL     1       4.776   4.351  15.945  0.00  0.00    +0.000 A 
ATOM     22  C   UNL     1       5.792   4.732  15.067  0.00  0.00    +0.000 A 
ATOM     23  C   UNL     1       7.105   4.841  15.523  0.00  0.00    +0.000 A 
ATOM     24  C   UNL     1       7.395   4.608  16.866  0.00  0.00    +0.000 A 
ATOM     25  C   UNL     1       6.379   4.223  17.747  0.00  0.00    +0.000 A 
ENDBRANCH  19  20
ENDBRANCH   4  19
BRANCH   5  26
ATOM     26  C   UNL     1       1.517   3.184  20.096  0.00  0.00    +0.000 C 
BRANCH  26  27
ATOM     27  C   UNL     1       1.566   2.825  21.581  0.00  0.00    +0.000 C 
BRANCH  27  28
ATOM     28  O   UNL     1       2.896   2.477  21.949  0.00  0.00    +0.000 OA
ATOM     29  H   UNL     1       3.204   3.145  22.588  0.00  0.00    +0.000 HD
ENDBRANCH  27  28
ENDBRANCH  26  27
ENDBRANCH   5  26
TORSDOF 8
ENDMDL
MODEL 2
REMARK VINA RESULT:      -7.7      2.878      9.518
REMARK  Name = 
REMARK  9 active torsions:
REMARK  status: ('A' for Active; 'I' for Inactive)
REMARK    1  A    between atoms: C_1  and  C_2
REMARK    2  A    between atoms: C_2  and  N_3
REMARK    3  A    between atoms: C_5  and  C_6
REMARK    4  A    between atoms: C_6  and  N_7
REMARK    5  A    between atoms: N_10  and  C_11
REMARK    6  A    between atoms: C_11  and  C_12
REMARK    7  A    between atoms: C_18  and  C_19
REMARK    8  A    between atoms: C_19  and  C_20
REMARK    9  A    between atoms: C_20  and  O_21
REMARK                            x       y       z     vdW  Elec       q    Type
REMARK                         _______ _______ _______ _____ _____    ______ ____
ROOT
ATOM      1  N   UNL     1       0.407   8.602  20.463  0.00  0.00    +0.000 NA
ATOM      2  C   UNL     1      -0.465   8.626  21.661  0.00  0.00    +0.000 C 
ATOM      3  C   UNL     1      -0.255   9.793  22.660  0.00  0.00    +0.000 C 
ATOM      4  N   UNL     1      -0.091  11.152  22.078  0.00  0.00    +0.000 NA
ATOM      5  C   UNL     1       0.860  11.045  20.943  0.00  0.00    +0.000 C 
ATOM      6  C   UNL     1       0.441   9.972  19.895  0.00  0.00    +0.000 C 
ENDROOT
BRANCH   1   7
ATOM      7  C   UNL     1       1.785   8.124  20.728  0.00  0.00    +0.000 C 
BRANCH   7  10
ATOM      8  N   UNL     1       2.379   4.591  19.890  0.00  0.00    +0.000 N 
ATOM      9  C   UNL     1       1.650   5.548  20.552  0.00  0.00    +0.000 A 
ATOM     10  C   UNL     1       2.091   6.785  20.137  0.00  0.00    +0.000 A 
ATOM     11  C   UNL     1       2.900   6.543  18.969  0.00  0.00    +0.000 A 
ATOM     12  C   UNL     1       3.529   7.381  18.021  0.00  0.00    +0.000 A 
ATOM     13  C   UNL     1       4.275   6.818  16.979  0.00  0.00    +0.000 A 
ATOM     14  C   UNL     1       4.432   5.440  16.882  0.00  0.00    +0.000 A 
ATOM     15  C   UNL     1       3.841   4.588  17.817  0.00  0.00    +0.000 A 
ATOM     16  C   UNL     1       3.065   5.159  18.842  0.00  0.00    +0.000 A 
BRANCH   8  18
ATOM     17  C   UNL     1       1.818   3.064  21.712  0.00  0.00    +0.000 C 
ATOM     18  C   UNL     1       2.490   3.220  20.356  0.00  0.00    +0.000 C 
ENDBRANCH   8  18
ENDBRANCH   7  10
ENDBRANCH   1   7
BRANCH   4  19
ATOM     19  C   UNL     1      -1.391  11.782  21.760  0.00  0.00    +0.000 C 
BRANCH  19  20
ATOM     20  C   UNL     1      -1.907  12.637  22.915  0.00  0.00    +0.000 A 
ATOM     21  C   UNL     1      -3.182  12.402  23.454  0.00  0.00    +0.000 A 
ATOM     22  C   UNL     1      -3.744  13.295  24.369  0.00  0.00    +0.000 A 
ATOM     23  C   UNL     1      -3.028  14.419  24.776  0.00  0.00    +0.000 A 
ATOM     24  C   UNL     1      -1.735  14.630  24.300  0.00  0.00    +0.000 A 
ATOM     25  C   UNL     1      -1.172  13.739  23.381  0.00  0.00    +0.000 A 
ENDBRANCH  19  20
ENDBRANCH   4  19
BRANCH   5  26
ATOM     26  C   UNL     1       1.323  12.357  20.286  0.00  0.00    +0.000 C 
BRANCH  26  27
ATOM     27  C   UNL     1       1.519  12.181  18.780  0.00  0.00    +0.000 C 
BRANCH  27  28
ATOM     28  O   UNL     1       0.500  12.882  18.076  0.00  0.00    +0.000 OA
ATOM     29  H   UNL     1       0.941  13.533  17.501  0.00  0.00    +0.000 HD
ENDBRANCH  27  28
ENDBRANCH  26  27
ENDBRANCH   5  26
TORSDOF 8
ENDMDL
MODEL 3
REMARK VINA RESULT:      -7.5      2.180      8.486
REMARK  Name = 
REMARK  9 active torsions:
REMARK  status: ('A' for Active; 'I' for Inactive)
REMARK    1  A    between atoms: C_1  and  C_2
REMARK    2  A    between atoms: C_2  and  N_3
REMARK    3  A    between atoms: C_5  and  C_6
REMARK    4  A    between atoms: C_6  and  N_7
REMARK    5  A    between atoms: N_10  and  C_11
REMARK    6  A    between atoms: C_11  and  C_12
REMARK    7  A    between atoms: C_18  and  C_19
REMARK    8  A    between atoms: C_19  and  C_20
REMARK    9  A    between atoms: C_20  and  O_21
REMARK                            x       y       z     vdW  Elec       q    Type
REMARK                         _______ _______ _______ _____ _____    ______ ____
ROOT
ATOM      1  N   UNL     1       1.988   8.805  18.709  0.00  0.00    +0.000 NA
ATOM      2  C   UNL     1       1.347   9.948  18.017  0.00  0.00    +0.000 C 
ATOM      3  C   UNL     1      -0.136  10.240  18.365  0.00  0.00    +0.000 C 
ATOM      4  N   UNL     1      -0.507  10.197  19.804  0.00  0.00    +0.000 NA
ATOM      5  C   UNL     1       0.105   8.979  20.392  0.00  0.00    +0.000 C 
ATOM      6  C   UNL     1       1.641   8.890  20.149  0.00  0.00    +0.000 C 
ENDROOT
BRANCH   1   7
ATOM      7  C   UNL     1       1.602   7.479  18.169  0.00  0.00    +0.000 C 
BRANCH   7  10
ATOM      8  N   UNL     1       4.325   5.005  18.148  0.00  0.00    +0.000 N 
ATOM      9  C   UNL     1       3.855   6.256  17.834  0.00  0.00    +0.000 A 
ATOM     10  C   UNL     1       2.613   6.405  18.411  0.00  0.00    +0.000 A 
ATOM     11  C   UNL     1       2.481   5.315  19.345  0.00  0.00    +0.000 A 
ATOM     12  C   UNL     1       1.518   4.972  20.321  0.00  0.00    +0.000 A 
ATOM     13  C   UNL     1       1.679   3.806  21.079  0.00  0.00    +0.000 A 
ATOM     14  C   UNL     1       2.761   2.962  20.862  0.00  0.00    +0.000 A 
ATOM     15  C   UNL     1       3.717   3.264  19.890  0.00  0.00    +0.000 A 
ATOM     16  C   UNL     1       3.567   4.453  19.155  0.00  0.00    +0.000 A 
BRANCH   8  18
ATOM     17  C   UNL     1       5.332   4.761  15.936  0.00  0.00    +0.000 C 
ATOM     18  C   UNL     1       5.380   4.345  17.399  0.00  0.00    +0.000 C 
ENDBRANCH   8  18
ENDBRANCH   7  10
ENDBRANCH   1   7
BRANCH   4  19
ATOM     19  C   UNL     1      -0.193  11.465  20.498  0.00  0.00    +0.000 C 
BRANCH  19  20
ATOM     20  C   UNL     1      -1.433  12.090  21.131  0.00  0.00    +0.000 A 
ATOM     21  C   UNL     1      -1.564  12.142  22.528  0.00  0.00    +0.000 A 
ATOM     22  C   UNL     1      -2.770  12.528  23.116  0.00  0.00    +0.000 A 
ATOM     23  C   UNL     1      -3.853  12.890  22.316  0.00  0.00    +0.000 A 
ATOM     24  C   UNL     1      -3.716  12.906  20.929  0.00  0.00    +0.000 A 
ATOM     25  C   UNL     1      -2.509  12.518  20.338  0.00  0.00    +0.000 A 
ENDBRANCH  19  20
ENDBRANCH   4  19
BRANCH   5  26
ATOM     26  C   UNL     1      -0.281   8.625  21.838  0.00  0.00    +0.000 C 
BRANCH  26  27
ATOM     27  C   UNL     1       0.839   8.986  22.813  0.00  0.00    +0.000 C 
BRANCH  27  28
ATOM     28  O   UNL     1       0.309   9.736  23.901  0.00  0.00    +0.000 OA
ATOM     29  H   UNL     1       0.281  10.669  23.623  0.00  0.00    +0.000 HD
ENDBRANCH  27  28
ENDBRANCH  26  27
ENDBRANCH   5  26
TORSDOF 8
ENDMDL
MODEL 4
REMARK VINA RESULT:      -7.5      0.608      1.094
REMARK  Name = 
REMARK  9 active torsions:
REMARK  status: ('A' for Active; 'I' for Inactive)
REMARK    1  A    between atoms: C_1  and  C_2
REMARK    2  A    between atoms: C_2  and  N_3
REMARK    3  A    between atoms: C_5  and  C_6
REMARK    4  A    between atoms: C_6  and  N_7
REMARK    5  A    between atoms: N_10  and  C_11
REMARK    6  A    between atoms: C_11  and  C_12
REMARK    7  A    between atoms: C_18  and  C_19
REMARK    8  A    between atoms: C_19  and  C_20
REMARK    9  A    between atoms: C_20  and  O_21
REMARK                            x       y       z     vdW  Elec       q    Type
REMARK                         _______ _______ _______ _____ _____    ______ ____
ROOT
ATOM      1  N   UNL     1       2.102   6.779  18.695  0.00  0.00    +0.000 NA
ATOM      2  C   UNL     1       3.391   6.840  17.966  0.00  0.00    +0.000 C 
ATOM      3  C   UNL     1       4.534   5.927  18.480  0.00  0.00    +0.000 C 
ATOM      4  N   UNL     1       4.168   4.527  18.827  0.00  0.00    +0.000 NA
ATOM      5  C   UNL     1       2.918   4.572  19.625  0.00  0.00    +0.000 C 
ATOM      6  C   UNL     1       1.770   5.351  18.919  0.00  0.00    +0.000 C 
ENDROOT
BRANCH   1   7
ATOM      7  C   UNL     1       2.103   7.511  19.985  0.00  0.00    +0.000 C 
BRANCH   7  10
ATOM      8  N   UNL     1       0.647  10.835  19.378  0.00  0.00    +0.000 N 
ATOM      9  C   UNL     1       1.177   9.665  18.894  0.00  0.00    +0.000 A 
ATOM     10  C   UNL     1       1.349   8.802  19.954  0.00  0.00    +0.000 A 
ATOM     11  C   UNL     1       0.617   9.378  21.053  0.00  0.00    +0.000 A 
ATOM     12  C   UNL     1       0.298   8.937  22.357  0.00  0.00    +0.000 A 
ATOM     13  C   UNL     1      -0.443   9.763  23.211  0.00  0.00    +0.000 A 
ATOM     14  C   UNL     1      -0.843  11.030  22.802  0.00  0.00    +0.000 A 
ATOM     15  C   UNL     1      -0.524  11.501  21.527  0.00  0.00    +0.000 A 
ATOM     16  C   UNL     1       0.192  10.653  20.663  0.00  0.00    +0.000 A 
BRANCH   8  18
ATOM     17  C   UNL     1       2.046  12.781  18.908  0.00  0.00    +0.000 C 
ATOM     18  C   UNL     1       0.715  12.092  18.653  0.00  0.00    +0.000 C 
ENDBRANCH   8  18
ENDBRANCH   7  10
ENDBRANCH   1   7
BRANCH   4  19
ATOM     19  C   UNL     1       4.132   3.650  17.636  0.00  0.00    +0.000 C 
BRANCH  19  20
ATOM     20  C   UNL     1       5.242   3.989  16.645  0.00  0.00    +0.000 A 
ATOM     21  C   UNL     1       6.542   4.257  17.104  0.00  0.00    +0.000 A 
ATOM     22  C   UNL     1       7.514   4.758  16.236  0.00  0.00    +0.000 A 
ATOM     23  C   UNL     1       7.207   4.974  14.893  0.00  0.00    +0.000 A 
ATOM     24  C   UNL     1       5.940   4.650  14.410  0.00  0.00    +0.000 A 
ATOM     25  C   UNL     1       4.964   4.150  15.278  0.00  0.00    +0.000 A 
ENDBRANCH  19  20
ENDBRANCH   4  19
BRANCH   5  26
ATOM     26  C   UNL     1       2.434   3.251  20.249  0.00  0.00    +0.000 C 
BRANCH  26  27
ATOM     27  C   UNL     1       2.269   3.384  21.763  0.00  0.00    +0.000 C 
BRANCH  27  28
ATOM     28  O   UNL     1       1.307   2.443  22.228  0.00  0.00    +0.000 OA
ATOM     29  H   UNL     1       1.775   1.603  22.381  0.00  0.00    +0.000 HD
ENDBRANCH  27  28
ENDBRANCH  26  27
ENDBRANCH   5  26
TORSDOF 8
ENDMDL
MODEL 5
REMARK VINA RESULT:      -7.5      2.144      8.633
REMARK  Name = 
REMARK  9 active torsions:
REMARK  status: ('A' for Active; 'I' for Inactive)
REMARK    1  A    between atoms: C_1  and  C_2
REMARK    2  A    between atoms: C_2  and  N_3
REMARK    3  A    between atoms: C_5  and  C_6
REMARK    4  A    between atoms: C_6  and  N_7
REMARK    5  A    between atoms: N_10  and  C_11
REMARK    6  A    between atoms: C_11  and  C_12
REMARK    7  A    between atoms: C_18  and  C_19
REMARK    8  A    between atoms: C_19  and  C_20
REMARK    9  A    between atoms: C_20  and  O_21
REMARK                            x       y       z     vdW  Elec       q    Type
REMARK                         _______ _______ _______ _____ _____    ______ ____
ROOT
ATOM      1  N   UNL     1       2.220   8.495  18.756  0.00  0.00    +0.000 NA
ATOM      2  C   UNL     1       1.785   9.658  17.948  0.00  0.00    +0.000 C 
ATOM      3  C   UNL     1       0.331  10.156  18.157  0.00  0.00    +0.000 C 
ATOM      4  N   UNL     1      -0.146  10.259  19.562  0.00  0.00    +0.000 NA
ATOM      5  C   UNL     1       0.259   9.018  20.268  0.00  0.00    +0.000 C 
ATOM      6  C   UNL     1       1.783   8.722  20.156  0.00  0.00    +0.000 C 
ENDROOT
BRANCH   1   7
ATOM      7  C   UNL     1       1.706   7.193  18.266  0.00  0.00    +0.000 C 
BRANCH   7  10
ATOM      8  N   UNL     1       4.650   5.108  17.545  0.00  0.00    +0.000 N 
ATOM      9  C   UNL     1       4.113   6.319  17.905  0.00  0.00    +0.000 A 
ATOM     10  C   UNL     1       2.760   6.146  18.099  0.00  0.00    +0.000 A 
ATOM     11  C   UNL     1       2.549   4.721  18.146  0.00  0.00    +0.000 A 
ATOM     12  C   UNL     1       1.432   3.904  18.435  0.00  0.00    +0.000 A 
ATOM     13  C   UNL     1       1.555   2.510  18.381  0.00  0.00    +0.000 A 
ATOM     14  C   UNL     1       2.758   1.917  18.016  0.00  0.00    +0.000 A 
ATOM     15  C   UNL     1       3.873   2.699  17.703  0.00  0.00    +0.000 A 
ATOM     16  C   UNL     1       3.750   4.098  17.791  0.00  0.00    +0.000 A 
BRANCH   8  18
ATOM     17  C   UNL     1       7.062   5.403  17.797  0.00  0.00    +0.000 C 
ATOM     18  C   UNL     1       5.931   4.982  16.871  0.00  0.00    +0.000 C 
ENDBRANCH   8  18
ENDBRANCH   7  10
ENDBRANCH   1   7
BRANCH   4  19
ATOM     19  C   UNL     1       0.278  11.523  20.202  0.00  0.00    +0.000 C 
BRANCH  19  20
ATOM     20  C   UNL     1      -0.862  12.182  20.973  0.00  0.00    +0.000 A 
ATOM     21  C   UNL     1      -0.688  12.548  22.318  0.00  0.00    +0.000 A 
ATOM     22  C   UNL     1      -1.774  12.966  23.088  0.00  0.00    +0.000 A 
ATOM     23  C   UNL     1      -3.044  13.049  22.519  0.00  0.00    +0.000 A 
ATOM     24  C   UNL     1      -3.220  12.751  21.168  0.00  0.00    +0.000 A 
ATOM     25  C   UNL     1      -2.133  12.330  20.395  0.00  0.00    +0.000 A 
ENDBRANCH  19  20
ENDBRANCH   4  19
BRANCH   5  26
ATOM     26  C   UNL     1      -0.274   8.816  21.697  0.00  0.00    +0.000 C 
BRANCH  26  27
ATOM     27  C   UNL     1       0.790   9.164  22.738  0.00  0.00    +0.000 C 
BRANCH  27  28
ATOM     28  O   UNL     1       0.165   9.602  23.939  0.00  0.00    +0.000 OA
ATOM     29  H   UNL     1      -0.634  10.097  23.686  0.00  0.00    +0.000 HD
ENDBRANCH  27  28
ENDBRANCH  26  27
ENDBRANCH   5  26
TORSDOF 8
ENDMDL
MODEL 6
REMARK VINA RESULT:      -7.3      3.100      9.671
REMARK  Name = 
REMARK  9 active torsions:
REMARK  status: ('A' for Active; 'I' for Inactive)
REMARK    1  A    between atoms: C_1  and  C_2
REMARK    2  A    between atoms: C_2  and  N_3
REMARK    3  A    between atoms: C_5  and  C_6
REMARK    4  A    between atoms: C_6  and  N_7
REMARK    5  A    between atoms: N_10  and  C_11
REMARK    6  A    between atoms: C_11  and  C_12
REMARK    7  A    between atoms: C_18  and  C_19
REMARK    8  A    between atoms: C_19  and  C_20
REMARK    9  A    between atoms: C_20  and  O_21
REMARK                            x       y       z     vdW  Elec       q    Type
REMARK                         _______ _______ _______ _____ _____    ______ ____
ROOT
ATOM      1  N   UNL     1       0.022   8.649  20.973  0.00  0.00    +0.000 NA
ATOM      2  C   UNL     1      -0.531   8.922  22.321  0.00  0.00    +0.000 C 
ATOM      3  C   UNL     1      -0.264  10.327  22.920  0.00  0.00    +0.000 C 
ATOM      4  N   UNL     1      -0.449  11.489  22.009  0.00  0.00    +0.000 NA
ATOM      5  C   UNL     1       0.208  11.160  20.720  0.00  0.00    +0.000 C 
ATOM      6  C   UNL     1      -0.284   9.816  20.109  0.00  0.00    +0.000 C 
ENDROOT
BRANCH   1   7
ATOM      7  C   UNL     1       1.479   8.375  20.963  0.00  0.00    +0.000 C 
BRANCH   7  10
ATOM      8  N   UNL     1       2.246   4.834  20.326  0.00  0.00    +0.000 N 
ATOM      9  C   UNL     1       1.487   5.789  20.954  0.00  0.00    +0.000 A 
ATOM     10  C   UNL     1       1.841   7.020  20.445  0.00  0.00    +0.000 A 
ATOM     11  C   UNL     1       2.621   6.747  19.265  0.00  0.00    +0.000 A 
ATOM     12  C   UNL     1       3.167   7.555  18.242  0.00  0.00    +0.000 A 
ATOM     13  C   UNL     1       3.907   6.968  17.209  0.00  0.00    +0.000 A 
ATOM     14  C   UNL     1       4.140   5.598  17.193  0.00  0.00    +0.000 A 
ATOM     15  C   UNL     1       3.632   4.777  18.202  0.00  0.00    +0.000 A 
ATOM     16  C   UNL     1       2.861   5.370  19.218  0.00  0.00    +0.000 A 
BRANCH   8  18
ATOM     17  C   UNL     1       1.394   2.545  20.350  0.00  0.00    +0.000 C 
ATOM     18  C   UNL     1       2.453   3.504  20.872  0.00  0.00    +0.000 C 
ENDBRANCH   8  18
ENDBRANCH   7  10
ENDBRANCH   1   7
BRANCH   4  19
ATOM     19  C   UNL     1      -1.866  11.902  21.914  0.00  0.00    +0.000 C 
BRANCH  19  20
ATOM     20  C   UNL     1      -2.212  12.988  22.930  0.00  0.00    +0.000 A 
ATOM     21  C   UNL     1      -1.246  13.932  23.312  0.00  0.00    +0.000 A 
ATOM     22  C   UNL     1      -1.484  14.802  24.378  0.00  0.00    +0.000 A 
ATOM     23  C   UNL     1      -2.699  14.757  25.059  0.00  0.00    +0.000 A 
ATOM     24  C   UNL     1      -3.692  13.869  24.648  0.00  0.00    +0.000 A 
ATOM     25  C   UNL     1      -3.455  12.995  23.582  0.00  0.00    +0.000 A 
ENDBRANCH  19  20
ENDBRANCH   4  19
BRANCH   5  26
ATOM     26  C   UNL     1       0.300  12.282  19.671  0.00  0.00    +0.000 C 
BRANCH  26  27
ATOM     27  C   UNL     1      -0.549  11.959  18.441  0.00  0.00    +0.000 C 
BRANCH  27  28
ATOM     28  O   UNL     1      -0.888  13.162  17.760  0.00  0.00    +0.000 OA
ATOM     29  H   UNL     1      -0.088  13.715  17.733  0.00  0.00    +0.000 HD
ENDBRANCH  27  28
ENDBRANCH  26  27
ENDBRANCH   5  26
TORSDOF 8
ENDMDL
MODEL 7
REMARK VINA RESULT:      -7.3      2.327      8.589
REMARK  Name = 
REMARK  9 active torsions:
REMARK  status: ('A' for Active; 'I' for Inactive)
REMARK    1  A    between atoms: C_1  and  C_2
REMARK    2  A    between atoms: C_2  and  N_3
REMARK    3  A    between atoms: C_5  and  C_6
REMARK    4  A    between atoms: C_6  and  N_7
REMARK    5  A    between atoms: N_10  and  C_11
REMARK    6  A    between atoms: C_11  and  C_12
REMARK    7  A    between atoms: C_18  and  C_19
REMARK    8  A    between atoms: C_19  and  C_20
REMARK    9  A    between atoms: C_20  and  O_21
REMARK                            x       y       z     vdW  Elec       q    Type
REMARK                         _______ _______ _______ _____ _____    ______ ____
ROOT
ATOM      1  N   UNL     1       1.719   9.841  18.664  0.00  0.00    +0.000 NA
ATOM      2  C   UNL     1       0.885  10.967  18.180  0.00  0.00    +0.000 C 
ATOM      3  C   UNL     1      -0.608  10.968  18.600  0.00  0.00    +0.000 C 
ATOM      4  N   UNL     1      -0.904  10.641  20.021  0.00  0.00    +0.000 NA
ATOM      5  C   UNL     1      -0.092   9.455  20.389  0.00  0.00    +0.000 C 
ATOM      6  C   UNL     1       1.427   9.643  20.105  0.00  0.00    +0.000 C 
ENDROOT
BRANCH   1   7
ATOM      7  C   UNL     1       1.511   8.575  17.922  0.00  0.00    +0.000 C 
BRANCH   7  10
ATOM      8  N   UNL     1       4.378   6.271  17.840  0.00  0.00    +0.000 N 
ATOM      9  C   UNL     1       3.833   7.497  17.553  0.00  0.00    +0.000 A 
ATOM     10  C   UNL     1       2.587   7.559  18.138  0.00  0.00    +0.000 A 
ATOM     11  C   UNL     1       2.526   6.445  19.051  0.00  0.00    +0.000 A 
ATOM     12  C   UNL     1       1.591   6.025  20.024  0.00  0.00    +0.000 A 
ATOM     13  C   UNL     1       1.826   4.856  20.758  0.00  0.00    +0.000 A 
ATOM     14  C   UNL     1       2.956   4.084  20.520  0.00  0.00    +0.000 A 
ATOM     15  C   UNL     1       3.887   4.462  19.549  0.00  0.00    +0.000 A 
ATOM     16  C   UNL     1       3.661   5.655  18.838  0.00  0.00    +0.000 A 
BRANCH   8  18
ATOM     17  C   UNL     1       4.946   4.597  16.154  0.00  0.00    +0.000 C 
ATOM     18  C   UNL     1       5.467   5.691  17.073  0.00  0.00    +0.000 C 
ENDBRANCH   8  18
ENDBRANCH   7  10
ENDBRANCH   1   7
BRANCH   4  19
ATOM     19  C   UNL     1      -0.752  11.816  20.906  0.00  0.00    +0.000 C 
BRANCH  19  20
ATOM     20  C   UNL     1      -2.049  12.150  21.638  0.00  0.00    +0.000 A 
ATOM     21  C   UNL     1      -3.089  12.813  20.966  0.00  0.00    +0.000 A 
ATOM     22  C   UNL     1      -4.194  13.298  21.669  0.00  0.00    +0.000 A 
ATOM     23  C   UNL     1      -4.286  13.105  23.046  0.00  0.00    +0.000 A 
ATOM     24  C   UNL     1      -3.293  12.391  23.715  0.00  0.00    +0.000 A 
ATOM     25  C   UNL     1      -2.184  11.907  23.014  0.00  0.00    +0.000 A 
ENDBRANCH  19  20
ENDBRANCH   4  19
BRANCH   5  26
ATOM     26  C   UNL     1      -0.356   8.820  21.766  0.00  0.00    +0.000 C 
BRANCH  26  27
ATOM     27  C   UNL     1       0.803   9.084  22.727  0.00  0.00    +0.000 C 
BRANCH  27  28
ATOM     28  O   UNL     1       0.320   9.727  23.901  0.00  0.00    +0.000 OA
ATOM     29  H   UNL     1      -0.179  10.513  23.617  0.00  0.00    +0.000 HD
ENDBRANCH  27  28
ENDBRANCH  26  27
ENDBRANCH   5  26
TORSDOF 8
ENDMDL
MODEL 8
REMARK VINA RESULT:      -7.3      2.998      9.549
REMARK  Name = 
REMARK  9 active torsions:
REMARK  status: ('A' for Active; 'I' for Inactive)
REMARK    1  A    between atoms: C_1  and  C_2
REMARK    2  A    between atoms: C_2  and  N_3
REMARK    3  A    between atoms: C_5  and  C_6
REMARK    4  A    between atoms: C_6  and  N_7
REMARK    5  A    between atoms: N_10  and  C_11
REMARK    6  A    between atoms: C_11  and  C_12
REMARK    7  A    between atoms: C_18  and  C_19
REMARK    8  A    between atoms: C_19  and  C_20
REMARK    9  A    between atoms: C_20  and  O_21
REMARK                            x       y       z     vdW  Elec       q    Type
REMARK                         _______ _______ _______ _____ _____    ______ ____
ROOT
ATOM      1  N   UNL     1       0.305   8.495  20.698  0.00  0.00    +0.000 NA
ATOM      2  C   UNL     1      -0.505   8.746  21.914  0.00  0.00    +0.000 C 
ATOM      3  C   UNL     1      -0.226  10.060  22.687  0.00  0.00    +0.000 C 
ATOM      4  N   UNL     1      -0.068  11.295  21.873  0.00  0.00    +0.000 NA
ATOM      5  C   UNL     1       0.824  10.972  20.731  0.00  0.00    +0.000 C 
ATOM      6  C   UNL     1       0.335   9.747  19.903  0.00  0.00    +0.000 C 
ENDROOT
BRANCH   1   7
ATOM      7  C   UNL     1       1.686   8.035  20.978  0.00  0.00    +0.000 C 
BRANCH   7  10
ATOM      8  N   UNL     1       2.401   4.545  20.059  0.00  0.00    +0.000 N 
ATOM      9  C   UNL     1       1.654   5.458  20.760  0.00  0.00    +0.000 A 
ATOM     10  C   UNL     1       2.029   6.720  20.354  0.00  0.00    +0.000 A 
ATOM     11  C   UNL     1       2.811   6.532  19.158  0.00  0.00    +0.000 A 
ATOM     12  C   UNL     1       3.374   7.412  18.206  0.00  0.00    +0.000 A 
ATOM     13  C   UNL     1       4.110   6.898  17.131  0.00  0.00    +0.000 A 
ATOM     14  C   UNL     1       4.321   5.531  17.005  0.00  0.00    +0.000 A 
ATOM     15  C   UNL     1       3.796   4.638  17.942  0.00  0.00    +0.000 A 
ATOM     16  C   UNL     1       3.030   5.159  19.001  0.00  0.00    +0.000 A 
BRANCH   8  18
ATOM     17  C   UNL     1       1.537   2.801  21.534  0.00  0.00    +0.000 C 
ATOM     18  C   UNL     1       2.585   3.172  20.497  0.00  0.00    +0.000 C 
ENDBRANCH   8  18
ENDBRANCH   7  10
ENDBRANCH   1   7
BRANCH   4  19
ATOM     19  C   UNL     1      -1.371  11.895  21.512  0.00  0.00    +0.000 C 
BRANCH  19  20
ATOM     20  C   UNL     1      -1.849  12.893  22.563  0.00  0.00    +0.000 A 
ATOM     21  C   UNL     1      -0.973  13.871  23.060  0.00  0.00    +0.000 A 
ATOM     22  C   UNL     1      -1.332  14.658  24.156  0.00  0.00    +0.000 A 
ATOM     23  C   UNL     1      -2.580  14.495  24.754  0.00  0.00    +0.000 A 
ATOM     24  C   UNL     1      -3.486  13.573  24.230  0.00  0.00    +0.000 A 
ATOM     25  C   UNL     1      -3.127  12.782  23.134  0.00  0.00    +0.000 A 
ENDBRANCH  19  20
ENDBRANCH   4  19
BRANCH   5  26
ATOM     26  C   UNL     1       1.277  12.141  19.839  0.00  0.00    +0.000 C 
BRANCH  26  27
ATOM     27  C   UNL     1       2.015  13.203  20.654  0.00  0.00    +0.000 C 
BRANCH  27  28
ATOM     28  O   UNL     1       1.347  14.454  20.532  0.00  0.00    +0.000 OA
ATOM     29  H   UNL     1       1.071  14.546  19.602  0.00  0.00    +0.000 HD
ENDBRANCH  27  28
ENDBRANCH  26  27
ENDBRANCH   5  26
TORSDOF 8
ENDMDL
MODEL 9
REMARK VINA RESULT:      -7.2      2.850      9.157
REMARK  Name = 
REMARK  9 active torsions:
REMARK  status: ('A' for Active; 'I' for Inactive)
REMARK    1  A    between atoms: C_1  and  C_2
REMARK    2  A    between atoms: C_2  and  N_3
REMARK    3  A    between atoms: C_5  and  C_6
REMARK    4  A    between atoms: C_6  and  N_7
REMARK    5  A    between atoms: N_10  and  C_11
REMARK    6  A    between atoms: C_11  and  C_12
REMARK    7  A    between atoms: C_18  and  C_19
REMARK    8  A    between atoms: C_19  and  C_20
REMARK    9  A    between atoms: C_20  and  O_21
REMARK                            x       y       z     vdW  Elec       q    Type
REMARK                         _______ _______ _______ _____ _____    ______ ____
ROOT
ATOM      1  N   UNL     1       0.384   8.289  20.743  0.00  0.00    +0.000 NA
ATOM      2  C   UNL     1      -0.520   8.435  21.908  0.00  0.00    +0.000 C 
ATOM      3  C   UNL     1      -0.290   9.663  22.827  0.00  0.00    +0.000 C 
ATOM      4  N   UNL     1      -0.052  10.968  22.154  0.00  0.00    +0.000 NA
ATOM      5  C   UNL     1       0.925  10.741  21.061  0.00  0.00    +0.000 C 
ATOM      6  C   UNL     1       0.492   9.612  20.080  0.00  0.00    +0.000 C 
ENDROOT
BRANCH   1   7
ATOM      7  C   UNL     1       1.733   7.778  21.085  0.00  0.00    +0.000 C 
BRANCH   7  10
ATOM      8  N   UNL     1       3.338   6.015  18.283  0.00  0.00    +0.000 N 
ATOM      9  C   UNL     1       3.326   7.052  19.183  0.00  0.00    +0.000 A 
ATOM     10  C   UNL     1       2.301   6.832  20.076  0.00  0.00    +0.000 A 
ATOM     11  C   UNL     1       1.887   5.467  19.871  0.00  0.00    +0.000 A 
ATOM     12  C   UNL     1       0.985   4.605  20.536  0.00  0.00    +0.000 A 
ATOM     13  C   UNL     1       0.794   3.300  20.067  0.00  0.00    +0.000 A 
ATOM     14  C   UNL     1       1.459   2.848  18.934  0.00  0.00    +0.000 A 
ATOM     15  C   UNL     1       2.340   3.684  18.244  0.00  0.00    +0.000 A 
ATOM     16  C   UNL     1       2.552   4.983  18.739  0.00  0.00    +0.000 A 
BRANCH   8  18
ATOM     17  C   UNL     1       5.357   6.743  17.118  0.00  0.00    +0.000 C 
ATOM     18  C   UNL     1       3.984   6.103  16.985  0.00  0.00    +0.000 C 
ENDBRANCH   8  18
ENDBRANCH   7  10
ENDBRANCH   1   7
BRANCH   4  19
ATOM     19  C   UNL     1      -1.315  11.625  21.751  0.00  0.00    +0.000 C 
BRANCH  19  20
ATOM     20  C   UNL     1      -1.881  12.503  22.864  0.00  0.00    +0.000 A 
ATOM     21  C   UNL     1      -3.150  12.233  23.402  0.00  0.00    +0.000 A 
ATOM     22  C   UNL     1      -3.761  13.136  24.274  0.00  0.00    +0.000 A 
ATOM     23  C   UNL     1      -3.101  14.309  24.638  0.00  0.00    +0.000 A 
ATOM     24  C   UNL     1      -1.814  14.559  24.163  0.00  0.00    +0.000 A 
ATOM     25  C   UNL     1      -1.202  13.656  23.288  0.00  0.00    +0.000 A 
ENDBRANCH  19  20
ENDBRANCH   4  19
BRANCH   5  26
ATOM     26  C   UNL     1       1.462  11.982  20.327  0.00  0.00    +0.000 C 
BRANCH  26  27
ATOM     27  C   UNL     1       1.481  11.763  18.814  0.00  0.00    +0.000 C 
BRANCH  27  28
ATOM     28  O   UNL     1       0.474  12.559  18.199  0.00  0.00    +0.000 OA
ATOM     29  H   UNL     1       0.235  13.262  18.828  0.00  0.00    +0.000 HD
ENDBRANCH  27  28
ENDBRANCH  26  27
ENDBRANCH   5  26
TORSDOF 8
ENDMDL
