MODEL 1
REMARK VINA RESULT:      -6.6      0.000      0.000
REMARK  Name = 
REMARK  11 active torsions:
REMARK  status: ('A' for Active; 'I' for Inactive)
REMARK    1  A    between atoms: C_1  and  C_2
REMARK    2  A    between atoms: C_2  and  C_3
REMARK    3  A    between atoms: C_4  and  C_5
REMARK    4  A    between atoms: C_5  and  C_6
REMARK    5  A    between atoms: C_6  and  C_7
REMARK    6  A    between atoms: C_7  and  C_8
REMARK    7  A    between atoms: C_7  and  C_9
REMARK    8  A    between atoms: C_9  and  C_10
REMARK    9  A    between atoms: C_10  and  O_11
REMARK   10  A    between atoms: O_11  and  C_12
REMARK   11  A    between atoms: C_14  and  C_15
REMARK                            x       y       z     vdW  Elec       q    Type
REMARK                         _______ _______ _______ _____ _____    ______ ____
ROOT
ATOM      1  C   UNL     1       4.948   3.835  19.078  0.00  0.00    +0.000 C 
ENDROOT
BRANCH   1   2
ATOM      2  C   UNL     1       3.538   4.093  18.507  0.00  0.00    +0.000 C 
ATOM      3  C   UNL     1       3.449   3.701  17.026  0.00  0.00    +0.000 C 
BRANCH   2   4
ATOM      4  C   UNL     1       3.127   5.567  18.727  0.00  0.00    +0.000 C 
BRANCH   4   5
ATOM      5  C   UNL     1       2.030   5.703  19.790  0.00  0.00    +0.000 C 
BRANCH   5   9
ATOM      6  C   UNL     1       1.439   2.539  21.987  0.00  0.00    +0.000 C 
ATOM      7  C   UNL     1       1.391   3.469  20.808  0.00  0.00    +0.000 C 
ATOM      8  C   UNL     1       0.536   3.062  19.642  0.00  0.00    +0.000 C 
ATOM      9  C   UNL     1       2.079   4.630  20.838  0.00  0.00    +0.000 C 
ENDBRANCH   5   9
ENDBRANCH   4   5
ENDBRANCH   2   4
ENDBRANCH   1   2
BRANCH   1  10
ATOM     10  C   UNL     1       5.732   5.127  19.295  0.00  0.00    +0.000 C 
BRANCH  10  11
ATOM     11  O   UNL     1       7.116   4.907  19.029  0.00  0.00    +0.000 OA
BRANCH  11  12
ATOM     12  C   UNL     1       7.504   5.584  17.839  0.00  0.00    +0.000 C 
ATOM     13  C   UNL     1       7.554   4.597  16.747  0.00  0.00    +0.000 C 
ATOM     14  C   UNL     1       6.671   4.898  15.798  0.00  0.00    +0.000 C 
ATOM     15  C   UNL     1       6.340   4.213  14.535  0.00  0.00    +0.000 C 
ATOM     16  C   UNL     1       6.008   6.131  16.233  0.00  0.00    +0.000 C 
ATOM     17  O   UNL     1       5.139   6.718  15.612  0.00  0.00    +0.000 OA
ATOM     18  O   UNL     1       6.534   6.533  17.418  0.00  0.00    +0.000 OA
ENDBRANCH  11  12
ENDBRANCH  10  11
ENDBRANCH   1  10
TORSDOF 7
ENDMDL
MODEL 2
REMARK VINA RESULT:      -6.6      3.105      6.969
REMARK  Name = 
REMARK  11 active torsions:
REMARK  status: ('A' for Active; 'I' for Inactive)
REMARK    1  A    between atoms: C_1  and  C_2
REMARK    2  A    between atoms: C_2  and  C_3
REMARK    3  A    between atoms: C_4  and  C_5
REMARK    4  A    between atoms: C_5  and  C_6
REMARK    5  A    between atoms: C_6  and  C_7
REMARK    6  A    between atoms: C_7  and  C_8
REMARK    7  A    between atoms: C_7  and  C_9
REMARK    8  A    between atoms: C_9  and  C_10
REMARK    9  A    between atoms: C_10  and  O_11
REMARK   10  A    between atoms: O_11  and  C_12
REMARK   11  A    between atoms: C_14  and  C_15
REMARK                            x       y       z     vdW  Elec       q    Type
REMARK                         _______ _______ _______ _____ _____    ______ ____
ROOT
ATOM      1  C   UNL     1       5.764   3.980  16.330  0.00  0.00    +0.000 C 
ENDROOT
BRANCH   1   2
ATOM      2  C   UNL     1       6.362   5.239  15.668  0.00  0.00    +0.000 C 
ATOM      3  C   UNL     1       5.342   6.384  15.609  0.00  0.00    +0.000 C 
BRANCH   2   4
ATOM      4  C   UNL     1       6.913   4.901  14.263  0.00  0.00    +0.000 C 
BRANCH   4   5
ATOM      5  C   UNL     1       5.822   4.349  13.338  0.00  0.00    +0.000 C 
BRANCH   5   9
ATOM      6  C   UNL     1       6.017   1.209  11.038  0.00  0.00    +0.000 C 
ATOM      7  C   UNL     1       5.510   2.487  11.643  0.00  0.00    +0.000 C 
ATOM      8  C   UNL     1       4.160   2.973  11.199  0.00  0.00    +0.000 C 
ATOM      9  C   UNL     1       6.252   3.135  12.566  0.00  0.00    +0.000 C 
ENDBRANCH   5   9
ENDBRANCH   4   5
ENDBRANCH   2   4
ENDBRANCH   1   2
BRANCH   1  10
ATOM     10  C   UNL     1       5.142   4.279  17.692  0.00  0.00    +0.000 C 
BRANCH  10  11
ATOM     11  O   UNL     1       3.727   4.121  17.626  0.00  0.00    +0.000 OA
BRANCH  11  12
ATOM     12  C   UNL     1       3.347   2.853  18.149  0.00  0.00    +0.000 C 
ATOM     13  C   UNL     1       3.270   2.966  19.615  0.00  0.00    +0.000 C 
ATOM     14  C   UNL     1       2.033   2.732  20.042  0.00  0.00    +0.000 C 
ATOM     15  C   UNL     1       1.462   2.745  21.402  0.00  0.00    +0.000 C 
ATOM     16  C   UNL     1       1.238   2.432  18.848  0.00  0.00    +0.000 C 
ATOM     17  O   UNL     1       0.051   2.157  18.845  0.00  0.00    +0.000 OA
ATOM     18  O   UNL     1       2.035   2.477  17.752  0.00  0.00    +0.000 OA
ENDBRANCH  11  12
ENDBRANCH  10  11
ENDBRANCH   1  10
TORSDOF 7
ENDMDL
MODEL 3
REMARK VINA RESULT:      -6.4      2.671      6.911
REMARK  Name = 
REMARK  11 active torsions:
REMARK  status: ('A' for Active; 'I' for Inactive)
REMARK    1  A    between atoms: C_1  and  C_2
REMARK    2  A    between atoms: C_2  and  C_3
REMARK    3  A    between atoms: C_4  and  C_5
REMARK    4  A    between atoms: C_5  and  C_6
REMARK    5  A    between atoms: C_6  and  C_7
REMARK    6  A    between atoms: C_7  and  C_8
REMARK    7  A    between atoms: C_7  and  C_9
REMARK    8  A    between atoms: C_9  and  C_10
REMARK    9  A    between atoms: C_10  and  O_11
REMARK   10  A    between atoms: O_11  and  C_12
REMARK   11  A    between atoms: C_14  and  C_15
REMARK                            x       y       z     vdW  Elec       q    Type
REMARK                         _______ _______ _______ _____ _____    ______ ____
ROOT
ATOM      1  C   UNL     1       4.594   3.729  16.257  0.00  0.00    +0.000 C 
ENDROOT
BRANCH   1   2
ATOM      2  C   UNL     1       6.028   4.241  16.506  0.00  0.00    +0.000 C 
ATOM      3  C   UNL     1       6.076   5.242  17.668  0.00  0.00    +0.000 C 
BRANCH   2   4
ATOM      4  C   UNL     1       6.617   4.849  15.212  0.00  0.00    +0.000 C 
BRANCH   4   5
ATOM      5  C   UNL     1       5.744   4.545  13.988  0.00  0.00    +0.000 C 
BRANCH   5   9
ATOM      6  C   UNL     1       6.426   1.874  11.234  0.00  0.00    +0.000 C 
ATOM      7  C   UNL     1       5.729   2.952  12.015  0.00  0.00    +0.000 C 
ATOM      8  C   UNL     1       4.324   3.298  11.610  0.00  0.00    +0.000 C 
ATOM      9  C   UNL     1       6.357   3.546  13.051  0.00  0.00    +0.000 C 
ENDBRANCH   5   9
ENDBRANCH   4   5
ENDBRANCH   2   4
ENDBRANCH   1   2
BRANCH   1  10
ATOM     10  C   UNL     1       3.652   4.052  17.416  0.00  0.00    +0.000 C 
BRANCH  10  11
ATOM     11  O   UNL     1       2.508   3.203  17.363  0.00  0.00    +0.000 OA
BRANCH  11  12
ATOM     12  C   UNL     1       1.465   3.730  18.175  0.00  0.00    +0.000 C 
ATOM     13  C   UNL     1       1.156   2.744  19.223  0.00  0.00    +0.000 C 
ATOM     14  C   UNL     1       1.400   3.247  20.430  0.00  0.00    +0.000 C 
ATOM     15  C   UNL     1       1.266   2.648  21.771  0.00  0.00    +0.000 C 
ATOM     16  C   UNL     1       1.869   4.618  20.214  0.00  0.00    +0.000 C 
ATOM     17  O   UNL     1       2.183   5.400  21.095  0.00  0.00    +0.000 OA
ATOM     18  O   UNL     1       1.869   4.892  18.885  0.00  0.00    +0.000 OA
ENDBRANCH  11  12
ENDBRANCH  10  11
ENDBRANCH   1  10
TORSDOF 7
ENDMDL
MODEL 4
REMARK VINA RESULT:      -6.4      1.737      2.549
REMARK  Name = 
REMARK  11 active torsions:
REMARK  status: ('A' for Active; 'I' for Inactive)
REMARK    1  A    between atoms: C_1  and  C_2
REMARK    2  A    between atoms: C_2  and  C_3
REMARK    3  A    between atoms: C_4  and  C_5
REMARK    4  A    between atoms: C_5  and  C_6
REMARK    5  A    between atoms: C_6  and  C_7
REMARK    6  A    between atoms: C_7  and  C_8
REMARK    7  A    between atoms: C_7  and  C_9
REMARK    8  A    between atoms: C_9  and  C_10
REMARK    9  A    between atoms: C_10  and  O_11
REMARK   10  A    between atoms: O_11  and  C_12
REMARK   11  A    between atoms: C_14  and  C_15
REMARK                            x       y       z     vdW  Elec       q    Type
REMARK                         _______ _______ _______ _____ _____    ______ ____
ROOT
ATOM      1  C   UNL     1       4.422   4.621  17.882  0.00  0.00    +0.000 C 
ENDROOT
BRANCH   1   2
ATOM      2  C   UNL     1       3.128   5.403  17.574  0.00  0.00    +0.000 C 
ATOM      3  C   UNL     1       3.136   6.789  18.232  0.00  0.00    +0.000 C 
BRANCH   2   4
ATOM      4  C   UNL     1       1.887   4.583  17.998  0.00  0.00    +0.000 C 
BRANCH   4   5
ATOM      5  C   UNL     1       2.240   3.119  18.287  0.00  0.00    +0.000 C 
BRANCH   5   9
ATOM      6  C   UNL     1       1.175   2.415  21.969  0.00  0.00    +0.000 C 
ATOM      7  C   UNL     1       1.759   3.120  20.777  0.00  0.00    +0.000 C 
ATOM      8  C   UNL     1       2.516   4.392  21.031  0.00  0.00    +0.000 C 
ATOM      9  C   UNL     1       1.613   2.590  19.544  0.00  0.00    +0.000 C 
ENDBRANCH   5   9
ENDBRANCH   4   5
ENDBRANCH   2   4
ENDBRANCH   1   2
BRANCH   1  10
ATOM     10  C   UNL     1       5.676   5.470  17.682  0.00  0.00    +0.000 C 
BRANCH  10  11
ATOM     11  O   UNL     1       5.848   5.766  16.298  0.00  0.00    +0.000 OA
BRANCH  11  12
ATOM     12  C   UNL     1       6.766   4.852  15.709  0.00  0.00    +0.000 C 
ATOM     13  C   UNL     1       6.003   3.909  14.875  0.00  0.00    +0.000 C 
ATOM     14  C   UNL     1       6.363   4.010  13.598  0.00  0.00    +0.000 C 
ATOM     15  C   UNL     1       5.880   3.300  12.399  0.00  0.00    +0.000 C 
ATOM     16  C   UNL     1       7.412   5.032  13.549  0.00  0.00    +0.000 C 
ATOM     17  O   UNL     1       7.995   5.393  12.542  0.00  0.00    +0.000 OA
ATOM     18  O   UNL     1       7.656   5.490  14.803  0.00  0.00    +0.000 OA
ENDBRANCH  11  12
ENDBRANCH  10  11
ENDBRANCH   1  10
TORSDOF 7
ENDMDL
MODEL 5
REMARK VINA RESULT:      -6.4      2.630      6.793
REMARK  Name = 
REMARK  11 active torsions:
REMARK  status: ('A' for Active; 'I' for Inactive)
REMARK    1  A    between atoms: C_1  and  C_2
REMARK    2  A    between atoms: C_2  and  C_3
REMARK    3  A    between atoms: C_4  and  C_5
REMARK    4  A    between atoms: C_5  and  C_6
REMARK    5  A    between atoms: C_6  and  C_7
REMARK    6  A    between atoms: C_7  and  C_8
REMARK    7  A    between atoms: C_7  and  C_9
REMARK    8  A    between atoms: C_9  and  C_10
REMARK    9  A    between atoms: C_10  and  O_11
REMARK   10  A    between atoms: O_11  and  C_12
REMARK   11  A    between atoms: C_14  and  C_15
REMARK                            x       y       z     vdW  Elec       q    Type
REMARK                         _______ _______ _______ _____ _____    ______ ____
ROOT
ATOM      1  C   UNL     1       4.627   4.319  16.987  0.00  0.00    +0.000 C 
ENDROOT
BRANCH   1   2
ATOM      2  C   UNL     1       5.714   5.205  16.344  0.00  0.00    +0.000 C 
ATOM      3  C   UNL     1       5.121   6.500  15.773  0.00  0.00    +0.000 C 
BRANCH   2   4
ATOM      4  C   UNL     1       6.488   4.413  15.264  0.00  0.00    +0.000 C 
BRANCH   4   5
ATOM      5  C   UNL     1       5.698   4.312  13.953  0.00  0.00    +0.000 C 
BRANCH   5   9
ATOM      6  C   UNL     1       6.247   1.700  11.114  0.00  0.00    +0.000 C 
ATOM      7  C   UNL     1       5.619   2.806  11.914  0.00  0.00    +0.000 C 
ATOM      8  C   UNL     1       4.271   3.298  11.471  0.00  0.00    +0.000 C 
ATOM      9  C   UNL     1       6.255   3.297  12.998  0.00  0.00    +0.000 C 
ENDBRANCH   5   9
ENDBRANCH   4   5
ENDBRANCH   2   4
ENDBRANCH   1   2
BRANCH   1  10
ATOM     10  C   UNL     1       3.495   5.141  17.600  0.00  0.00    +0.000 C 
BRANCH  10  11
ATOM     11  O   UNL     1       3.827   5.505  18.938  0.00  0.00    +0.000 OA
BRANCH  11  12
ATOM     12  C   UNL     1       2.687   5.379  19.782  0.00  0.00    +0.000 C 
ATOM     13  C   UNL     1       1.692   4.545  19.086  0.00  0.00    +0.000 C 
ATOM     14  C   UNL     1       1.452   3.429  19.769  0.00  0.00    +0.000 C 
ATOM     15  C   UNL     1       0.562   2.291  19.477  0.00  0.00    +0.000 C 
ATOM     16  C   UNL     1       2.284   3.500  20.974  0.00  0.00    +0.000 C 
ATOM     17  O   UNL     1       2.325   2.654  21.850  0.00  0.00    +0.000 OA
ATOM     18  O   UNL     1       2.976   4.667  20.976  0.00  0.00    +0.000 OA
ENDBRANCH  11  12
ENDBRANCH  10  11
ENDBRANCH   1  10
TORSDOF 7
ENDMDL
MODEL 6
REMARK VINA RESULT:      -6.4      2.188      6.556
REMARK  Name = 
REMARK  11 active torsions:
REMARK  status: ('A' for Active; 'I' for Inactive)
REMARK    1  A    between atoms: C_1  and  C_2
REMARK    2  A    between atoms: C_2  and  C_3
REMARK    3  A    between atoms: C_4  and  C_5
REMARK    4  A    between atoms: C_5  and  C_6
REMARK    5  A    between atoms: C_6  and  C_7
REMARK    6  A    between atoms: C_7  and  C_8
REMARK    7  A    between atoms: C_7  and  C_9
REMARK    8  A    between atoms: C_9  and  C_10
REMARK    9  A    between atoms: C_10  and  O_11
REMARK   10  A    between atoms: O_11  and  C_12
REMARK   11  A    between atoms: C_14  and  C_15
REMARK                            x       y       z     vdW  Elec       q    Type
REMARK                         _______ _______ _______ _____ _____    ______ ____
ROOT
ATOM      1  C   UNL     1       5.942   6.347  17.050  0.00  0.00    +0.000 C 
ENDROOT
BRANCH   1   2
ATOM      2  C   UNL     1       6.407   5.000  16.459  0.00  0.00    +0.000 C 
ATOM      3  C   UNL     1       7.625   4.445  17.210  0.00  0.00    +0.000 C 
BRANCH   2   4
ATOM      4  C   UNL     1       6.694   5.144  14.946  0.00  0.00    +0.000 C 
BRANCH   4   5
ATOM      5  C   UNL     1       5.662   4.393  14.094  0.00  0.00    +0.000 C 
BRANCH   5   9
ATOM      6  C   UNL     1       6.369   1.867  11.213  0.00  0.00    +0.000 C 
ATOM      7  C   UNL     1       5.680   2.927  12.025  0.00  0.00    +0.000 C 
ATOM      8  C   UNL     1       4.318   3.367  11.571  0.00  0.00    +0.000 C 
ATOM      9  C   UNL     1       6.278   3.424  13.128  0.00  0.00    +0.000 C 
ENDBRANCH   5   9
ENDBRANCH   4   5
ENDBRANCH   2   4
ENDBRANCH   1   2
BRANCH   1  10
ATOM     10  C   UNL     1       4.446   6.583  16.852  0.00  0.00    +0.000 C 
BRANCH  10  11
ATOM     11  O   UNL     1       3.708   5.467  17.345  0.00  0.00    +0.000 OA
BRANCH  11  12
ATOM     12  C   UNL     1       3.730   5.450  18.768  0.00  0.00    +0.000 C 
ATOM     13  C   UNL     1       2.341   5.351  19.246  0.00  0.00    +0.000 C 
ATOM     14  C   UNL     1       2.157   4.226  19.932  0.00  0.00    +0.000 C 
ATOM     15  C   UNL     1       0.953   3.678  20.584  0.00  0.00    +0.000 C 
ATOM     16  C   UNL     1       3.452   3.539  19.945  0.00  0.00    +0.000 C 
ATOM     17  O   UNL     1       3.677   2.473  20.490  0.00  0.00    +0.000 OA
ATOM     18  O   UNL     1       4.368   4.291  19.284  0.00  0.00    +0.000 OA
ENDBRANCH  11  12
ENDBRANCH  10  11
ENDBRANCH   1  10
TORSDOF 7
ENDMDL
MODEL 7
REMARK VINA RESULT:      -6.4      2.561      6.487
REMARK  Name = 
REMARK  11 active torsions:
REMARK  status: ('A' for Active; 'I' for Inactive)
REMARK    1  A    between atoms: C_1  and  C_2
REMARK    2  A    between atoms: C_2  and  C_3
REMARK    3  A    between atoms: C_4  and  C_5
REMARK    4  A    between atoms: C_5  and  C_6
REMARK    5  A    between atoms: C_6  and  C_7
REMARK    6  A    between atoms: C_7  and  C_8
REMARK    7  A    between atoms: C_7  and  C_9
REMARK    8  A    between atoms: C_9  and  C_10
REMARK    9  A    between atoms: C_10  and  O_11
REMARK   10  A    between atoms: O_11  and  C_12
REMARK   11  A    between atoms: C_14  and  C_15
REMARK                            x       y       z     vdW  Elec       q    Type
REMARK                         _______ _______ _______ _____ _____    ______ ____
ROOT
ATOM      1  C   UNL     1       6.681   4.968  18.319  0.00  0.00    +0.000 C 
ENDROOT
BRANCH   1   2
ATOM      2  C   UNL     1       6.938   5.805  17.050  0.00  0.00    +0.000 C 
ATOM      3  C   UNL     1       5.854   6.873  16.849  0.00  0.00    +0.000 C 
BRANCH   2   4
ATOM      4  C   UNL     1       7.061   4.886  15.811  0.00  0.00    +0.000 C 
BRANCH   4   5
ATOM      5  C   UNL     1       5.959   5.164  14.781  0.00  0.00    +0.000 C 
BRANCH   5   9
ATOM      6  C   UNL     1       5.727   2.563  11.889  0.00  0.00    +0.000 C 
ATOM      7  C   UNL     1       6.224   3.713  12.718  0.00  0.00    +0.000 C 
ATOM      8  C   UNL     1       7.344   4.538  12.151  0.00  0.00    +0.000 C 
ATOM      9  C   UNL     1       5.648   3.984  13.907  0.00  0.00    +0.000 C 
ENDBRANCH   5   9
ENDBRANCH   4   5
ENDBRANCH   2   4
ENDBRANCH   1   2
BRANCH   1  10
ATOM     10  C   UNL     1       5.192   4.778  18.600  0.00  0.00    +0.000 C 
BRANCH  10  11
ATOM     11  O   UNL     1       4.714   3.617  17.925  0.00  0.00    +0.000 OA
BRANCH  11  12
ATOM     12  C   UNL     1       3.959   2.803  18.816  0.00  0.00    +0.000 C 
ATOM     13  C   UNL     1       3.328   3.682  19.816  0.00  0.00    +0.000 C 
ATOM     14  C   UNL     1       2.003   3.610  19.738  0.00  0.00    +0.000 C 
ATOM     15  C   UNL     1       0.951   4.305  20.503  0.00  0.00    +0.000 C 
ATOM     16  C   UNL     1       1.707   2.646  18.674  0.00  0.00    +0.000 C 
ATOM     17  O   UNL     1       0.591   2.311  18.319  0.00  0.00    +0.000 OA
ATOM     18  O   UNL     1       2.870   2.161  18.169  0.00  0.00    +0.000 OA
ENDBRANCH  11  12
ENDBRANCH  10  11
ENDBRANCH   1  10
TORSDOF 7
ENDMDL
MODEL 8
REMARK VINA RESULT:      -6.4      1.891      3.765
REMARK  Name = 
REMARK  11 active torsions:
REMARK  status: ('A' for Active; 'I' for Inactive)
REMARK    1  A    between atoms: C_1  and  C_2
REMARK    2  A    between atoms: C_2  and  C_3
REMARK    3  A    between atoms: C_4  and  C_5
REMARK    4  A    between atoms: C_5  and  C_6
REMARK    5  A    between atoms: C_6  and  C_7
REMARK    6  A    between atoms: C_7  and  C_8
REMARK    7  A    between atoms: C_7  and  C_9
REMARK    8  A    between atoms: C_9  and  C_10
REMARK    9  A    between atoms: C_10  and  O_11
REMARK   10  A    between atoms: O_11  and  C_12
REMARK   11  A    between atoms: C_14  and  C_15
REMARK                            x       y       z     vdW  Elec       q    Type
REMARK                         _______ _______ _______ _____ _____    ______ ____
ROOT
ATOM      1  C   UNL     1       2.779   2.975  20.435  0.00  0.00    +0.000 C 
ENDROOT
BRANCH   1   2
ATOM      2  C   UNL     1       1.250   3.173  20.401  0.00  0.00    +0.000 C 
ATOM      3  C   UNL     1       0.620   2.492  19.178  0.00  0.00    +0.000 C 
BRANCH   2   4
ATOM      4  C   UNL     1       0.898   4.678  20.453  0.00  0.00    +0.000 C 
BRANCH   4   5
ATOM      5  C   UNL     1       2.140   5.548  20.682  0.00  0.00    +0.000 C 
BRANCH   5   9
ATOM      6  C   UNL     1       2.574   8.238  17.895  0.00  0.00    +0.000 C 
ATOM      7  C   UNL     1       2.198   7.613  19.209  0.00  0.00    +0.000 C 
ATOM      8  C   UNL     1       1.408   8.452  20.172  0.00  0.00    +0.000 C 
ATOM      9  C   UNL     1       2.548   6.336  19.471  0.00  0.00    +0.000 C 
ENDBRANCH   5   9
ENDBRANCH   4   5
ENDBRANCH   2   4
ENDBRANCH   1   2
BRANCH   1  10
ATOM     10  C   UNL     1       3.329   2.468  19.103  0.00  0.00    +0.000 C 
BRANCH  10  11
ATOM     11  O   UNL     1       3.565   3.566  18.225  0.00  0.00    +0.000 OA
BRANCH  11  12
ATOM     12  C   UNL     1       4.952   3.665  17.919  0.00  0.00    +0.000 C 
ATOM     13  C   UNL     1       5.161   4.889  17.127  0.00  0.00    +0.000 C 
ATOM     14  C   UNL     1       5.957   5.737  17.772  0.00  0.00    +0.000 C 
ATOM     15  C   UNL     1       6.437   7.082  17.402  0.00  0.00    +0.000 C 
ATOM     16  C   UNL     1       6.323   5.080  19.029  0.00  0.00    +0.000 C 
ATOM     17  O   UNL     1       7.053   5.552  19.883  0.00  0.00    +0.000 OA
ATOM     18  O   UNL     1       5.748   3.852  19.081  0.00  0.00    +0.000 OA
ENDBRANCH  11  12
ENDBRANCH  10  11
ENDBRANCH   1  10
TORSDOF 7
ENDMDL
MODEL 9
REMARK VINA RESULT:      -6.3      2.539      6.531
REMARK  Name = 
REMARK  11 active torsions:
REMARK  status: ('A' for Active; 'I' for Inactive)
REMARK    1  A    between atoms: C_1  and  C_2
REMARK    2  A    between atoms: C_2  and  C_3
REMARK    3  A    between atoms: C_4  and  C_5
REMARK    4  A    between atoms: C_5  and  C_6
REMARK    5  A    between atoms: C_6  and  C_7
REMARK    6  A    between atoms: C_7  and  C_8
REMARK    7  A    between atoms: C_7  and  C_9
REMARK    8  A    between atoms: C_9  and  C_10
REMARK    9  A    between atoms: C_10  and  O_11
REMARK   10  A    between atoms: O_11  and  C_12
REMARK   11  A    between atoms: C_14  and  C_15
REMARK                            x       y       z     vdW  Elec       q    Type
REMARK                         _______ _______ _______ _____ _____    ______ ____
ROOT
ATOM      1  C   UNL     1       6.357   4.892  18.193  0.00  0.00    +0.000 C 
ENDROOT
BRANCH   1   2
ATOM      2  C   UNL     1       6.612   5.273  16.720  0.00  0.00    +0.000 C 
ATOM      3  C   UNL     1       5.780   6.493  16.300  0.00  0.00    +0.000 C 
BRANCH   2   4
ATOM      4  C   UNL     1       6.346   4.063  15.794  0.00  0.00    +0.000 C 
BRANCH   4   5
ATOM      5  C   UNL     1       6.561   4.414  14.317  0.00  0.00    +0.000 C 
BRANCH   5   9
ATOM      6  C   UNL     1       4.313   3.141  11.400  0.00  0.00    +0.000 C 
ATOM      7  C   UNL     1       5.536   3.386  12.237  0.00  0.00    +0.000 C 
ATOM      8  C   UNL     1       6.858   2.950  11.672  0.00  0.00    +0.000 C 
ATOM      9  C   UNL     1       5.420   4.000  13.434  0.00  0.00    +0.000 C 
ENDBRANCH   5   9
ENDBRANCH   4   5
ENDBRANCH   2   4
ENDBRANCH   1   2
BRANCH   1  10
ATOM     10  C   UNL     1       5.278   3.820  18.337  0.00  0.00    +0.000 C 
BRANCH  10  11
ATOM     11  O   UNL     1       5.277   3.308  19.668  0.00  0.00    +0.000 OA
BRANCH  11  12
ATOM     12  C   UNL     1       4.267   2.316  19.814  0.00  0.00    +0.000 C 
ATOM     13  C   UNL     1       3.197   2.871  20.660  0.00  0.00    +0.000 C 
ATOM     14  C   UNL     1       2.052   2.940  19.987  0.00  0.00    +0.000 C 
ATOM     15  C   UNL     1       0.722   3.434  20.392  0.00  0.00    +0.000 C 
ATOM     16  C   UNL     1       2.329   2.402  18.652  0.00  0.00    +0.000 C 
ATOM     17  O   UNL     1       1.512   2.296  17.754  0.00  0.00    +0.000 OA
ATOM     18  O   UNL     1       3.627   2.013  18.583  0.00  0.00    +0.000 OA
ENDBRANCH  11  12
ENDBRANCH  10  11
ENDBRANCH   1  10
TORSDOF 7
ENDMDL
