MODEL 1
REMARK VINA RESULT:      -9.1      0.000      0.000
REMARK  Name = 
REMARK  6 active torsions:
REMARK  status: ('A' for Active; 'I' for Inactive)
REMARK    1  A    between atoms: C_1  and  C_2
REMARK    2  A    between atoms: C_5  and  C_6
REMARK    3  A    between atoms: C_6  and  N_7
REMARK    4  A    between atoms: C_8  and  C_10
REMARK    5  A    between atoms: C_16  and  S_17
REMARK    6  A    between atoms: S_17  and  N_20
REMARK                            x       y       z     vdW  Elec       q    Type
REMARK                         _______ _______ _______ _____ _____    ______ ____
ROOT
ATOM      1  C   UNL     1       0.291  11.475  20.810  0.00  0.00    +0.000 A 
ATOM      2  C   UNL     1       0.325  11.807  19.507  0.00  0.00    +0.000 A 
ATOM      3  N   UNL     1       0.833  11.022  18.498  0.00  0.00    +0.000 N 
ATOM      4  C   UNL     1       1.294   9.724  18.761  0.00  0.00    +0.000 A 
ATOM      5  C   UNL     1       1.821   8.914  17.750  0.00  0.00    +0.000 A 
ATOM      6  C   UNL     1       2.298   7.628  18.049  0.00  0.00    +0.000 A 
ATOM      7  C   UNL     1       2.245   7.151  19.364  0.00  0.00    +0.000 A 
ATOM      8  C   UNL     1       1.744   7.953  20.388  0.00  0.00    +0.000 A 
ATOM      9  C   UNL     1       1.294   9.242  20.081  0.00  0.00    +0.000 A 
ATOM     10  C   UNL     1       0.811  10.126  21.170  0.00  0.00    +0.000 A 
ATOM     11  O   UNL     1       0.858   9.747  22.338  0.00  0.00    +0.000 OA
ATOM     12  H   UNL     1       0.686  11.314  17.538  0.00  0.00    +0.000 HD
ENDROOT
BRANCH   1  14
ATOM     13  N   UNL     1      -1.408  12.105  22.408  0.00  0.00    +0.000 N 
ATOM     14  C   UNL     1      -0.224  12.456  21.809  0.00  0.00    +0.000 C 
ATOM     15  O   UNL     1       0.394  13.483  22.077  0.00  0.00    +0.000 OA
ATOM     16  H   UNL     1      -1.928  11.315  22.024  0.00  0.00    +0.000 HD
BRANCH  13  17
ATOM     17  C   UNL     1      -2.092  12.954  23.357  0.00  0.00    +0.000 C 
BRANCH  17  22
ATOM     18  C   UNL     1      -7.914  12.637  23.023  0.00  0.00    +0.000 C 
ATOM     19  C   UNL     1      -6.417  12.687  23.114  0.00  0.00    +0.000 A 
ATOM     20  C   UNL     1      -5.766  12.621  24.351  0.00  0.00    +0.000 A 
ATOM     21  C   UNL     1      -4.371  12.686  24.425  0.00  0.00    +0.000 A 
ATOM     22  C   UNL     1      -3.592  12.817  23.265  0.00  0.00    +0.000 A 
ATOM     23  C   UNL     1      -4.248  12.875  22.027  0.00  0.00    +0.000 A 
ATOM     24  C   UNL     1      -5.642  12.813  21.953  0.00  0.00    +0.000 A 
ENDBRANCH  17  22
ENDBRANCH  13  17
ENDBRANCH   1  14
BRANCH   7  25
ATOM     25  S   UNL     1       2.786   5.501  19.751  0.00  0.00    +0.000 S 
ATOM     26  O   UNL     1       4.229   5.508  19.644  0.00  0.00    +0.000 OA
ATOM     27  O   UNL     1       2.127   5.094  20.971  0.00  0.00    +0.000 OA
BRANCH  25  28
ATOM     28  N   UNL     1       2.166   4.550  18.482  0.00  0.00    +0.000 NA
ATOM     29  C   UNL     1       1.241   3.431  18.836  0.00  0.00    +0.000 C 
ATOM     30  C   UNL     1       1.998   2.168  19.267  0.00  0.00    +0.000 C 
ATOM     31  O   UNL     1       2.951   1.756  18.278  0.00  0.00    +0.000 OA
ATOM     32  C   UNL     1       3.897   2.800  18.000  0.00  0.00    +0.000 C 
ATOM     33  C   UNL     1       3.189   4.063  17.498  0.00  0.00    +0.000 C 
ENDBRANCH  25  28
ENDBRANCH   7  25
TORSDOF 5
ENDMDL
MODEL 2
REMARK VINA RESULT:      -8.7      0.999      1.343
REMARK  Name = 
REMARK  6 active torsions:
REMARK  status: ('A' for Active; 'I' for Inactive)
REMARK    1  A    between atoms: C_1  and  C_2
REMARK    2  A    between atoms: C_5  and  C_6
REMARK    3  A    between atoms: C_6  and  N_7
REMARK    4  A    between atoms: C_8  and  C_10
REMARK    5  A    between atoms: C_16  and  S_17
REMARK    6  A    between atoms: S_17  and  N_20
REMARK                            x       y       z     vdW  Elec       q    Type
REMARK                         _______ _______ _______ _____ _____    ______ ____
ROOT
ATOM      1  C   UNL     1      -0.076  10.535  21.267  0.00  0.00    +0.000 A 
ATOM      2  C   UNL     1      -0.161  11.118  20.058  0.00  0.00    +0.000 A 
ATOM      3  N   UNL     1       0.458  10.672  18.913  0.00  0.00    +0.000 N 
ATOM      4  C   UNL     1       1.185   9.472  18.911  0.00  0.00    +0.000 A 
ATOM      5  C   UNL     1       1.827   9.006  17.760  0.00  0.00    +0.000 A 
ATOM      6  C   UNL     1       2.569   7.815  17.795  0.00  0.00    +0.000 A 
ATOM      7  C   UNL     1       2.666   7.088  18.987  0.00  0.00    +0.000 A 
ATOM      8  C   UNL     1       2.051   7.548  20.149  0.00  0.00    +0.000 A 
ATOM      9  C   UNL     1       1.335   8.750  20.107  0.00  0.00    +0.000 A 
ATOM     10  C   UNL     1       0.723   9.281  21.350  0.00  0.00    +0.000 A 
ATOM     11  O   UNL     1       0.893   8.696  22.417  0.00  0.00    +0.000 OA
ATOM     12  H   UNL     1       0.217  11.110  18.031  0.00  0.00    +0.000 HD
ENDROOT
BRANCH   1  14
ATOM     13  N   UNL     1      -1.147  12.467  22.245  0.00  0.00    +0.000 N 
ATOM     14  C   UNL     1      -0.742  11.170  22.441  0.00  0.00    +0.000 C 
ATOM     15  O   UNL     1      -0.926  10.553  23.486  0.00  0.00    +0.000 OA
ATOM     16  H   UNL     1      -0.827  12.952  21.407  0.00  0.00    +0.000 HD
BRANCH  13  17
ATOM     17  C   UNL     1      -1.757  13.266  23.284  0.00  0.00    +0.000 C 
BRANCH  17  22
ATOM     18  C   UNL     1      -7.546  12.492  23.321  0.00  0.00    +0.000 C 
ATOM     19  C   UNL     1      -6.063  12.722  23.309  0.00  0.00    +0.000 A 
ATOM     20  C   UNL     1      -5.389  13.028  22.122  0.00  0.00    +0.000 A 
ATOM     21  C   UNL     1      -4.004  13.224  22.120  0.00  0.00    +0.000 A 
ATOM     22  C   UNL     1      -3.260  13.121  23.305  0.00  0.00    +0.000 A 
ATOM     23  C   UNL     1      -3.940  12.822  24.494  0.00  0.00    +0.000 A 
ATOM     24  C   UNL     1      -5.323  12.624  24.496  0.00  0.00    +0.000 A 
ENDBRANCH  17  22
ENDBRANCH  13  17
ENDBRANCH   1  14
BRANCH   7  25
ATOM     25  S   UNL     1       3.548   5.543  19.036  0.00  0.00    +0.000 S 
ATOM     26  O   UNL     1       4.937   5.858  18.779  0.00  0.00    +0.000 OA
ATOM     27  O   UNL     1       3.148   4.842  20.233  0.00  0.00    +0.000 OA
BRANCH  25  28
ATOM     28  N   UNL     1       2.947   4.677  17.699  0.00  0.00    +0.000 NA
ATOM     29  C   UNL     1       1.516   4.247  17.733  0.00  0.00    +0.000 C 
ATOM     30  C   UNL     1       1.320   2.947  18.525  0.00  0.00    +0.000 C 
ATOM     31  O   UNL     1       2.164   1.895  18.037  0.00  0.00    +0.000 OA
ATOM     32  C   UNL     1       3.548   2.273  18.086  0.00  0.00    +0.000 C 
ATOM     33  C   UNL     1       3.805   3.531  17.250  0.00  0.00    +0.000 C 
ENDBRANCH  25  28
ENDBRANCH   7  25
TORSDOF 5
ENDMDL
MODEL 3
REMARK VINA RESULT:      -8.7      0.998      1.068
REMARK  Name = 
REMARK  6 active torsions:
REMARK  status: ('A' for Active; 'I' for Inactive)
REMARK    1  A    between atoms: C_1  and  C_2
REMARK    2  A    between atoms: C_5  and  C_6
REMARK    3  A    between atoms: C_6  and  N_7
REMARK    4  A    between atoms: C_8  and  C_10
REMARK    5  A    between atoms: C_16  and  S_17
REMARK    6  A    between atoms: S_17  and  N_20
REMARK                            x       y       z     vdW  Elec       q    Type
REMARK                         _______ _______ _______ _____ _____    ______ ____
ROOT
ATOM      1  C   UNL     1      -0.022  10.518  21.260  0.00  0.00    +0.000 A 
ATOM      2  C   UNL     1      -0.038  11.218  20.112  0.00  0.00    +0.000 A 
ATOM      3  N   UNL     1       0.596  10.851  18.948  0.00  0.00    +0.000 N 
ATOM      4  C   UNL     1       1.263   9.622  18.850  0.00  0.00    +0.000 A 
ATOM      5  C   UNL     1       1.920   9.235  17.677  0.00  0.00    +0.000 A 
ATOM      6  C   UNL     1       2.601   8.009  17.618  0.00  0.00    +0.000 A 
ATOM      7  C   UNL     1       2.623   7.167  18.736  0.00  0.00    +0.000 A 
ATOM      8  C   UNL     1       1.993   7.546  19.920  0.00  0.00    +0.000 A 
ATOM      9  C   UNL     1       1.338   8.781  19.974  0.00  0.00    +0.000 A 
ATOM     10  C   UNL     1       0.711   9.222  21.245  0.00  0.00    +0.000 A 
ATOM     11  O   UNL     1       0.816   8.530  22.254  0.00  0.00    +0.000 OA
ATOM     12  H   UNL     1       0.406  11.384  18.106  0.00  0.00    +0.000 HD
ENDROOT
BRANCH   1  14
ATOM     13  N   UNL     1      -1.291  12.296  22.294  0.00  0.00    +0.000 N 
ATOM     14  C   UNL     1      -0.695  11.072  22.471  0.00  0.00    +0.000 C 
ATOM     15  O   UNL     1      -0.725  10.451  23.530  0.00  0.00    +0.000 OA
ATOM     16  H   UNL     1      -1.095  12.808  21.433  0.00  0.00    +0.000 HD
BRANCH  13  17
ATOM     17  C   UNL     1      -1.940  13.018  23.365  0.00  0.00    +0.000 C 
BRANCH  17  22
ATOM     18  C   UNL     1      -7.764  12.598  23.283  0.00  0.00    +0.000 C 
ATOM     19  C   UNL     1      -6.266  12.674  23.307  0.00  0.00    +0.000 A 
ATOM     20  C   UNL     1      -5.553  12.521  24.501  0.00  0.00    +0.000 A 
ATOM     21  C   UNL     1      -4.158  12.611  24.513  0.00  0.00    +0.000 A 
ATOM     22  C   UNL     1      -3.440  12.855  23.333  0.00  0.00    +0.000 A 
ATOM     23  C   UNL     1      -4.157  13.000  22.137  0.00  0.00    +0.000 A 
ATOM     24  C   UNL     1      -5.552  12.914  22.124  0.00  0.00    +0.000 A 
ENDBRANCH  17  22
ENDBRANCH  13  17
ENDBRANCH   1  14
BRANCH   7  25
ATOM     25  S   UNL     1       3.427   5.582  18.660  0.00  0.00    +0.000 S 
ATOM     26  O   UNL     1       4.388   5.662  17.581  0.00  0.00    +0.000 OA
ATOM     27  O   UNL     1       3.832   5.225  20.000  0.00  0.00    +0.000 OA
BRANCH  25  28
ATOM     28  N   UNL     1       2.191   4.509  18.187  0.00  0.00    +0.000 NA
ATOM     29  C   UNL     1       1.334   3.917  19.258  0.00  0.00    +0.000 C 
ATOM     30  C   UNL     1       1.990   2.697  19.917  0.00  0.00    +0.000 C 
ATOM     31  O   UNL     1       2.364   1.707  18.950  0.00  0.00    +0.000 OA
ATOM     32  C   UNL     1       3.260   2.251  17.969  0.00  0.00    +0.000 C 
ATOM     33  C   UNL     1       2.618   3.432  17.233  0.00  0.00    +0.000 C 
ENDBRANCH  25  28
ENDBRANCH   7  25
TORSDOF 5
ENDMDL
MODEL 4
REMARK VINA RESULT:      -8.6      3.232      4.676
REMARK  Name = 
REMARK  6 active torsions:
REMARK  status: ('A' for Active; 'I' for Inactive)
REMARK    1  A    between atoms: C_1  and  C_2
REMARK    2  A    between atoms: C_5  and  C_6
REMARK    3  A    between atoms: C_6  and  N_7
REMARK    4  A    between atoms: C_8  and  C_10
REMARK    5  A    between atoms: C_16  and  S_17
REMARK    6  A    between atoms: S_17  and  N_20
REMARK                            x       y       z     vdW  Elec       q    Type
REMARK                         _______ _______ _______ _____ _____    ______ ____
ROOT
ATOM      1  C   UNL     1       1.130   9.285  19.578  0.00  0.00    +0.000 A 
ATOM      2  C   UNL     1       0.962   8.715  20.785  0.00  0.00    +0.000 A 
ATOM      3  N   UNL     1       1.384   7.453  21.135  0.00  0.00    +0.000 N 
ATOM      4  C   UNL     1       2.131   6.672  20.240  0.00  0.00    +0.000 A 
ATOM      5  C   UNL     1       2.563   5.385  20.575  0.00  0.00    +0.000 A 
ATOM      6  C   UNL     1       3.285   4.617  19.649  0.00  0.00    +0.000 A 
ATOM      7  C   UNL     1       3.579   5.140  18.384  0.00  0.00    +0.000 A 
ATOM      8  C   UNL     1       3.138   6.413  18.026  0.00  0.00    +0.000 A 
ATOM      9  C   UNL     1       2.397   7.159  18.949  0.00  0.00    +0.000 A 
ATOM     10  C   UNL     1       1.873   8.491  18.560  0.00  0.00    +0.000 A 
ATOM     11  O   UNL     1       2.043   8.909  17.417  0.00  0.00    +0.000 OA
ATOM     12  H   UNL     1       1.325   7.177  22.108  0.00  0.00    +0.000 HD
ENDROOT
BRANCH   1  14
ATOM     13  N   UNL     1      -0.413  10.673  18.341  0.00  0.00    +0.000 N 
ATOM     14  C   UNL     1       0.555  10.636  19.314  0.00  0.00    +0.000 C 
ATOM     15  O   UNL     1       0.917  11.623  19.949  0.00  0.00    +0.000 OA
ATOM     16  H   UNL     1      -0.548   9.844  17.763  0.00  0.00    +0.000 HD
BRANCH  13  17
ATOM     17  C   UNL     1      -1.043  11.899  17.905  0.00  0.00    +0.000 C 
BRANCH  17  22
ATOM     18  C   UNL     1      -6.852  11.371  18.204  0.00  0.00    +0.000 C 
ATOM     19  C   UNL     1      -5.363  11.532  18.109  0.00  0.00    +0.000 A 
ATOM     20  C   UNL     1      -4.670  11.178  16.946  0.00  0.00    +0.000 A 
ATOM     21  C   UNL     1      -3.281  11.318  16.876  0.00  0.00    +0.000 A 
ATOM     22  C   UNL     1      -2.549  11.816  17.965  0.00  0.00    +0.000 A 
ATOM     23  C   UNL     1      -3.248  12.176  19.125  0.00  0.00    +0.000 A 
ATOM     24  C   UNL     1      -4.636  12.035  19.198  0.00  0.00    +0.000 A 
ENDBRANCH  17  22
ENDBRANCH  13  17
ENDBRANCH   1  14
BRANCH   7  25
ATOM     25  S   UNL     1       4.548   4.207  17.221  0.00  0.00    +0.000 S 
ATOM     26  O   UNL     1       4.266   2.812  17.479  0.00  0.00    +0.000 OA
ATOM     27  O   UNL     1       4.345   4.783  15.911  0.00  0.00    +0.000 OA
BRANCH  25  28
ATOM     28  N   UNL     1       6.160   4.514  17.679  0.00  0.00    +0.000 NA
ATOM     29  C   UNL     1       6.460   5.820  18.340  0.00  0.00    +0.000 C 
ATOM     30  C   UNL     1       6.649   6.954  17.324  0.00  0.00    +0.000 C 
ATOM     31  O   UNL     1       7.645   6.630  16.344  0.00  0.00    +0.000 OA
ATOM     32  C   UNL     1       7.313   5.421  15.645  0.00  0.00    +0.000 C 
ATOM     33  C   UNL     1       7.183   4.242  16.616  0.00  0.00    +0.000 C 
ENDBRANCH  25  28
ENDBRANCH   7  25
TORSDOF 5
ENDMDL
MODEL 5
REMARK VINA RESULT:      -8.6      4.250      6.343
REMARK  Name = 
REMARK  6 active torsions:
REMARK  status: ('A' for Active; 'I' for Inactive)
REMARK    1  A    between atoms: C_1  and  C_2
REMARK    2  A    between atoms: C_5  and  C_6
REMARK    3  A    between atoms: C_6  and  N_7
REMARK    4  A    between atoms: C_8  and  C_10
REMARK    5  A    between atoms: C_16  and  S_17
REMARK    6  A    between atoms: S_17  and  N_20
REMARK                            x       y       z     vdW  Elec       q    Type
REMARK                         _______ _______ _______ _____ _____    ______ ____
ROOT
ATOM      1  C   UNL     1       0.892   9.943  19.414  0.00  0.00    +0.000 A 
ATOM      2  C   UNL     1       0.545   9.481  20.629  0.00  0.00    +0.000 A 
ATOM      3  N   UNL     1       0.844   8.231  21.120  0.00  0.00    +0.000 N 
ATOM      4  C   UNL     1       1.642   7.342  20.384  0.00  0.00    +0.000 A 
ATOM      5  C   UNL     1       1.950   6.065  20.864  0.00  0.00    +0.000 A 
ATOM      6  C   UNL     1       2.729   5.188  20.093  0.00  0.00    +0.000 A 
ATOM      7  C   UNL     1       3.204   5.593  18.839  0.00  0.00    +0.000 A 
ATOM      8  C   UNL     1       2.889   6.853  18.337  0.00  0.00    +0.000 A 
ATOM      9  C   UNL     1       2.090   7.709  19.104  0.00  0.00    +0.000 A 
ATOM     10  C   UNL     1       1.700   9.032  18.556  0.00  0.00    +0.000 A 
ATOM     11  O   UNL     1       2.031   9.347  17.416  0.00  0.00    +0.000 OA
ATOM     12  H   UNL     1       0.652   8.037  22.096  0.00  0.00    +0.000 HD
ENDROOT
BRANCH   1  14
ATOM     13  N   UNL     1       1.444  12.204  18.768  0.00  0.00    +0.000 N 
ATOM     14  C   UNL     1       0.437  11.297  18.982  0.00  0.00    +0.000 C 
ATOM     15  O   UNL     1      -0.752  11.551  18.813  0.00  0.00    +0.000 OA
ATOM     16  H   UNL     1       2.387  11.960  19.071  0.00  0.00    +0.000 HD
BRANCH  13  17
ATOM     17  C   UNL     1       1.198  13.582  18.403  0.00  0.00    +0.000 C 
BRANCH  17  22
ATOM     18  C   UNL     1       5.909  16.998  18.889  0.00  0.00    +0.000 C 
ATOM     19  C   UNL     1       4.709  16.103  18.789  0.00  0.00    +0.000 A 
ATOM     20  C   UNL     1       4.810  14.816  18.251  0.00  0.00    +0.000 A 
ATOM     21  C   UNL     1       3.681  13.997  18.147  0.00  0.00    +0.000 A 
ATOM     22  C   UNL     1       2.424  14.444  18.581  0.00  0.00    +0.000 A 
ATOM     23  C   UNL     1       2.329  15.732  19.127  0.00  0.00    +0.000 A 
ATOM     24  C   UNL     1       3.456  16.552  19.228  0.00  0.00    +0.000 A 
ENDBRANCH  17  22
ENDBRANCH  13  17
ENDBRANCH   1  14
BRANCH   7  25
ATOM     25  S   UNL     1       4.246   4.519  17.877  0.00  0.00    +0.000 S 
ATOM     26  O   UNL     1       4.980   3.706  18.823  0.00  0.00    +0.000 OA
ATOM     27  O   UNL     1       3.432   3.919  16.845  0.00  0.00    +0.000 OA
BRANCH  25  28
ATOM     28  N   UNL     1       5.348   5.575  17.121  0.00  0.00    +0.000 NA
ATOM     29  C   UNL     1       5.617   5.376  15.664  0.00  0.00    +0.000 C 
ATOM     30  C   UNL     1       6.662   4.281  15.412  0.00  0.00    +0.000 C 
ATOM     31  O   UNL     1       7.877   4.529  16.132  0.00  0.00    +0.000 OA
ATOM     32  C   UNL     1       7.634   4.632  17.543  0.00  0.00    +0.000 C 
ATOM     33  C   UNL     1       6.646   5.763  17.850  0.00  0.00    +0.000 C 
ENDBRANCH  25  28
ENDBRANCH   7  25
TORSDOF 5
ENDMDL
MODEL 6
REMARK VINA RESULT:      -8.6      3.152      4.509
REMARK  Name = 
REMARK  6 active torsions:
REMARK  status: ('A' for Active; 'I' for Inactive)
REMARK    1  A    between atoms: C_1  and  C_2
REMARK    2  A    between atoms: C_5  and  C_6
REMARK    3  A    between atoms: C_6  and  N_7
REMARK    4  A    between atoms: C_8  and  C_10
REMARK    5  A    between atoms: C_16  and  S_17
REMARK    6  A    between atoms: S_17  and  N_20
REMARK                            x       y       z     vdW  Elec       q    Type
REMARK                         _______ _______ _______ _____ _____    ______ ____
ROOT
ATOM      1  C   UNL     1       0.973   9.209  19.985  0.00  0.00    +0.000 A 
ATOM      2  C   UNL     1       0.689   8.573  21.136  0.00  0.00    +0.000 A 
ATOM      3  N   UNL     1       1.083   7.295  21.457  0.00  0.00    +0.000 N 
ATOM      4  C   UNL     1       1.920   6.565  20.600  0.00  0.00    +0.000 A 
ATOM      5  C   UNL     1       2.325   5.261  20.906  0.00  0.00    +0.000 A 
ATOM      6  C   UNL     1       3.141   4.546  20.017  0.00  0.00    +0.000 A 
ATOM      7  C   UNL     1       3.556   5.138  18.818  0.00  0.00    +0.000 A 
ATOM      8  C   UNL     1       3.144   6.428  18.487  0.00  0.00    +0.000 A 
ATOM      9  C   UNL     1       2.310   7.122  19.370  0.00  0.00    +0.000 A 
ATOM     10  C   UNL     1       1.818   8.473  19.004  0.00  0.00    +0.000 A 
ATOM     11  O   UNL     1       2.099   8.953  17.909  0.00  0.00    +0.000 OA
ATOM     12  H   UNL     1       0.929   6.965  22.403  0.00  0.00    +0.000 HD
ENDROOT
BRANCH   1  14
ATOM     13  N   UNL     1      -0.446  10.661  18.675  0.00  0.00    +0.000 N 
ATOM     14  C   UNL     1       0.418  10.572  19.739  0.00  0.00    +0.000 C 
ATOM     15  O   UNL     1       0.706  11.522  20.460  0.00  0.00    +0.000 OA
ATOM     16  H   UNL     1      -0.516   9.865  18.042  0.00  0.00    +0.000 HD
BRANCH  13  17
ATOM     17  C   UNL     1      -1.037  11.909  18.246  0.00  0.00    +0.000 C 
BRANCH  17  22
ATOM     18  C   UNL     1      -6.857  11.426  18.146  0.00  0.00    +0.000 C 
ATOM     19  C   UNL     1      -5.364  11.576  18.152  0.00  0.00    +0.000 A 
ATOM     20  C   UNL     1      -4.595  11.197  17.047  0.00  0.00    +0.000 A 
ATOM     21  C   UNL     1      -3.202  11.326  17.071  0.00  0.00    +0.000 A 
ATOM     22  C   UNL     1      -2.545  11.837  18.200  0.00  0.00    +0.000 A 
ATOM     23  C   UNL     1      -3.320  12.222  19.303  0.00  0.00    +0.000 A 
ATOM     24  C   UNL     1      -4.711  12.092  19.280  0.00  0.00    +0.000 A 
ENDBRANCH  17  22
ENDBRANCH  13  17
ENDBRANCH   1  14
BRANCH   7  25
ATOM     25  S   UNL     1       4.643   4.271  17.708  0.00  0.00    +0.000 S 
ATOM     26  O   UNL     1       5.881   4.064  18.428  0.00  0.00    +0.000 OA
ATOM     27  O   UNL     1       3.908   3.162  17.145  0.00  0.00    +0.000 OA
BRANCH  25  28
ATOM     28  N   UNL     1       4.939   5.388  16.457  0.00  0.00    +0.000 NA
ATOM     29  C   UNL     1       5.420   4.854  15.146  0.00  0.00    +0.000 C 
ATOM     30  C   UNL     1       6.935   4.611  15.140  0.00  0.00    +0.000 C 
ATOM     31  O   UNL     1       7.664   5.787  15.517  0.00  0.00    +0.000 OA
ATOM     32  C   UNL     1       7.266   6.251  16.816  0.00  0.00    +0.000 C 
ATOM     33  C   UNL     1       5.769   6.574  16.851  0.00  0.00    +0.000 C 
ENDBRANCH  25  28
ENDBRANCH   7  25
TORSDOF 5
ENDMDL
MODEL 7
REMARK VINA RESULT:      -8.5      2.958      3.981
REMARK  Name = 
REMARK  6 active torsions:
REMARK  status: ('A' for Active; 'I' for Inactive)
REMARK    1  A    between atoms: C_1  and  C_2
REMARK    2  A    between atoms: C_5  and  C_6
REMARK    3  A    between atoms: C_6  and  N_7
REMARK    4  A    between atoms: C_8  and  C_10
REMARK    5  A    between atoms: C_16  and  S_17
REMARK    6  A    between atoms: S_17  and  N_20
REMARK                            x       y       z     vdW  Elec       q    Type
REMARK                         _______ _______ _______ _____ _____    ______ ____
ROOT
ATOM      1  C   UNL     1       0.930   9.577  19.620  0.00  0.00    +0.000 A 
ATOM      2  C   UNL     1       0.731   9.086  20.857  0.00  0.00    +0.000 A 
ATOM      3  N   UNL     1       1.106   7.834  21.286  0.00  0.00    +0.000 N 
ATOM      4  C   UNL     1       1.833   6.976  20.449  0.00  0.00    +0.000 A 
ATOM      5  C   UNL     1       2.217   5.697  20.865  0.00  0.00    +0.000 A 
ATOM      6  C   UNL     1       2.922   4.851  19.996  0.00  0.00    +0.000 A 
ATOM      7  C   UNL     1       3.246   5.287  18.705  0.00  0.00    +0.000 A 
ATOM      8  C   UNL     1       2.853   6.550  18.266  0.00  0.00    +0.000 A 
ATOM      9  C   UNL     1       2.129   7.375  19.134  0.00  0.00    +0.000 A 
ATOM     10  C   UNL     1       1.655   8.699  18.660  0.00  0.00    +0.000 A 
ATOM     11  O   UNL     1       1.850   9.041  17.497  0.00  0.00    +0.000 OA
ATOM     12  H   UNL     1       1.028   7.619  22.274  0.00  0.00    +0.000 HD
ENDROOT
BRANCH   1  14
ATOM     13  N   UNL     1      -0.964  11.024  19.223  0.00  0.00    +0.000 N 
ATOM     14  C   UNL     1       0.405  10.929  19.269  0.00  0.00    +0.000 C 
ATOM     15  O   UNL     1       1.158  11.877  19.065  0.00  0.00    +0.000 OA
ATOM     16  H   UNL     1      -1.509  10.162  19.258  0.00  0.00    +0.000 HD
BRANCH  13  17
ATOM     17  C   UNL     1      -1.656  12.235  18.843  0.00  0.00    +0.000 C 
BRANCH  17  22
ATOM     18  C   UNL     1      -7.462  11.954  19.408  0.00  0.00    +0.000 C 
ATOM     19  C   UNL     1      -5.967  12.003  19.285  0.00  0.00    +0.000 A 
ATOM     20  C   UNL     1      -5.181  12.617  20.266  0.00  0.00    +0.000 A 
ATOM     21  C   UNL     1      -3.790  12.671  20.132  0.00  0.00    +0.000 A 
ATOM     22  C   UNL     1      -3.151  12.112  19.015  0.00  0.00    +0.000 A 
ATOM     23  C   UNL     1      -3.942  11.492  18.038  0.00  0.00    +0.000 A 
ATOM     24  C   UNL     1      -5.332  11.440  18.170  0.00  0.00    +0.000 A 
ENDBRANCH  17  22
ENDBRANCH  13  17
ENDBRANCH   1  14
BRANCH   7  25
ATOM     25  S   UNL     1       4.194   4.254  17.611  0.00  0.00    +0.000 S 
ATOM     26  O   UNL     1       5.063   3.458  18.451  0.00  0.00    +0.000 OA
ATOM     27  O   UNL     1       3.278   3.635  16.681  0.00  0.00    +0.000 OA
BRANCH  25  28
ATOM     28  N   UNL     1       5.163   5.348  16.737  0.00  0.00    +0.000 NA
ATOM     29  C   UNL     1       5.496   5.007  15.321  0.00  0.00    +0.000 C 
ATOM     30  C   UNL     1       6.686   4.044  15.221  0.00  0.00    +0.000 C 
ATOM     31  O   UNL     1       7.836   4.546  15.915  0.00  0.00    +0.000 OA
ATOM     32  C   UNL     1       7.543   4.791  17.299  0.00  0.00    +0.000 C 
ATOM     33  C   UNL     1       6.402   5.804  17.448  0.00  0.00    +0.000 C 
ENDBRANCH  25  28
ENDBRANCH   7  25
TORSDOF 5
ENDMDL
MODEL 8
REMARK VINA RESULT:      -8.4      1.964      2.340
REMARK  Name = 
REMARK  6 active torsions:
REMARK  status: ('A' for Active; 'I' for Inactive)
REMARK    1  A    between atoms: C_1  and  C_2
REMARK    2  A    between atoms: C_5  and  C_6
REMARK    3  A    between atoms: C_6  and  N_7
REMARK    4  A    between atoms: C_8  and  C_10
REMARK    5  A    between atoms: C_16  and  S_17
REMARK    6  A    between atoms: S_17  and  N_20
REMARK                            x       y       z     vdW  Elec       q    Type
REMARK                         _______ _______ _______ _____ _____    ______ ____
ROOT
ATOM      1  C   UNL     1       0.058  10.242  21.292  0.00  0.00    +0.000 A 
ATOM      2  C   UNL     1      -0.152  10.927  20.153  0.00  0.00    +0.000 A 
ATOM      3  N   UNL     1       0.406  10.630  18.932  0.00  0.00    +0.000 N 
ATOM      4  C   UNL     1       1.202   9.487  18.764  0.00  0.00    +0.000 A 
ATOM      5  C   UNL     1       1.783   9.172  17.532  0.00  0.00    +0.000 A 
ATOM      6  C   UNL     1       2.597   8.036  17.402  0.00  0.00    +0.000 A 
ATOM      7  C   UNL     1       2.827   7.211  18.509  0.00  0.00    +0.000 A 
ATOM      8  C   UNL     1       2.273   7.521  19.750  0.00  0.00    +0.000 A 
ATOM      9  C   UNL     1       1.484   8.670  19.872  0.00  0.00    +0.000 A 
ATOM     10  C   UNL     1       0.936   9.042  21.200  0.00  0.00    +0.000 A 
ATOM     11  O   UNL     1       1.220   8.375  22.191  0.00  0.00    +0.000 OA
ATOM     12  H   UNL     1       0.073  11.129  18.114  0.00  0.00    +0.000 HD
ENDROOT
BRANCH   1  14
ATOM     13  N   UNL     1      -1.486  11.719  22.419  0.00  0.00    +0.000 N 
ATOM     14  C   UNL     1      -0.556  10.721  22.565  0.00  0.00    +0.000 C 
ATOM     15  O   UNL     1      -0.255  10.227  23.648  0.00  0.00    +0.000 OA
ATOM     16  H   UNL     1      -1.569  12.173  21.509  0.00  0.00    +0.000 HD
BRANCH  13  17
ATOM     17  C   UNL     1      -2.145  12.351  23.540  0.00  0.00    +0.000 C 
BRANCH  17  22
ATOM     18  C   UNL     1      -7.857  13.205  22.677  0.00  0.00    +0.000 C 
ATOM     19  C   UNL     1      -6.395  12.955  22.903  0.00  0.00    +0.000 A 
ATOM     20  C   UNL     1      -5.891  12.728  24.189  0.00  0.00    +0.000 A 
ATOM     21  C   UNL     1      -4.524  12.513  24.388  0.00  0.00    +0.000 A 
ATOM     22  C   UNL     1      -3.627  12.517  23.309  0.00  0.00    +0.000 A 
ATOM     23  C   UNL     1      -4.138  12.736  22.022  0.00  0.00    +0.000 A 
ATOM     24  C   UNL     1      -5.503  12.955  21.822  0.00  0.00    +0.000 A 
ENDBRANCH  17  22
ENDBRANCH  13  17
ENDBRANCH   1  14
BRANCH   7  25
ATOM     25  S   UNL     1       3.802   5.731  18.348  0.00  0.00    +0.000 S 
ATOM     26  O   UNL     1       4.349   5.458  19.660  0.00  0.00    +0.000 OA
ATOM     27  O   UNL     1       3.006   4.750  17.648  0.00  0.00    +0.000 OA
BRANCH  25  28
ATOM     28  N   UNL     1       5.085   6.187  17.325  0.00  0.00    +0.000 NA
ATOM     29  C   UNL     1       5.195   5.506  15.999  0.00  0.00    +0.000 C 
ATOM     30  C   UNL     1       5.902   4.148  16.100  0.00  0.00    +0.000 C 
ATOM     31  O   UNL     1       7.186   4.263  16.729  0.00  0.00    +0.000 OA
ATOM     32  C   UNL     1       7.073   4.835  18.041  0.00  0.00    +0.000 C 
ATOM     33  C   UNL     1       6.434   6.227  17.981  0.00  0.00    +0.000 C 
ENDBRANCH  25  28
ENDBRANCH   7  25
TORSDOF 5
ENDMDL
MODEL 9
REMARK VINA RESULT:      -8.3      0.940      1.109
REMARK  Name = 
REMARK  6 active torsions:
REMARK  status: ('A' for Active; 'I' for Inactive)
REMARK    1  A    between atoms: C_1  and  C_2
REMARK    2  A    between atoms: C_5  and  C_6
REMARK    3  A    between atoms: C_6  and  N_7
REMARK    4  A    between atoms: C_8  and  C_10
REMARK    5  A    between atoms: C_16  and  S_17
REMARK    6  A    between atoms: S_17  and  N_20
REMARK                            x       y       z     vdW  Elec       q    Type
REMARK                         _______ _______ _______ _____ _____    ______ ____
ROOT
ATOM      1  C   UNL     1       0.619  11.071  20.685  0.00  0.00    +0.000 A 
ATOM      2  C   UNL     1       0.945  11.407  19.424  0.00  0.00    +0.000 A 
ATOM      3  N   UNL     1       1.491  10.558  18.490  0.00  0.00    +0.000 N 
ATOM      4  C   UNL     1       1.673   9.197  18.776  0.00  0.00    +0.000 A 
ATOM      5  C   UNL     1       2.233   8.320  17.842  0.00  0.00    +0.000 A 
ATOM      6  C   UNL     1       2.428   6.969  18.167  0.00  0.00    +0.000 A 
ATOM      7  C   UNL     1       2.058   6.494  19.431  0.00  0.00    +0.000 A 
ATOM      8  C   UNL     1       1.519   7.358  20.382  0.00  0.00    +0.000 A 
ATOM      9  C   UNL     1       1.353   8.708  20.054  0.00  0.00    +0.000 A 
ATOM     10  C   UNL     1       0.833   9.650  21.076  0.00  0.00    +0.000 A 
ATOM     11  O   UNL     1       0.603   9.255  22.216  0.00  0.00    +0.000 OA
ATOM     12  H   UNL     1       1.571  10.881  17.532  0.00  0.00    +0.000 HD
ENDROOT
BRANCH   1  14
ATOM     13  N   UNL     1      -0.946  11.715  22.409  0.00  0.00    +0.000 N 
ATOM     14  C   UNL     1       0.100  12.115  21.616  0.00  0.00    +0.000 C 
ATOM     15  O   UNL     1       0.604  13.234  21.670  0.00  0.00    +0.000 OA
ATOM     16  H   UNL     1      -1.398  10.825  22.200  0.00  0.00    +0.000 HD
BRANCH  13  17
ATOM     17  C   UNL     1      -1.619  12.604  23.331  0.00  0.00    +0.000 C 
BRANCH  17  22
ATOM     18  C   UNL     1      -7.342  13.137  22.299  0.00  0.00    +0.000 C 
ATOM     19  C   UNL     1      -5.876  12.969  22.571  0.00  0.00    +0.000 A 
ATOM     20  C   UNL     1      -5.391  12.865  23.879  0.00  0.00    +0.000 A 
ATOM     21  C   UNL     1      -4.021  12.726  24.120  0.00  0.00    +0.000 A 
ATOM     22  C   UNL     1      -3.102  12.686  23.060  0.00  0.00    +0.000 A 
ATOM     23  C   UNL     1      -3.593  12.782  21.751  0.00  0.00    +0.000 A 
ATOM     24  C   UNL     1      -4.962  12.925  21.509  0.00  0.00    +0.000 A 
ENDBRANCH  17  22
ENDBRANCH  13  17
ENDBRANCH   1  14
BRANCH   7  25
ATOM     25  S   UNL     1       2.238   4.771  19.839  0.00  0.00    +0.000 S 
ATOM     26  O   UNL     1       2.840   4.723  21.154  0.00  0.00    +0.000 OA
ATOM     27  O   UNL     1       0.978   4.118  19.566  0.00  0.00    +0.000 OA
BRANCH  25  28
ATOM     28  N   UNL     1       3.378   4.192  18.714  0.00  0.00    +0.000 NA
ATOM     29  C   UNL     1       2.881   3.335  17.596  0.00  0.00    +0.000 C 
ATOM     30  C   UNL     1       2.716   1.869  18.018  0.00  0.00    +0.000 C 
ATOM     31  O   UNL     1       3.925   1.338  18.577  0.00  0.00    +0.000 OA
ATOM     32  C   UNL     1       4.357   2.109  19.709  0.00  0.00    +0.000 C 
ATOM     33  C   UNL     1       4.603   3.570  19.318  0.00  0.00    +0.000 C 
ENDBRANCH  25  28
ENDBRANCH   7  25
TORSDOF 5
ENDMDL
