MODEL 1
REMARK VINA RESULT:      -9.3      0.000      0.000
REMARK  Name = 
REMARK  6 active torsions:
REMARK  status: ('A' for Active; 'I' for Inactive)
REMARK    1  A    between atoms: C_1  and  C_2
REMARK    2  A    between atoms: C_2  and  C_18
REMARK    3  A    between atoms: N_3  and  N_4
REMARK    4  A    between atoms: C_7  and  C_8
REMARK    5  A    between atoms: C_10  and  C_11
REMARK    6  A    between atoms: C_14  and  C_15
REMARK                            x       y       z     vdW  Elec       q    Type
REMARK                         _______ _______ _______ _____ _____    ______ ____
ROOT
ATOM      1  C   UNL     1      -0.761  10.002  17.947  0.00  0.00    +0.000 C 
ATOM      2  C   UNL     1       0.126  10.164  19.168  0.00  0.00    +0.000 C 
ATOM      3  N   UNL     1       1.333   9.671  19.260  0.00  0.00    +0.000 NA
ENDROOT
BRANCH   2   4
ATOM      4  C   UNL     1      -0.440  10.905  20.358  0.00  0.00    +0.000 A 
ATOM      5  C   UNL     1      -1.640  11.500  20.217  0.00  0.00    +0.000 A 
ATOM      6  C   UNL     1      -2.263  12.275  21.300  0.00  0.00    +0.000 A 
ATOM      7  C   UNL     1      -1.559  12.330  22.504  0.00  0.00    +0.000 A 
ATOM      8  C   UNL     1      -2.016  13.036  23.610  0.00  0.00    +0.000 A 
ATOM      9  C   UNL     1      -3.217  13.723  23.521  0.00  0.00    +0.000 A 
ATOM     10  C   UNL     1      -3.966  13.702  22.337  0.00  0.00    +0.000 A 
ATOM     11  C   UNL     1      -5.175  14.414  22.287  0.00  0.00    +0.000 A 
ATOM     12  C   UNL     1      -5.954  14.422  21.134  0.00  0.00    +0.000 A 
ATOM     13  C   UNL     1      -5.533  13.715  20.017  0.00  0.00    +0.000 A 
ATOM     14  C   UNL     1      -4.328  13.003  20.048  0.00  0.00    +0.000 A 
ATOM     15  C   UNL     1      -3.503  12.971  21.202  0.00  0.00    +0.000 A 
ATOM     16  O   UNL     1      -0.326  11.678  22.671  0.00  0.00    +0.000 OA
ATOM     17  C   UNL     1       0.292  10.986  21.641  0.00  0.00    +0.000 A 
ATOM     18  O   UNL     1       1.391  10.479  21.818  0.00  0.00    +0.000 OA
ENDBRANCH   2   4
BRANCH   3  19
ATOM     19  N   UNL     1       1.838   8.981  18.191  0.00  0.00    +0.000 N 
ATOM     20  C   UNL     1       2.543   7.826  18.358  0.00  0.00    +0.000 A 
ATOM     21  N   UNL     1       3.478   7.414  17.526  0.00  0.00    +0.000 NA
ATOM     22  C   UNL     1       4.042   6.222  17.967  0.00  0.00    +0.000 A 
ATOM     23  C   UNL     1       3.477   5.720  19.124  0.00  0.00    +0.000 A 
ATOM     24  S   UNL     1       2.250   6.762  19.688  0.00  0.00    +0.000 S 
ATOM     25  H   UNL     1       2.174   9.534  17.404  0.00  0.00    +0.000 HD
BRANCH  22  26
ATOM     26  C   UNL     1       5.154   5.557  17.273  0.00  0.00    +0.000 A 
ATOM     27  C   UNL     1       4.984   5.164  15.927  0.00  0.00    +0.000 A 
ATOM     28  C   UNL     1       5.988   4.487  15.220  0.00  0.00    +0.000 A 
ATOM     29  C   UNL     1       5.778   4.063  13.796  0.00  0.00    +0.000 C 
ATOM     30  C   UNL     1       7.192   4.210  15.862  0.00  0.00    +0.000 A 
ATOM     31  C   UNL     1       7.387   4.598  17.188  0.00  0.00    +0.000 A 
ATOM     32  C   UNL     1       6.379   5.266  17.910  0.00  0.00    +0.000 A 
ATOM     33  C   UNL     1       6.657   5.626  19.345  0.00  0.00    +0.000 C 
ENDBRANCH  22  26
ENDBRANCH   3  19
TORSDOF 3
ENDMDL
MODEL 2
REMARK VINA RESULT:      -9.3      3.145     11.013
REMARK  Name = 
REMARK  6 active torsions:
REMARK  status: ('A' for Active; 'I' for Inactive)
REMARK    1  A    between atoms: C_1  and  C_2
REMARK    2  A    between atoms: C_2  and  C_18
REMARK    3  A    between atoms: N_3  and  N_4
REMARK    4  A    between atoms: C_7  and  C_8
REMARK    5  A    between atoms: C_10  and  C_11
REMARK    6  A    between atoms: C_14  and  C_15
REMARK                            x       y       z     vdW  Elec       q    Type
REMARK                         _______ _______ _______ _____ _____    ______ ____
ROOT
ATOM      1  C   UNL     1      -0.143  10.031  18.064  0.00  0.00    +0.000 C 
ATOM      2  C   UNL     1       1.344   9.982  18.366  0.00  0.00    +0.000 C 
ATOM      3  N   UNL     1       2.140  11.015  18.267  0.00  0.00    +0.000 NA
ENDROOT
BRANCH   2   4
ATOM      4  C   UNL     1       1.939   8.650  18.762  0.00  0.00    +0.000 A 
ATOM      5  C   UNL     1       2.798   8.064  17.907  0.00  0.00    +0.000 A 
ATOM      6  C   UNL     1       3.405   6.753  18.180  0.00  0.00    +0.000 A 
ATOM      7  C   UNL     1       3.072   6.160  19.399  0.00  0.00    +0.000 A 
ATOM      8  C   UNL     1       3.557   4.918  19.787  0.00  0.00    +0.000 A 
ATOM      9  C   UNL     1       4.401   4.227  18.931  0.00  0.00    +0.000 A 
ATOM     10  C   UNL     1       4.769   4.774  17.695  0.00  0.00    +0.000 A 
ATOM     11  C   UNL     1       5.623   4.040  16.856  0.00  0.00    +0.000 A 
ATOM     12  C   UNL     1       6.018   4.543  15.620  0.00  0.00    +0.000 A 
ATOM     13  C   UNL     1       5.563   5.788  15.209  0.00  0.00    +0.000 A 
ATOM     14  C   UNL     1       4.708   6.531  16.031  0.00  0.00    +0.000 A 
ATOM     15  C   UNL     1       4.279   6.054  17.297  0.00  0.00    +0.000 A 
ATOM     16  O   UNL     1       2.209   6.785  20.314  0.00  0.00    +0.000 OA
ATOM     17  C   UNL     1       1.594   7.998  20.044  0.00  0.00    +0.000 A 
ATOM     18  O   UNL     1       0.808   8.478  20.849  0.00  0.00    +0.000 OA
ENDBRANCH   2   4
BRANCH   3  19
ATOM     19  N   UNL     1       1.605  12.215  17.887  0.00  0.00    +0.000 N 
ATOM     20  C   UNL     1       1.209  13.141  18.806  0.00  0.00    +0.000 A 
ATOM     21  N   UNL     1       0.246  14.016  18.594  0.00  0.00    +0.000 NA
ATOM     22  C   UNL     1       0.043  14.810  19.717  0.00  0.00    +0.000 A 
ATOM     23  C   UNL     1       0.909  14.548  20.762  0.00  0.00    +0.000 A 
ATOM     24  S   UNL     1       1.966  13.274  20.353  0.00  0.00    +0.000 S 
ATOM     25  H   UNL     1       1.018  12.214  17.055  0.00  0.00    +0.000 HD
BRANCH  22  26
ATOM     26  C   UNL     1      -1.010  15.833  19.794  0.00  0.00    +0.000 A 
ATOM     27  C   UNL     1      -2.112  15.618  20.650  0.00  0.00    +0.000 A 
ATOM     28  C   UNL     1      -3.172  16.532  20.739  0.00  0.00    +0.000 A 
ATOM     29  C   UNL     1      -4.342  16.274  21.641  0.00  0.00    +0.000 C 
ATOM     30  C   UNL     1      -3.124  17.693  19.970  0.00  0.00    +0.000 A 
ATOM     31  C   UNL     1      -2.040  17.932  19.126  0.00  0.00    +0.000 A 
ATOM     32  C   UNL     1      -0.979  17.012  19.020  0.00  0.00    +0.000 A 
ATOM     33  C   UNL     1       0.141  17.330  18.065  0.00  0.00    +0.000 C 
ENDBRANCH  22  26
ENDBRANCH   3  19
TORSDOF 3
ENDMDL
MODEL 3
REMARK VINA RESULT:      -9.2      2.130     11.281
REMARK  Name = 
REMARK  6 active torsions:
REMARK  status: ('A' for Active; 'I' for Inactive)
REMARK    1  A    between atoms: C_1  and  C_2
REMARK    2  A    between atoms: C_2  and  C_18
REMARK    3  A    between atoms: N_3  and  N_4
REMARK    4  A    between atoms: C_7  and  C_8
REMARK    5  A    between atoms: C_10  and  C_11
REMARK    6  A    between atoms: C_14  and  C_15
REMARK                            x       y       z     vdW  Elec       q    Type
REMARK                         _______ _______ _______ _____ _____    ______ ____
ROOT
ATOM      1  C   UNL     1       1.664   9.846  17.852  0.00  0.00    +0.000 C 
ATOM      2  C   UNL     1       1.543   9.068  19.151  0.00  0.00    +0.000 C 
ATOM      3  N   UNL     1       0.974   9.540  20.229  0.00  0.00    +0.000 NA
ENDROOT
BRANCH   2   4
ATOM      4  C   UNL     1       2.153   7.686  19.205  0.00  0.00    +0.000 A 
ATOM      5  C   UNL     1       2.990   7.327  18.213  0.00  0.00    +0.000 A 
ATOM      6  C   UNL     1       3.608   5.995  18.152  0.00  0.00    +0.000 A 
ATOM      7  C   UNL     1       3.312   5.128  19.204  0.00  0.00    +0.000 A 
ATOM      8  C   UNL     1       3.811   3.833  19.274  0.00  0.00    +0.000 A 
ATOM      9  C   UNL     1       4.633   3.373  18.257  0.00  0.00    +0.000 A 
ATOM     10  C   UNL     1       4.965   4.200  17.177  0.00  0.00    +0.000 A 
ATOM     11  C   UNL     1       5.798   3.694  16.166  0.00  0.00    +0.000 A 
ATOM     12  C   UNL     1       6.157   4.479  15.075  0.00  0.00    +0.000 A 
ATOM     13  C   UNL     1       5.687   5.782  14.982  0.00  0.00    +0.000 A 
ATOM     14  C   UNL     1       4.852   6.300  15.979  0.00  0.00    +0.000 A 
ATOM     15  C   UNL     1       4.460   5.533  17.106  0.00  0.00    +0.000 A 
ATOM     16  O   UNL     1       2.471   5.509  20.263  0.00  0.00    +0.000 OA
ATOM     17  C   UNL     1       1.845   6.745  20.304  0.00  0.00    +0.000 A 
ATOM     18  O   UNL     1       1.080   7.014  21.220  0.00  0.00    +0.000 OA
ENDBRANCH   2   4
BRANCH   3  19
ATOM     19  N   UNL     1       0.441  10.799  20.187  0.00  0.00    +0.000 N 
ATOM     20  C   UNL     1      -0.489  11.210  21.096  0.00  0.00    +0.000 A 
ATOM     21  N   UNL     1      -1.409  12.119  20.841  0.00  0.00    +0.000 NA
ATOM     22  C   UNL     1      -2.233  12.311  21.944  0.00  0.00    +0.000 A 
ATOM     23  C   UNL     1      -1.882  11.563  23.052  0.00  0.00    +0.000 A 
ATOM     24  S   UNL     1      -0.530  10.583  22.706  0.00  0.00    +0.000 S 
ATOM     25  H   UNL     1       0.292  11.205  19.264  0.00  0.00    +0.000 HD
BRANCH  22  26
ATOM     26  C   UNL     1      -3.387  13.221  21.932  0.00  0.00    +0.000 A 
ATOM     27  C   UNL     1      -4.657  12.711  21.584  0.00  0.00    +0.000 A 
ATOM     28  C   UNL     1      -5.792  13.533  21.510  0.00  0.00    +0.000 A 
ATOM     29  C   UNL     1      -7.128  12.973  21.121  0.00  0.00    +0.000 C 
ATOM     30  C   UNL     1      -5.660  14.888  21.805  0.00  0.00    +0.000 A 
ATOM     31  C   UNL     1      -4.417  15.412  22.161  0.00  0.00    +0.000 A 
ATOM     32  C   UNL     1      -3.271  14.596  22.224  0.00  0.00    +0.000 A 
ATOM     33  C   UNL     1      -1.961  15.243  22.589  0.00  0.00    +0.000 C 
ENDBRANCH  22  26
ENDBRANCH   3  19
TORSDOF 3
ENDMDL
MODEL 4
REMARK VINA RESULT:      -9.1      2.151      2.808
REMARK  Name = 
REMARK  6 active torsions:
REMARK  status: ('A' for Active; 'I' for Inactive)
REMARK    1  A    between atoms: C_1  and  C_2
REMARK    2  A    between atoms: C_2  and  C_18
REMARK    3  A    between atoms: N_3  and  N_4
REMARK    4  A    between atoms: C_7  and  C_8
REMARK    5  A    between atoms: C_10  and  C_11
REMARK    6  A    between atoms: C_14  and  C_15
REMARK                            x       y       z     vdW  Elec       q    Type
REMARK                         _______ _______ _______ _____ _____    ______ ____
ROOT
ATOM      1  C   UNL     1      -1.955  11.328  17.579  0.00  0.00    +0.000 C 
ATOM      2  C   UNL     1      -0.884  11.808  18.543  0.00  0.00    +0.000 C 
ATOM      3  N   UNL     1       0.275  11.222  18.692  0.00  0.00    +0.000 NA
ENDROOT
BRANCH   2   4
ATOM      4  C   UNL     1      -1.200  13.008  19.407  0.00  0.00    +0.000 A 
ATOM      5  C   UNL     1      -2.255  12.926  20.240  0.00  0.00    +0.000 A 
ATOM      6  C   UNL     1      -2.668  14.048  21.095  0.00  0.00    +0.000 A 
ATOM      7  C   UNL     1      -1.881  15.198  21.027  0.00  0.00    +0.000 A 
ATOM      8  C   UNL     1      -2.158  16.342  21.766  0.00  0.00    +0.000 A 
ATOM      9  C   UNL     1      -3.264  16.351  22.603  0.00  0.00    +0.000 A 
ATOM     10  C   UNL     1      -4.088  15.224  22.712  0.00  0.00    +0.000 A 
ATOM     11  C   UNL     1      -5.199  15.276  23.568  0.00  0.00    +0.000 A 
ATOM     12  C   UNL     1      -6.045  14.181  23.710  0.00  0.00    +0.000 A 
ATOM     13  C   UNL     1      -5.789  13.019  22.997  0.00  0.00    +0.000 A 
ATOM     14  C   UNL     1      -4.687  12.951  22.136  0.00  0.00    +0.000 A 
ATOM     15  C   UNL     1      -3.802  14.045  21.960  0.00  0.00    +0.000 A 
ATOM     16  O   UNL     1      -0.757  15.278  20.190  0.00  0.00    +0.000 OA
ATOM     17  C   UNL     1      -0.388  14.243  19.344  0.00  0.00    +0.000 A 
ATOM     18  O   UNL     1       0.569  14.377  18.594  0.00  0.00    +0.000 OA
ENDBRANCH   2   4
BRANCH   3  19
ATOM     19  N   UNL     1       0.552  10.122  17.927  0.00  0.00    +0.000 N 
ATOM     20  C   UNL     1       1.239   9.058  18.432  0.00  0.00    +0.000 A 
ATOM     21  N   UNL     1       1.991   8.260  17.700  0.00  0.00    +0.000 NA
ATOM     22  C   UNL     1       2.590   7.285  18.490  0.00  0.00    +0.000 A 
ATOM     23  C   UNL     1       2.232   7.335  19.824  0.00  0.00    +0.000 A 
ATOM     24  S   UNL     1       1.163   8.634  20.105  0.00  0.00    +0.000 S 
ATOM     25  H   UNL     1       0.754  10.286  16.942  0.00  0.00    +0.000 HD
BRANCH  22  26
ATOM     26  C   UNL     1       3.533   6.292  17.957  0.00  0.00    +0.000 A 
ATOM     27  C   UNL     1       4.875   6.672  17.736  0.00  0.00    +0.000 A 
ATOM     28  C   UNL     1       5.817   5.787  17.188  0.00  0.00    +0.000 A 
ATOM     29  C   UNL     1       7.233   6.218  16.946  0.00  0.00    +0.000 C 
ATOM     30  C   UNL     1       5.415   4.492  16.870  0.00  0.00    +0.000 A 
ATOM     31  C   UNL     1       4.097   4.091  17.089  0.00  0.00    +0.000 A 
ATOM     32  C   UNL     1       3.143   4.977  17.625  0.00  0.00    +0.000 A 
ATOM     33  C   UNL     1       1.734   4.476  17.805  0.00  0.00    +0.000 C 
ENDBRANCH  22  26
ENDBRANCH   3  19
TORSDOF 3
ENDMDL
MODEL 5
REMARK VINA RESULT:      -9.0      2.108     11.386
REMARK  Name = 
REMARK  6 active torsions:
REMARK  status: ('A' for Active; 'I' for Inactive)
REMARK    1  A    between atoms: C_1  and  C_2
REMARK    2  A    between atoms: C_2  and  C_18
REMARK    3  A    between atoms: N_3  and  N_4
REMARK    4  A    between atoms: C_7  and  C_8
REMARK    5  A    between atoms: C_10  and  C_11
REMARK    6  A    between atoms: C_14  and  C_15
REMARK                            x       y       z     vdW  Elec       q    Type
REMARK                         _______ _______ _______ _____ _____    ______ ____
ROOT
ATOM      1  C   UNL     1       1.844   9.936  17.931  0.00  0.00    +0.000 C 
ATOM      2  C   UNL     1       1.608   9.104  19.179  0.00  0.00    +0.000 C 
ATOM      3  N   UNL     1       0.976   9.542  20.236  0.00  0.00    +0.000 NA
ENDROOT
BRANCH   2   4
ATOM      4  C   UNL     1       2.174   7.702  19.209  0.00  0.00    +0.000 A 
ATOM      5  C   UNL     1       3.009   7.338  18.216  0.00  0.00    +0.000 A 
ATOM      6  C   UNL     1       3.586   5.989  18.132  0.00  0.00    +0.000 A 
ATOM      7  C   UNL     1       3.252   5.109  19.163  0.00  0.00    +0.000 A 
ATOM      8  C   UNL     1       3.710   3.798  19.210  0.00  0.00    +0.000 A 
ATOM      9  C   UNL     1       4.527   3.334  18.190  0.00  0.00    +0.000 A 
ATOM     10  C   UNL     1       4.895   4.173  17.130  0.00  0.00    +0.000 A 
ATOM     11  C   UNL     1       5.721   3.663  16.117  0.00  0.00    +0.000 A 
ATOM     12  C   UNL     1       6.115   4.459  15.045  0.00  0.00    +0.000 A 
ATOM     13  C   UNL     1       5.686   5.778  14.977  0.00  0.00    +0.000 A 
ATOM     14  C   UNL     1       4.859   6.301  15.977  0.00  0.00    +0.000 A 
ATOM     15  C   UNL     1       4.433   5.523  17.084  0.00  0.00    +0.000 A 
ATOM     16  O   UNL     1       2.414   5.494  20.223  0.00  0.00    +0.000 OA
ATOM     17  C   UNL     1       1.827   6.748  20.285  0.00  0.00    +0.000 A 
ATOM     18  O   UNL     1       1.062   7.021  21.199  0.00  0.00    +0.000 OA
ENDBRANCH   2   4
BRANCH   3  19
ATOM     19  N   UNL     1       0.483  10.818  20.218  0.00  0.00    +0.000 N 
ATOM     20  C   UNL     1      -0.463  11.229  21.111  0.00  0.00    +0.000 A 
ATOM     21  N   UNL     1      -1.346  12.173  20.857  0.00  0.00    +0.000 NA
ATOM     22  C   UNL     1      -2.199  12.356  21.939  0.00  0.00    +0.000 A 
ATOM     23  C   UNL     1      -1.906  11.564  23.034  0.00  0.00    +0.000 A 
ATOM     24  S   UNL     1      -0.573  10.554  22.698  0.00  0.00    +0.000 S 
ATOM     25  H   UNL     1       0.375  11.256  19.305  0.00  0.00    +0.000 HD
BRANCH  22  26
ATOM     26  C   UNL     1      -3.324  13.301  21.921  0.00  0.00    +0.000 A 
ATOM     27  C   UNL     1      -3.472  14.212  22.990  0.00  0.00    +0.000 A 
ATOM     28  C   UNL     1      -4.547  15.110  23.057  0.00  0.00    +0.000 A 
ATOM     29  C   UNL     1      -4.693  16.056  24.212  0.00  0.00    +0.000 C 
ATOM     30  C   UNL     1      -5.486  15.112  22.028  0.00  0.00    +0.000 A 
ATOM     31  C   UNL     1      -5.355  14.229  20.956  0.00  0.00    +0.000 A 
ATOM     32  C   UNL     1      -4.287  13.314  20.889  0.00  0.00    +0.000 A 
ATOM     33  C   UNL     1      -4.232  12.374  19.713  0.00  0.00    +0.000 C 
ENDBRANCH  22  26
ENDBRANCH   3  19
TORSDOF 3
ENDMDL
MODEL 6
REMARK VINA RESULT:      -9.0      2.090      3.337
REMARK  Name = 
REMARK  6 active torsions:
REMARK  status: ('A' for Active; 'I' for Inactive)
REMARK    1  A    between atoms: C_1  and  C_2
REMARK    2  A    between atoms: C_2  and  C_18
REMARK    3  A    between atoms: N_3  and  N_4
REMARK    4  A    between atoms: C_7  and  C_8
REMARK    5  A    between atoms: C_10  and  C_11
REMARK    6  A    between atoms: C_14  and  C_15
REMARK                            x       y       z     vdW  Elec       q    Type
REMARK                         _______ _______ _______ _____ _____    ______ ____
ROOT
ATOM      1  C   UNL     1      -0.605  10.087  23.148  0.00  0.00    +0.000 C 
ATOM      2  C   UNL     1      -0.604  10.957  21.903  0.00  0.00    +0.000 C 
ATOM      3  N   UNL     1       0.210  10.781  20.895  0.00  0.00    +0.000 NA
ENDROOT
BRANCH   2   4
ATOM      4  C   UNL     1      -1.574  12.116  21.852  0.00  0.00    +0.000 A 
ATOM      5  C   UNL     1      -2.644  12.006  21.042  0.00  0.00    +0.000 A 
ATOM      6  C   UNL     1      -3.627  13.089  20.892  0.00  0.00    +0.000 A 
ATOM      7  C   UNL     1      -3.414  14.229  21.667  0.00  0.00    +0.000 A 
ATOM      8  C   UNL     1      -4.251  15.337  21.620  0.00  0.00    +0.000 A 
ATOM      9  C   UNL     1      -5.342  15.320  20.764  0.00  0.00    +0.000 A 
ATOM     10  C   UNL     1      -5.605  14.202  19.964  0.00  0.00    +0.000 A 
ATOM     11  C   UNL     1      -6.719  14.227  19.109  0.00  0.00    +0.000 A 
ATOM     12  C   UNL     1      -7.022  13.139  18.297  0.00  0.00    +0.000 A 
ATOM     13  C   UNL     1      -6.214  12.011  18.331  0.00  0.00    +0.000 A 
ATOM     14  C   UNL     1      -5.098  11.971  19.174  0.00  0.00    +0.000 A 
ATOM     15  C   UNL     1      -4.752  13.059  20.016  0.00  0.00    +0.000 A 
ATOM     16  O   UNL     1      -2.321  14.335  22.543  0.00  0.00    +0.000 OA
ATOM     17  C   UNL     1      -1.362  13.340  22.656  0.00  0.00    +0.000 A 
ATOM     18  O   UNL     1      -0.399  13.498  23.393  0.00  0.00    +0.000 OA
ENDBRANCH   2   4
BRANCH   3  19
ATOM     19  N   UNL     1       1.103   9.746  20.952  0.00  0.00    +0.000 N 
ATOM     20  C   UNL     1       1.515   9.099  19.824  0.00  0.00    +0.000 A 
ATOM     21  N   UNL     1       1.896   7.837  19.804  0.00  0.00    +0.000 NA
ATOM     22  C   UNL     1       2.231   7.443  18.514  0.00  0.00    +0.000 A 
ATOM     23  C   UNL     1       2.142   8.449  17.571  0.00  0.00    +0.000 A 
ATOM     24  S   UNL     1       1.601   9.896  18.294  0.00  0.00    +0.000 S 
ATOM     25  H   UNL     1       1.038   9.126  21.757  0.00  0.00    +0.000 HD
BRANCH  22  26
ATOM     26  C   UNL     1       2.634   6.070  18.176  0.00  0.00    +0.000 A 
ATOM     27  C   UNL     1       1.760   5.005  18.483  0.00  0.00    +0.000 A 
ATOM     28  C   UNL     1       2.101   3.668  18.227  0.00  0.00    +0.000 A 
ATOM     29  C   UNL     1       1.164   2.551  18.578  0.00  0.00    +0.000 C 
ATOM     30  C   UNL     1       3.333   3.390  17.639  0.00  0.00    +0.000 A 
ATOM     31  C   UNL     1       4.208   4.427  17.317  0.00  0.00    +0.000 A 
ATOM     32  C   UNL     1       3.879   5.770  17.583  0.00  0.00    +0.000 A 
ATOM     33  C   UNL     1       4.890   6.830  17.232  0.00  0.00    +0.000 C 
ENDBRANCH  22  26
ENDBRANCH   3  19
TORSDOF 3
ENDMDL
MODEL 7
REMARK VINA RESULT:      -9.0      2.275      2.950
REMARK  Name = 
REMARK  6 active torsions:
REMARK  status: ('A' for Active; 'I' for Inactive)
REMARK    1  A    between atoms: C_1  and  C_2
REMARK    2  A    between atoms: C_2  and  C_18
REMARK    3  A    between atoms: N_3  and  N_4
REMARK    4  A    between atoms: C_7  and  C_8
REMARK    5  A    between atoms: C_10  and  C_11
REMARK    6  A    between atoms: C_14  and  C_15
REMARK                            x       y       z     vdW  Elec       q    Type
REMARK                         _______ _______ _______ _____ _____    ______ ____
ROOT
ATOM      1  C   UNL     1      -1.200  11.301  18.153  0.00  0.00    +0.000 C 
ATOM      2  C   UNL     1       0.028  11.818  18.880  0.00  0.00    +0.000 C 
ATOM      3  N   UNL     1       1.221  11.300  18.750  0.00  0.00    +0.000 NA
ENDROOT
BRANCH   2   4
ATOM      4  C   UNL     1      -0.154  12.972  19.840  0.00  0.00    +0.000 A 
ATOM      5  C   UNL     1      -0.996  12.803  20.877  0.00  0.00    +0.000 A 
ATOM      6  C   UNL     1      -1.272  13.873  21.846  0.00  0.00    +0.000 A 
ATOM      7  C   UNL     1      -0.580  15.071  21.657  0.00  0.00    +0.000 A 
ATOM      8  C   UNL     1      -0.748  16.174  22.484  0.00  0.00    +0.000 A 
ATOM      9  C   UNL     1      -1.644  16.093  23.540  0.00  0.00    +0.000 A 
ATOM     10  C   UNL     1      -2.365  14.916  23.777  0.00  0.00    +0.000 A 
ATOM     11  C   UNL     1      -3.264  14.877  24.855  0.00  0.00    +0.000 A 
ATOM     12  C   UNL     1      -4.000  13.730  25.132  0.00  0.00    +0.000 A 
ATOM     13  C   UNL     1      -3.845  12.605  24.333  0.00  0.00    +0.000 A 
ATOM     14  C   UNL     1      -2.955  12.628  23.253  0.00  0.00    +0.000 A 
ATOM     15  C   UNL     1      -2.188  13.778  22.934  0.00  0.00    +0.000 A 
ATOM     16  O   UNL     1       0.330  15.241  20.601  0.00  0.00    +0.000 OA
ATOM     17  C   UNL     1       0.559  14.255  19.653  0.00  0.00    +0.000 A 
ATOM     18  O   UNL     1       1.321  14.468  18.721  0.00  0.00    +0.000 OA
ENDBRANCH   2   4
BRANCH   3  19
ATOM     19  N   UNL     1       1.382  10.241  17.898  0.00  0.00    +0.000 N 
ATOM     20  C   UNL     1       1.807   9.025  18.346  0.00  0.00    +0.000 A 
ATOM     21  N   UNL     1       2.483   8.169  17.607  0.00  0.00    +0.000 NA
ATOM     22  C   UNL     1       2.805   7.031  18.337  0.00  0.00    +0.000 A 
ATOM     23  C   UNL     1       2.313   7.027  19.629  0.00  0.00    +0.000 A 
ATOM     24  S   UNL     1       1.469   8.474  19.949  0.00  0.00    +0.000 S 
ATOM     25  H   UNL     1       1.720  10.452  16.960  0.00  0.00    +0.000 HD
BRANCH  22  26
ATOM     26  C   UNL     1       3.610   5.930  17.790  0.00  0.00    +0.000 A 
ATOM     27  C   UNL     1       4.971   6.159  17.493  0.00  0.00    +0.000 A 
ATOM     28  C   UNL     1       5.785   5.165  16.929  0.00  0.00    +0.000 A 
ATOM     29  C   UNL     1       7.224   5.436  16.604  0.00  0.00    +0.000 C 
ATOM     30  C   UNL     1       5.233   3.912  16.670  0.00  0.00    +0.000 A 
ATOM     31  C   UNL     1       3.894   3.659  16.966  0.00  0.00    +0.000 A 
ATOM     32  C   UNL     1       3.067   4.656  17.519  0.00  0.00    +0.000 A 
ATOM     33  C   UNL     1       1.624   4.313  17.783  0.00  0.00    +0.000 C 
ENDBRANCH  22  26
ENDBRANCH   3  19
TORSDOF 3
ENDMDL
MODEL 8
REMARK VINA RESULT:      -8.9      1.645      1.827
REMARK  Name = 
REMARK  6 active torsions:
REMARK  status: ('A' for Active; 'I' for Inactive)
REMARK    1  A    between atoms: C_1  and  C_2
REMARK    2  A    between atoms: C_2  and  C_18
REMARK    3  A    between atoms: N_3  and  N_4
REMARK    4  A    between atoms: C_7  and  C_8
REMARK    5  A    between atoms: C_10  and  C_11
REMARK    6  A    between atoms: C_14  and  C_15
REMARK                            x       y       z     vdW  Elec       q    Type
REMARK                         _______ _______ _______ _____ _____    ______ ____
ROOT
ATOM      1  C   UNL     1      -0.702  10.010  17.917  0.00  0.00    +0.000 C 
ATOM      2  C   UNL     1       0.211  10.201  19.115  0.00  0.00    +0.000 C 
ATOM      3  N   UNL     1       1.423   9.717  19.189  0.00  0.00    +0.000 NA
ENDROOT
BRANCH   2   4
ATOM      4  C   UNL     1      -0.334  10.961  20.303  0.00  0.00    +0.000 A 
ATOM      5  C   UNL     1      -0.601  12.271  20.145  0.00  0.00    +0.000 A 
ATOM      6  C   UNL     1      -1.099  13.109  21.246  0.00  0.00    +0.000 A 
ATOM      7  C   UNL     1      -1.320  12.462  22.462  0.00  0.00    +0.000 A 
ATOM      8  C   UNL     1      -1.775  13.126  23.594  0.00  0.00    +0.000 A 
ATOM      9  C   UNL     1      -2.016  14.490  23.523  0.00  0.00    +0.000 A 
ATOM     10  C   UNL     1      -1.813  15.190  22.327  0.00  0.00    +0.000 A 
ATOM     11  C   UNL     1      -2.066  16.571  22.298  0.00  0.00    +0.000 A 
ATOM     12  C   UNL     1      -1.880  17.308  21.133  0.00  0.00    +0.000 A 
ATOM     13  C   UNL     1      -1.440  16.672  19.981  0.00  0.00    +0.000 A 
ATOM     14  C   UNL     1      -1.179  15.297  19.994  0.00  0.00    +0.000 A 
ATOM     15  C   UNL     1      -1.353  14.509  21.160  0.00  0.00    +0.000 A 
ATOM     16  O   UNL     1      -1.081  11.087  22.624  0.00  0.00    +0.000 OA
ATOM     17  C   UNL     1      -0.565  10.299  21.606  0.00  0.00    +0.000 A 
ATOM     18  O   UNL     1      -0.324   9.118  21.809  0.00  0.00    +0.000 OA
ENDBRANCH   2   4
BRANCH   3  19
ATOM     19  N   UNL     1       1.908   9.010  18.122  0.00  0.00    +0.000 N 
ATOM     20  C   UNL     1       2.601   7.848  18.294  0.00  0.00    +0.000 A 
ATOM     21  N   UNL     1       3.523   7.416  17.457  0.00  0.00    +0.000 NA
ATOM     22  C   UNL     1       4.078   6.223  17.905  0.00  0.00    +0.000 A 
ATOM     23  C   UNL     1       3.519   5.739  19.073  0.00  0.00    +0.000 A 
ATOM     24  S   UNL     1       2.310   6.802  19.638  0.00  0.00    +0.000 S 
ATOM     25  H   UNL     1       2.242   9.550  17.326  0.00  0.00    +0.000 HD
BRANCH  22  26
ATOM     26  C   UNL     1       5.174   5.538  17.206  0.00  0.00    +0.000 A 
ATOM     27  C   UNL     1       4.976   5.108  15.876  0.00  0.00    +0.000 A 
ATOM     28  C   UNL     1       5.964   4.410  15.166  0.00  0.00    +0.000 A 
ATOM     29  C   UNL     1       5.724   3.947  13.759  0.00  0.00    +0.000 C 
ATOM     30  C   UNL     1       7.181   4.149  15.791  0.00  0.00    +0.000 A 
ATOM     31  C   UNL     1       7.405   4.573  17.101  0.00  0.00    +0.000 A 
ATOM     32  C   UNL     1       6.412   5.262  17.825  0.00  0.00    +0.000 A 
ATOM     33  C   UNL     1       6.720   5.661  19.243  0.00  0.00    +0.000 C 
ENDBRANCH  22  26
ENDBRANCH   3  19
TORSDOF 3
ENDMDL
MODEL 9
REMARK VINA RESULT:      -8.9      1.778      3.126
REMARK  Name = 
REMARK  6 active torsions:
REMARK  status: ('A' for Active; 'I' for Inactive)
REMARK    1  A    between atoms: C_1  and  C_2
REMARK    2  A    between atoms: C_2  and  C_18
REMARK    3  A    between atoms: N_3  and  N_4
REMARK    4  A    between atoms: C_7  and  C_8
REMARK    5  A    between atoms: C_10  and  C_11
REMARK    6  A    between atoms: C_14  and  C_15
REMARK                            x       y       z     vdW  Elec       q    Type
REMARK                         _______ _______ _______ _____ _____    ______ ____
ROOT
ATOM      1  C   UNL     1       1.161  12.022  21.122  0.00  0.00    +0.000 C 
ATOM      2  C   UNL     1      -0.098  11.181  21.222  0.00  0.00    +0.000 C 
ATOM      3  N   UNL     1      -0.106   9.874  21.177  0.00  0.00    +0.000 NA
ENDROOT
BRANCH   2   4
ATOM      4  C   UNL     1      -1.422  11.904  21.340  0.00  0.00    +0.000 A 
ATOM      5  C   UNL     1      -2.286  11.807  20.313  0.00  0.00    +0.000 A 
ATOM      6  C   UNL     1      -3.583  12.499  20.312  0.00  0.00    +0.000 A 
ATOM      7  C   UNL     1      -3.891  13.237  21.456  0.00  0.00    +0.000 A 
ATOM      8  C   UNL     1      -5.072  13.955  21.592  0.00  0.00    +0.000 A 
ATOM      9  C   UNL     1      -5.987  13.950  20.550  0.00  0.00    +0.000 A 
ATOM     10  C   UNL     1      -5.731  13.226  19.378  0.00  0.00    +0.000 A 
ATOM     11  C   UNL     1      -6.681  13.250  18.345  0.00  0.00    +0.000 A 
ATOM     12  C   UNL     1      -6.473  12.546  17.164  0.00  0.00    +0.000 A 
ATOM     13  C   UNL     1      -5.309  11.807  17.002  0.00  0.00    +0.000 A 
ATOM     14  C   UNL     1      -4.349  11.776  18.020  0.00  0.00    +0.000 A 
ATOM     15  C   UNL     1      -4.522  12.481  19.239  0.00  0.00    +0.000 A 
ATOM     16  O   UNL     1      -3.010  13.310  22.548  0.00  0.00    +0.000 OA
ATOM     17  C   UNL     1      -1.765  12.700  22.539  0.00  0.00    +0.000 A 
ATOM     18  O   UNL     1      -1.010  12.835  23.492  0.00  0.00    +0.000 OA
ENDBRANCH   2   4
BRANCH   3  19
ATOM     19  N   UNL     1       1.090   9.221  21.048  0.00  0.00    +0.000 N 
ATOM     20  C   UNL     1       1.523   8.762  19.839  0.00  0.00    +0.000 A 
ATOM     21  N   UNL     1       2.313   7.717  19.694  0.00  0.00    +0.000 NA
ATOM     22  C   UNL     1       2.563   7.469  18.349  0.00  0.00    +0.000 A 
ATOM     23  C   UNL     1       1.985   8.381  17.486  0.00  0.00    +0.000 A 
ATOM     24  S   UNL     1       1.091   9.542  18.359  0.00  0.00    +0.000 S 
ATOM     25  H   UNL     1       1.368   8.615  21.818  0.00  0.00    +0.000 HD
BRANCH  22  26
ATOM     26  C   UNL     1       3.362   6.328  17.881  0.00  0.00    +0.000 A 
ATOM     27  C   UNL     1       4.696   6.547  17.474  0.00  0.00    +0.000 A 
ATOM     28  C   UNL     1       5.500   5.511  16.975  0.00  0.00    +0.000 A 
ATOM     29  C   UNL     1       6.909   5.771  16.532  0.00  0.00    +0.000 C 
ATOM     30  C   UNL     1       4.967   4.227  16.896  0.00  0.00    +0.000 A 
ATOM     31  C   UNL     1       3.655   3.984  17.302  0.00  0.00    +0.000 A 
ATOM     32  C   UNL     1       2.837   5.021  17.790  0.00  0.00    +0.000 A 
ATOM     33  C   UNL     1       1.423   4.683  18.182  0.00  0.00    +0.000 C 
ENDBRANCH  22  26
ENDBRANCH   3  19
TORSDOF 3
ENDMDL
