MODEL 1
REMARK VINA RESULT:      -7.5      0.000      0.000
REMARK  Name = 
REMARK  13 active torsions:
REMARK  status: ('A' for Active; 'I' for Inactive)
REMARK    1  A    between atoms: C_1  and  C_2
REMARK    2  A    between atoms: C_2  and  O_3
REMARK    3  A    between atoms: O_3  and  C_4
REMARK    4  A    between atoms: C_7  and  N_8
REMARK    5  A    between atoms: C_9  and  C_11
REMARK    6  A    between atoms: C_11  and  N_12
REMARK    7  A    between atoms: N_12  and  C_13
REMARK    8  A    between atoms: N_12  and  C_14
REMARK    9  A    between atoms: C_14  and  C_15
REMARK   10  A    between atoms: N_17  and  C_18
REMARK   11  A    between atoms: C_28  and  O_29
REMARK   12  A    between atoms: O_29  and  C_30
REMARK   13  A    between atoms: C_30  and  C_31
REMARK                            x       y       z     vdW  Elec       q    Type
REMARK                         _______ _______ _______ _____ _____    ______ ____
ROOT
ATOM      1  C   UNL     1       5.481   6.111  15.631  0.00  0.00    +0.000 C 
ENDROOT
BRANCH   1   3
ATOM      2  N   UNL     1       3.591   6.753  17.033  0.00  0.00    +0.000 N 
ATOM      3  C   UNL     1       4.959   6.896  16.836  0.00  0.00    +0.000 C 
ATOM      4  O   UNL     1       5.733   7.572  17.511  0.00  0.00    +0.000 OA
ATOM      5  H   UNL     1       3.088   6.304  16.274  0.00  0.00    +0.000 HD
BRANCH   2   9
ATOM      6  C   UNL     1       1.457   8.777  20.090  0.00  0.00    +0.000 A 
ATOM      7  C   UNL     1       2.012   7.513  20.314  0.00  0.00    +0.000 A 
ATOM      8  C   UNL     1       2.688   6.824  19.309  0.00  0.00    +0.000 A 
ATOM      9  C   UNL     1       2.833   7.377  18.046  0.00  0.00    +0.000 A 
ATOM     10  C   UNL     1       2.203   8.597  17.779  0.00  0.00    +0.000 A 
ATOM     11  C   UNL     1       1.494   9.296  18.783  0.00  0.00    +0.000 A 
BRANCH   6  12
ATOM     12  O   UNL     1       0.884   9.503  21.110  0.00  0.00    +0.000 OA
BRANCH  12  14
ATOM     13  C   UNL     1      -0.657   9.686  22.973  0.00  0.00    +0.000 C 
ATOM     14  C   UNL     1      -0.149   8.821  21.835  0.00  0.00    +0.000 C 
ENDBRANCH  12  14
ENDBRANCH   6  12
BRANCH  11  15
ATOM     15  O   UNL     1       0.947  10.468  18.326  0.00  0.00    +0.000 OA
BRANCH  15  16
ATOM     16  C   UNL     1       1.338  11.679  18.972  0.00  0.00    +0.000 C 
ATOM     17  C   UNL     1       2.444  12.324  18.151  0.00  0.00    +0.000 C 
ENDBRANCH  15  16
ENDBRANCH  11  15
ENDBRANCH   2   9
ENDBRANCH   1   3
BRANCH   1  18
ATOM     18  N   UNL     1       5.444   4.639  15.877  0.00  0.00    +0.000 NA
ATOM     19  C   UNL     1       5.898   3.932  14.663  0.00  0.00    +0.000 C 
BRANCH  18  20
ATOM     20  C   UNL     1       6.396   4.301  16.967  0.00  0.00    +0.000 C 
BRANCH  20  21
ATOM     21  C   UNL     1       5.680   4.077  18.297  0.00  0.00    +0.000 C 
ATOM     22  O   UNL     1       6.214   4.413  19.351  0.00  0.00    +0.000 OA
ATOM     23  N   UNL     1       4.440   3.474  18.174  0.00  0.00    +0.000 N 
ATOM     24  H   UNL     1       4.192   3.110  17.257  0.00  0.00    +0.000 HD
BRANCH  23  25
ATOM     25  C   UNL     1       3.547   3.197  19.235  0.00  0.00    +0.000 A 
ATOM     26  C   UNL     1       3.958   2.662  20.460  0.00  0.00    +0.000 A 
ATOM     27  C   UNL     1       3.026   2.372  21.462  0.00  0.00    +0.000 A 
ATOM     28  C   UNL     1       1.677   2.623  21.239  0.00  0.00    +0.000 A 
ATOM     29  F   UNL     1       0.791   2.320  22.196  0.00  0.00    +0.000 F 
ATOM     30  C   UNL     1       1.255   3.184  20.042  0.00  0.00    +0.000 A 
ATOM     31  F   UNL     1      -0.049   3.424  19.837  0.00  0.00    +0.000 F 
ATOM     32  C   UNL     1       2.185   3.479  19.050  0.00  0.00    +0.000 A 
ATOM     33  F   UNL     1       1.778   4.016  17.892  0.00  0.00    +0.000 F 
ENDBRANCH  23  25
ENDBRANCH  20  21
ENDBRANCH  18  20
ENDBRANCH   1  18
TORSDOF 10
ENDMDL
MODEL 2
REMARK VINA RESULT:      -7.2      4.610      8.906
REMARK  Name = 
REMARK  13 active torsions:
REMARK  status: ('A' for Active; 'I' for Inactive)
REMARK    1  A    between atoms: C_1  and  C_2
REMARK    2  A    between atoms: C_2  and  O_3
REMARK    3  A    between atoms: O_3  and  C_4
REMARK    4  A    between atoms: C_7  and  N_8
REMARK    5  A    between atoms: C_9  and  C_11
REMARK    6  A    between atoms: C_11  and  N_12
REMARK    7  A    between atoms: N_12  and  C_13
REMARK    8  A    between atoms: N_12  and  C_14
REMARK    9  A    between atoms: C_14  and  C_15
REMARK   10  A    between atoms: N_17  and  C_18
REMARK   11  A    between atoms: C_28  and  O_29
REMARK   12  A    between atoms: O_29  and  C_30
REMARK   13  A    between atoms: C_30  and  C_31
REMARK                            x       y       z     vdW  Elec       q    Type
REMARK                         _______ _______ _______ _____ _____    ______ ____
ROOT
ATOM      1  C   UNL     1       0.530  10.043  22.180  0.00  0.00    +0.000 C 
ENDROOT
BRANCH   1   3
ATOM      2  N   UNL     1       1.703   8.294  20.950  0.00  0.00    +0.000 N 
ATOM      3  C   UNL     1       0.456   8.825  21.257  0.00  0.00    +0.000 C 
ATOM      4  O   UNL     1      -0.635   8.421  20.859  0.00  0.00    +0.000 OA
ATOM      5  H   UNL     1       2.497   8.866  21.220  0.00  0.00    +0.000 HD
BRANCH   2   9
ATOM      6  C   UNL     1       2.566   4.906  18.545  0.00  0.00    +0.000 A 
ATOM      7  C   UNL     1       2.909   6.196  18.125  0.00  0.00    +0.000 A 
ATOM      8  C   UNL     1       2.603   7.319  18.890  0.00  0.00    +0.000 A 
ATOM      9  C   UNL     1       1.945   7.191  20.104  0.00  0.00    +0.000 A 
ATOM     10  C   UNL     1       1.512   5.919  20.493  0.00  0.00    +0.000 A 
ATOM     11  C   UNL     1       1.795   4.774  19.714  0.00  0.00    +0.000 A 
BRANCH   6  12
ATOM     12  O   UNL     1       2.963   3.791  17.843  0.00  0.00    +0.000 OA
BRANCH  12  14
ATOM     13  C   UNL     1       4.950   3.865  16.455  0.00  0.00    +0.000 C 
ATOM     14  C   UNL     1       4.378   3.555  17.826  0.00  0.00    +0.000 C 
ENDBRANCH  12  14
ENDBRANCH   6  12
BRANCH  11  15
ATOM     15  O   UNL     1       1.286   3.623  20.261  0.00  0.00    +0.000 OA
BRANCH  15  16
ATOM     16  C   UNL     1       1.785   3.216  21.534  0.00  0.00    +0.000 C 
ATOM     17  C   UNL     1       3.114   2.505  21.323  0.00  0.00    +0.000 C 
ENDBRANCH  15  16
ENDBRANCH  11  15
ENDBRANCH   2   9
ENDBRANCH   1   3
BRANCH   1  18
ATOM     18  N   UNL     1      -0.561  11.019  21.887  0.00  0.00    +0.000 NA
ATOM     19  C   UNL     1      -1.039  11.609  23.155  0.00  0.00    +0.000 C 
BRANCH  18  20
ATOM     20  C   UNL     1      -0.015  12.129  21.063  0.00  0.00    +0.000 C 
BRANCH  20  21
ATOM     21  C   UNL     1      -0.655  12.175  19.678  0.00  0.00    +0.000 C 
ATOM     22  O   UNL     1      -0.368  13.075  18.892  0.00  0.00    +0.000 OA
ATOM     23  N   UNL     1      -1.552  11.148  19.438  0.00  0.00    +0.000 N 
ATOM     24  H   UNL     1      -1.809  10.564  20.230  0.00  0.00    +0.000 HD
BRANCH  23  25
ATOM     25  C   UNL     1      -2.246  10.923  18.226  0.00  0.00    +0.000 A 
ATOM     26  C   UNL     1      -1.745  10.119  17.196  0.00  0.00    +0.000 A 
ATOM     27  C   UNL     1      -2.458   9.962  16.003  0.00  0.00    +0.000 A 
ATOM     28  C   UNL     1      -3.678  10.607  15.840  0.00  0.00    +0.000 A 
ATOM     29  F   UNL     1      -4.340  10.467  14.685  0.00  0.00    +0.000 F 
ATOM     30  C   UNL     1      -4.205  11.382  16.864  0.00  0.00    +0.000 A 
ATOM     31  F   UNL     1      -5.385  11.999  16.699  0.00  0.00    +0.000 F 
ATOM     32  C   UNL     1      -3.499  11.530  18.054  0.00  0.00    +0.000 A 
ATOM     33  F   UNL     1      -4.004  12.282  19.041  0.00  0.00    +0.000 F 
ENDBRANCH  23  25
ENDBRANCH  20  21
ENDBRANCH  18  20
ENDBRANCH   1  18
TORSDOF 10
ENDMDL
MODEL 3
REMARK VINA RESULT:      -7.1      3.136      7.439
REMARK  Name = 
REMARK  13 active torsions:
REMARK  status: ('A' for Active; 'I' for Inactive)
REMARK    1  A    between atoms: C_1  and  C_2
REMARK    2  A    between atoms: C_2  and  O_3
REMARK    3  A    between atoms: O_3  and  C_4
REMARK    4  A    between atoms: C_7  and  N_8
REMARK    5  A    between atoms: C_9  and  C_11
REMARK    6  A    between atoms: C_11  and  N_12
REMARK    7  A    between atoms: N_12  and  C_13
REMARK    8  A    between atoms: N_12  and  C_14
REMARK    9  A    between atoms: C_14  and  C_15
REMARK   10  A    between atoms: N_17  and  C_18
REMARK   11  A    between atoms: C_28  and  O_29
REMARK   12  A    between atoms: O_29  and  C_30
REMARK   13  A    between atoms: C_30  and  C_31
REMARK                            x       y       z     vdW  Elec       q    Type
REMARK                         _______ _______ _______ _____ _____    ______ ____
ROOT
ATOM      1  C   UNL     1       2.454   2.461  19.512  0.00  0.00    +0.000 C 
ENDROOT
BRANCH   1   3
ATOM      2  N   UNL     1       3.732   3.426  17.672  0.00  0.00    +0.000 N 
ATOM      3  C   UNL     1       3.819   2.773  18.896  0.00  0.00    +0.000 C 
ATOM      4  O   UNL     1       4.848   2.439  19.480  0.00  0.00    +0.000 OA
ATOM      5  H   UNL     1       2.804   3.457  17.262  0.00  0.00    +0.000 HD
BRANCH   2   9
ATOM      6  C   UNL     1       6.945   4.790  15.261  0.00  0.00    +0.000 A 
ATOM      7  C   UNL     1       5.925   3.999  14.723  0.00  0.00    +0.000 A 
ATOM      8  C   UNL     1       4.881   3.519  15.510  0.00  0.00    +0.000 A 
ATOM      9  C   UNL     1       4.821   3.814  16.864  0.00  0.00    +0.000 A 
ATOM     10  C   UNL     1       5.882   4.524  17.436  0.00  0.00    +0.000 A 
ATOM     11  C   UNL     1       6.959   4.997  16.652  0.00  0.00    +0.000 A 
BRANCH   6  12
ATOM     12  O   UNL     1       7.916   5.353  14.464  0.00  0.00    +0.000 OA
BRANCH  12  14
ATOM     13  C   UNL     1       8.542   6.145  12.259  0.00  0.00    +0.000 C 
ATOM     14  C   UNL     1       7.756   5.122  13.057  0.00  0.00    +0.000 C 
ENDBRANCH  12  14
ENDBRANCH   6  12
BRANCH  11  15
ATOM     15  O   UNL     1       7.899   5.667  17.395  0.00  0.00    +0.000 OA
BRANCH  15  16
ATOM     16  C   UNL     1       7.444   6.710  18.256  0.00  0.00    +0.000 C 
ATOM     17  C   UNL     1       7.760   8.045  17.598  0.00  0.00    +0.000 C 
ENDBRANCH  15  16
ENDBRANCH  11  15
ENDBRANCH   2   9
ENDBRANCH   1   3
BRANCH   1  18
ATOM     18  N   UNL     1       1.927   3.620  20.291  0.00  0.00    +0.000 NA
ATOM     19  C   UNL     1       1.715   3.207  21.693  0.00  0.00    +0.000 C 
BRANCH  18  20
ATOM     20  C   UNL     1       2.941   4.706  20.300  0.00  0.00    +0.000 C 
BRANCH  20  21
ATOM     21  C   UNL     1       2.432   5.964  19.599  0.00  0.00    +0.000 C 
ATOM     22  O   UNL     1       2.302   5.982  18.378  0.00  0.00    +0.000 OA
ATOM     23  N   UNL     1       2.164   7.017  20.457  0.00  0.00    +0.000 N 
ATOM     24  H   UNL     1       2.464   6.913  21.423  0.00  0.00    +0.000 HD
BRANCH  23  25
ATOM     25  C   UNL     1       1.638   8.275  20.083  0.00  0.00    +0.000 A 
ATOM     26  C   UNL     1       1.671   8.757  18.769  0.00  0.00    +0.000 A 
ATOM     27  C   UNL     1       1.169  10.026  18.462  0.00  0.00    +0.000 A 
ATOM     28  C   UNL     1       0.628  10.815  19.471  0.00  0.00    +0.000 A 
ATOM     29  F   UNL     1       0.171  12.036  19.169  0.00  0.00    +0.000 F 
ATOM     30  C   UNL     1       0.557  10.339  20.772  0.00  0.00    +0.000 A 
ATOM     31  F   UNL     1       0.031  11.106  21.739  0.00  0.00    +0.000 F 
ATOM     32  C   UNL     1       1.050   9.073  21.074  0.00  0.00    +0.000 A 
ATOM     33  F   UNL     1       0.987   8.615  22.332  0.00  0.00    +0.000 F 
ENDBRANCH  23  25
ENDBRANCH  20  21
ENDBRANCH  18  20
ENDBRANCH   1  18
TORSDOF 10
ENDMDL
MODEL 4
REMARK VINA RESULT:      -6.9      4.580      9.654
REMARK  Name = 
REMARK  13 active torsions:
REMARK  status: ('A' for Active; 'I' for Inactive)
REMARK    1  A    between atoms: C_1  and  C_2
REMARK    2  A    between atoms: C_2  and  O_3
REMARK    3  A    between atoms: O_3  and  C_4
REMARK    4  A    between atoms: C_7  and  N_8
REMARK    5  A    between atoms: C_9  and  C_11
REMARK    6  A    between atoms: C_11  and  N_12
REMARK    7  A    between atoms: N_12  and  C_13
REMARK    8  A    between atoms: N_12  and  C_14
REMARK    9  A    between atoms: C_14  and  C_15
REMARK   10  A    between atoms: N_17  and  C_18
REMARK   11  A    between atoms: C_28  and  O_29
REMARK   12  A    between atoms: O_29  and  C_30
REMARK   13  A    between atoms: C_30  and  C_31
REMARK                            x       y       z     vdW  Elec       q    Type
REMARK                         _______ _______ _______ _____ _____    ______ ____
ROOT
ATOM      1  C   UNL     1       0.971   9.800  19.651  0.00  0.00    +0.000 C 
ENDROOT
BRANCH   1   3
ATOM      2  N   UNL     1       2.121   7.741  19.029  0.00  0.00    +0.000 N 
ATOM      3  C   UNL     1       1.720   8.997  18.587  0.00  0.00    +0.000 C 
ATOM      4  O   UNL     1       1.918   9.484  17.476  0.00  0.00    +0.000 OA
ATOM      5  H   UNL     1       2.030   7.583  20.027  0.00  0.00    +0.000 HD
BRANCH   2   9
ATOM      6  C   UNL     1       4.369   4.808  16.945  0.00  0.00    +0.000 A 
ATOM      7  C   UNL     1       4.746   6.154  16.924  0.00  0.00    +0.000 A 
ATOM      8  C   UNL     1       3.999   7.132  17.578  0.00  0.00    +0.000 A 
ATOM      9  C   UNL     1       2.849   6.796  18.277  0.00  0.00    +0.000 A 
ATOM     10  C   UNL     1       2.407   5.469  18.228  0.00  0.00    +0.000 A 
ATOM     11  C   UNL     1       3.143   4.472  17.549  0.00  0.00    +0.000 A 
BRANCH   6  12
ATOM     12  O   UNL     1       5.163   3.829  16.391  0.00  0.00    +0.000 OA
BRANCH  12  14
ATOM     13  C   UNL     1       6.255   3.914  14.228  0.00  0.00    +0.000 C 
ATOM     14  C   UNL     1       6.319   4.309  15.691  0.00  0.00    +0.000 C 
ENDBRANCH  12  14
ENDBRANCH   6  12
BRANCH  11  15
ATOM     15  O   UNL     1       2.547   3.238  17.614  0.00  0.00    +0.000 OA
BRANCH  15  16
ATOM     16  C   UNL     1       2.758   2.460  18.792  0.00  0.00    +0.000 C 
ATOM     17  C   UNL     1       3.712   1.325  18.451  0.00  0.00    +0.000 C 
ENDBRANCH  15  16
ENDBRANCH  11  15
ENDBRANCH   2   9
ENDBRANCH   1   3
BRANCH   1  18
ATOM     18  N   UNL     1       0.085  10.833  19.037  0.00  0.00    +0.000 NA
ATOM     19  C   UNL     1      -1.214  10.218  18.696  0.00  0.00    +0.000 C 
BRANCH  18  20
ATOM     20  C   UNL     1      -0.181  11.904  20.032  0.00  0.00    +0.000 C 
BRANCH  20  21
ATOM     21  C   UNL     1       1.012  12.843  20.188  0.00  0.00    +0.000 C 
ATOM     22  O   UNL     1       1.666  12.847  21.228  0.00  0.00    +0.000 OA
ATOM     23  N   UNL     1       1.244  13.647  19.084  0.00  0.00    +0.000 N 
ATOM     24  H   UNL     1       0.533  13.649  18.357  0.00  0.00    +0.000 HD
BRANCH  23  25
ATOM     25  C   UNL     1       2.308  14.568  18.941  0.00  0.00    +0.000 A 
ATOM     26  C   UNL     1       2.242  15.889  19.397  0.00  0.00    +0.000 A 
ATOM     27  C   UNL     1       3.310  16.768  19.194  0.00  0.00    +0.000 A 
ATOM     28  C   UNL     1       4.452  16.324  18.537  0.00  0.00    +0.000 A 
ATOM     29  F   UNL     1       5.460  17.180  18.330  0.00  0.00    +0.000 F 
ATOM     30  C   UNL     1       4.547  15.007  18.108  0.00  0.00    +0.000 A 
ATOM     31  F   UNL     1       5.654  14.586  17.478  0.00  0.00    +0.000 F 
ATOM     32  C   UNL     1       3.486  14.132  18.318  0.00  0.00    +0.000 A 
ATOM     33  F   UNL     1       3.575  12.863  17.899  0.00  0.00    +0.000 F 
ENDBRANCH  23  25
ENDBRANCH  20  21
ENDBRANCH  18  20
ENDBRANCH   1  18
TORSDOF 10
ENDMDL
MODEL 5
REMARK VINA RESULT:      -6.9      1.018      1.169
REMARK  Name = 
REMARK  13 active torsions:
REMARK  status: ('A' for Active; 'I' for Inactive)
REMARK    1  A    between atoms: C_1  and  C_2
REMARK    2  A    between atoms: C_2  and  O_3
REMARK    3  A    between atoms: O_3  and  C_4
REMARK    4  A    between atoms: C_7  and  N_8
REMARK    5  A    between atoms: C_9  and  C_11
REMARK    6  A    between atoms: C_11  and  N_12
REMARK    7  A    between atoms: N_12  and  C_13
REMARK    8  A    between atoms: N_12  and  C_14
REMARK    9  A    between atoms: C_14  and  C_15
REMARK   10  A    between atoms: N_17  and  C_18
REMARK   11  A    between atoms: C_28  and  O_29
REMARK   12  A    between atoms: O_29  and  C_30
REMARK   13  A    between atoms: C_30  and  C_31
REMARK                            x       y       z     vdW  Elec       q    Type
REMARK                         _______ _______ _______ _____ _____    ______ ____
ROOT
ATOM      1  C   UNL     1       5.390   6.528  15.630  0.00  0.00    +0.000 C 
ENDROOT
BRANCH   1   3
ATOM      2  N   UNL     1       3.448   7.162  16.964  0.00  0.00    +0.000 N 
ATOM      3  C   UNL     1       4.836   7.188  16.894  0.00  0.00    +0.000 C 
ATOM      4  O   UNL     1       5.605   7.680  17.718  0.00  0.00    +0.000 OA
ATOM      5  H   UNL     1       2.977   6.878  16.111  0.00  0.00    +0.000 HD
BRANCH   2   9
ATOM      6  C   UNL     1       1.217   8.987  20.077  0.00  0.00    +0.000 A 
ATOM      7  C   UNL     1       1.895   7.781  20.286  0.00  0.00    +0.000 A 
ATOM      8  C   UNL     1       2.605   7.156  19.264  0.00  0.00    +0.000 A 
ATOM      9  C   UNL     1       2.663   7.715  17.996  0.00  0.00    +0.000 A 
ATOM     10  C   UNL     1       1.913   8.870  17.746  0.00  0.00    +0.000 A 
ATOM     11  C   UNL     1       1.170   9.502  18.769  0.00  0.00    +0.000 A 
BRANCH   6  12
ATOM     12  O   UNL     1       0.607   9.659  21.112  0.00  0.00    +0.000 OA
BRANCH  12  14
ATOM     13  C   UNL     1      -0.137   9.540  23.417  0.00  0.00    +0.000 C 
ATOM     14  C   UNL     1      -0.034   8.822  22.085  0.00  0.00    +0.000 C 
ENDBRANCH  12  14
ENDBRANCH   6  12
BRANCH  11  15
ATOM     15  O   UNL     1       0.503  10.616  18.326  0.00  0.00    +0.000 OA
BRANCH  15  16
ATOM     16  C   UNL     1      -0.902  10.503  18.102  0.00  0.00    +0.000 C 
ATOM     17  C   UNL     1      -1.623  11.338  19.150  0.00  0.00    +0.000 C 
ENDBRANCH  15  16
ENDBRANCH  11  15
ENDBRANCH   2   9
ENDBRANCH   1   3
BRANCH   1  18
ATOM     18  N   UNL     1       5.330   5.039  15.718  0.00  0.00    +0.000 NA
ATOM     19  C   UNL     1       5.762   4.458  14.431  0.00  0.00    +0.000 C 
BRANCH  18  20
ATOM     20  C   UNL     1       6.285   4.571  16.756  0.00  0.00    +0.000 C 
BRANCH  20  21
ATOM     21  C   UNL     1       5.572   4.181  18.049  0.00  0.00    +0.000 C 
ATOM     22  O   UNL     1       6.202   4.091  19.100  0.00  0.00    +0.000 OA
ATOM     23  N   UNL     1       4.217   3.945  17.895  0.00  0.00    +0.000 N 
ATOM     24  H   UNL     1       3.860   3.905  16.944  0.00  0.00    +0.000 HD
BRANCH  23  25
ATOM     25  C   UNL     1       3.312   3.619  18.932  0.00  0.00    +0.000 A 
ATOM     26  C   UNL     1       3.456   4.079  20.246  0.00  0.00    +0.000 A 
ATOM     27  C   UNL     1       2.552   3.694  21.240  0.00  0.00    +0.000 A 
ATOM     28  C   UNL     1       1.496   2.848  20.920  0.00  0.00    +0.000 A 
ATOM     29  F   UNL     1       0.649   2.469  21.885  0.00  0.00    +0.000 F 
ATOM     30  C   UNL     1       1.319   2.409  19.616  0.00  0.00    +0.000 A 
ATOM     31  F   UNL     1       0.296   1.595  19.315  0.00  0.00    +0.000 F 
ATOM     32  C   UNL     1       2.215   2.800  18.626  0.00  0.00    +0.000 A 
ATOM     33  F   UNL     1       2.049   2.371  17.367  0.00  0.00    +0.000 F 
ENDBRANCH  23  25
ENDBRANCH  20  21
ENDBRANCH  18  20
ENDBRANCH   1  18
TORSDOF 10
ENDMDL
MODEL 6
REMARK VINA RESULT:      -6.8      4.698      5.926
REMARK  Name = 
REMARK  13 active torsions:
REMARK  status: ('A' for Active; 'I' for Inactive)
REMARK    1  A    between atoms: C_1  and  C_2
REMARK    2  A    between atoms: C_2  and  O_3
REMARK    3  A    between atoms: O_3  and  C_4
REMARK    4  A    between atoms: C_7  and  N_8
REMARK    5  A    between atoms: C_9  and  C_11
REMARK    6  A    between atoms: C_11  and  N_12
REMARK    7  A    between atoms: N_12  and  C_13
REMARK    8  A    between atoms: N_12  and  C_14
REMARK    9  A    between atoms: C_14  and  C_15
REMARK   10  A    between atoms: N_17  and  C_18
REMARK   11  A    between atoms: C_28  and  O_29
REMARK   12  A    between atoms: O_29  and  C_30
REMARK   13  A    between atoms: C_30  and  C_31
REMARK                            x       y       z     vdW  Elec       q    Type
REMARK                         _______ _______ _______ _____ _____    ______ ____
ROOT
ATOM      1  C   UNL     1       7.336   6.699  17.814  0.00  0.00    +0.000 C 
ENDROOT
BRANCH   1   3
ATOM      2  N   UNL     1       8.658   8.553  18.688  0.00  0.00    +0.000 N 
ATOM      3  C   UNL     1       7.649   8.196  17.801  0.00  0.00    +0.000 C 
ATOM      4  O   UNL     1       7.021   8.949  17.059  0.00  0.00    +0.000 OA
ATOM      5  H   UNL     1       8.933   7.831  19.346  0.00  0.00    +0.000 HD
BRANCH   2   9
ATOM      6  C   UNL     1       9.908  12.545  19.398  0.00  0.00    +0.000 A 
ATOM      7  C   UNL     1       9.974  11.985  18.118  0.00  0.00    +0.000 A 
ATOM      8  C   UNL     1       9.597  10.666  17.878  0.00  0.00    +0.000 A 
ATOM      9  C   UNL     1       9.138   9.861  18.909  0.00  0.00    +0.000 A 
ATOM     10  C   UNL     1       9.156  10.376  20.210  0.00  0.00    +0.000 A 
ATOM     11  C   UNL     1       9.559  11.705  20.472  0.00  0.00    +0.000 A 
BRANCH   6  12
ATOM     12  O   UNL     1      10.178  13.877  19.617  0.00  0.00    +0.000 OA
BRANCH  12  14
ATOM     13  C   UNL     1       7.921  14.739  19.413  0.00  0.00    +0.000 C 
ATOM     14  C   UNL     1       9.344  14.792  18.892  0.00  0.00    +0.000 C 
ENDBRANCH  12  14
ENDBRANCH   6  12
BRANCH  11  15
ATOM     15  O   UNL     1       9.508  12.020  21.806  0.00  0.00    +0.000 OA
BRANCH  15  16
ATOM     16  C   UNL     1       8.243  12.384  22.355  0.00  0.00    +0.000 C 
ATOM     17  C   UNL     1       8.163  11.843  23.774  0.00  0.00    +0.000 C 
ENDBRANCH  15  16
ENDBRANCH  11  15
ENDBRANCH   2   9
ENDBRANCH   1   3
BRANCH   1  18
ATOM     18  N   UNL     1       7.005   6.196  16.448  0.00  0.00    +0.000 NA
ATOM     19  C   UNL     1       7.471   4.801  16.317  0.00  0.00    +0.000 C 
BRANCH  18  20
ATOM     20  C   UNL     1       5.529   6.187  16.274  0.00  0.00    +0.000 C 
BRANCH  20  21
ATOM     21  C   UNL     1       4.854   5.185  17.207  0.00  0.00    +0.000 C 
ATOM     22  O   UNL     1       5.308   4.049  17.328  0.00  0.00    +0.000 OA
ATOM     23  N   UNL     1       3.732   5.680  17.849  0.00  0.00    +0.000 N 
ATOM     24  H   UNL     1       3.383   6.583  17.538  0.00  0.00    +0.000 HD
BRANCH  23  25
ATOM     25  C   UNL     1       2.950   4.986  18.801  0.00  0.00    +0.000 A 
ATOM     26  C   UNL     1       3.073   5.181  20.181  0.00  0.00    +0.000 A 
ATOM     27  C   UNL     1       2.299   4.438  21.078  0.00  0.00    +0.000 A 
ATOM     28  C   UNL     1       1.396   3.499  20.595  0.00  0.00    +0.000 A 
ATOM     29  F   UNL     1       0.677   2.778  21.464  0.00  0.00    +0.000 F 
ATOM     30  C   UNL     1       1.237   3.316  19.228  0.00  0.00    +0.000 A 
ATOM     31  F   UNL     1       0.361   2.409  18.770  0.00  0.00    +0.000 F 
ATOM     32  C   UNL     1       2.002   4.062  18.337  0.00  0.00    +0.000 A 
ATOM     33  F   UNL     1       1.854   3.882  17.017  0.00  0.00    +0.000 F 
ENDBRANCH  23  25
ENDBRANCH  20  21
ENDBRANCH  18  20
ENDBRANCH   1  18
TORSDOF 10
ENDMDL
MODEL 7
REMARK VINA RESULT:      -6.8      4.254      5.446
REMARK  Name = 
REMARK  13 active torsions:
REMARK  status: ('A' for Active; 'I' for Inactive)
REMARK    1  A    between atoms: C_1  and  C_2
REMARK    2  A    between atoms: C_2  and  O_3
REMARK    3  A    between atoms: O_3  and  C_4
REMARK    4  A    between atoms: C_7  and  N_8
REMARK    5  A    between atoms: C_9  and  C_11
REMARK    6  A    between atoms: C_11  and  N_12
REMARK    7  A    between atoms: N_12  and  C_13
REMARK    8  A    between atoms: N_12  and  C_14
REMARK    9  A    between atoms: C_14  and  C_15
REMARK   10  A    between atoms: N_17  and  C_18
REMARK   11  A    between atoms: C_28  and  O_29
REMARK   12  A    between atoms: O_29  and  C_30
REMARK   13  A    between atoms: C_30  and  C_31
REMARK                            x       y       z     vdW  Elec       q    Type
REMARK                         _______ _______ _______ _____ _____    ______ ____
ROOT
ATOM      1  C   UNL     1       7.099   5.818  17.386  0.00  0.00    +0.000 C 
ENDROOT
BRANCH   1   3
ATOM      2  N   UNL     1       7.708   8.175  17.543  0.00  0.00    +0.000 N 
ATOM      3  C   UNL     1       7.761   6.942  18.184  0.00  0.00    +0.000 C 
ATOM      4  O   UNL     1       8.277   6.701  19.273  0.00  0.00    +0.000 OA
ATOM      5  H   UNL     1       7.406   8.147  16.574  0.00  0.00    +0.000 HD
BRANCH   2   9
ATOM      6  C   UNL     1       9.471  11.814  18.825  0.00  0.00    +0.000 A 
ATOM      7  C   UNL     1       9.718  10.615  19.502  0.00  0.00    +0.000 A 
ATOM      8  C   UNL     1       9.120   9.420  19.111  0.00  0.00    +0.000 A 
ATOM      9  C   UNL     1       8.256   9.381  18.026  0.00  0.00    +0.000 A 
ATOM     10  C   UNL     1       7.926  10.586  17.398  0.00  0.00    +0.000 A 
ATOM     11  C   UNL     1       8.507  11.811  17.801  0.00  0.00    +0.000 A 
BRANCH   6  12
ATOM     12  O   UNL     1      10.143  12.973  19.144  0.00  0.00    +0.000 OA
BRANCH  12  14
ATOM     13  C   UNL     1       9.708  13.870  21.354  0.00  0.00    +0.000 C 
ATOM     14  C   UNL     1      10.636  13.038  20.490  0.00  0.00    +0.000 C 
ENDBRANCH  12  14
ENDBRANCH   6  12
BRANCH  11  15
ATOM     15  O   UNL     1       8.056  12.877  17.065  0.00  0.00    +0.000 OA
BRANCH  15  16
ATOM     16  C   UNL     1       7.129  13.766  17.686  0.00  0.00    +0.000 C 
ATOM     17  C   UNL     1       7.775  15.140  17.784  0.00  0.00    +0.000 C 
ENDBRANCH  15  16
ENDBRANCH  11  15
ENDBRANCH   2   9
ENDBRANCH   1   3
BRANCH   1  18
ATOM     18  N   UNL     1       6.605   6.301  16.063  0.00  0.00    +0.000 NA
ATOM     19  C   UNL     1       6.908   5.289  15.031  0.00  0.00    +0.000 C 
BRANCH  18  20
ATOM     20  C   UNL     1       5.127   6.448  16.117  0.00  0.00    +0.000 C 
BRANCH  20  21
ATOM     21  C   UNL     1       4.480   5.364  16.976  0.00  0.00    +0.000 C 
ATOM     22  O   UNL     1       4.788   4.185  16.820  0.00  0.00    +0.000 OA
ATOM     23  N   UNL     1       3.553   5.845  17.885  0.00  0.00    +0.000 N 
ATOM     24  H   UNL     1       3.284   6.822  17.798  0.00  0.00    +0.000 HD
BRANCH  23  25
ATOM     25  C   UNL     1       2.845   5.069  18.833  0.00  0.00    +0.000 A 
ATOM     26  C   UNL     1       3.072   5.153  20.211  0.00  0.00    +0.000 A 
ATOM     27  C   UNL     1       2.370   4.334  21.100  0.00  0.00    +0.000 A 
ATOM     28  C   UNL     1       1.434   3.430  20.611  0.00  0.00    +0.000 A 
ATOM     29  F   UNL     1       0.784   2.635  21.470  0.00  0.00    +0.000 F 
ATOM     30  C   UNL     1       1.173   3.357  19.250  0.00  0.00    +0.000 A 
ATOM     31  F   UNL     1       0.266   2.483  18.786  0.00  0.00    +0.000 F 
ATOM     32  C   UNL     1       1.867   4.179  18.367  0.00  0.00    +0.000 A 
ATOM     33  F   UNL     1       1.620   4.105  17.052  0.00  0.00    +0.000 F 
ENDBRANCH  23  25
ENDBRANCH  20  21
ENDBRANCH  18  20
ENDBRANCH   1  18
TORSDOF 10
ENDMDL
MODEL 8
REMARK VINA RESULT:      -6.8      3.055      7.226
REMARK  Name = 
REMARK  13 active torsions:
REMARK  status: ('A' for Active; 'I' for Inactive)
REMARK    1  A    between atoms: C_1  and  C_2
REMARK    2  A    between atoms: C_2  and  O_3
REMARK    3  A    between atoms: O_3  and  C_4
REMARK    4  A    between atoms: C_7  and  N_8
REMARK    5  A    between atoms: C_9  and  C_11
REMARK    6  A    between atoms: C_11  and  N_12
REMARK    7  A    between atoms: N_12  and  C_13
REMARK    8  A    between atoms: N_12  and  C_14
REMARK    9  A    between atoms: C_14  and  C_15
REMARK   10  A    between atoms: N_17  and  C_18
REMARK   11  A    between atoms: C_28  and  O_29
REMARK   12  A    between atoms: O_29  and  C_30
REMARK   13  A    between atoms: C_30  and  C_31
REMARK                            x       y       z     vdW  Elec       q    Type
REMARK                         _______ _______ _______ _____ _____    ______ ____
ROOT
ATOM      1  C   UNL     1       2.110   3.362  18.548  0.00  0.00    +0.000 C 
ENDROOT
BRANCH   1   3
ATOM      2  N   UNL     1       4.114   3.414  17.159  0.00  0.00    +0.000 N 
ATOM      3  C   UNL     1       3.051   4.164  17.648  0.00  0.00    +0.000 C 
ATOM      4  O   UNL     1       2.830   5.354  17.433  0.00  0.00    +0.000 OA
ATOM      5  H   UNL     1       4.234   2.502  17.587  0.00  0.00    +0.000 HD
BRANCH   2   9
ATOM      6  C   UNL     1       7.133   5.038  14.659  0.00  0.00    +0.000 A 
ATOM      7  C   UNL     1       6.290   4.019  14.204  0.00  0.00    +0.000 A 
ATOM      8  C   UNL     1       5.316   3.455  15.025  0.00  0.00    +0.000 A 
ATOM      9  C   UNL     1       5.150   3.893  16.330  0.00  0.00    +0.000 A 
ATOM     10  C   UNL     1       6.047   4.843  16.830  0.00  0.00    +0.000 A 
ATOM     11  C   UNL     1       7.055   5.406  16.015  0.00  0.00    +0.000 A 
BRANCH   6  12
ATOM     12  O   UNL     1       8.022   5.667  13.818  0.00  0.00    +0.000 OA
BRANCH  12  14
ATOM     13  C   UNL     1       7.892   6.322  11.486  0.00  0.00    +0.000 C 
ATOM     14  C   UNL     1       8.034   5.176  12.470  0.00  0.00    +0.000 C 
ENDBRANCH  12  14
ENDBRANCH   6  12
BRANCH  11  15
ATOM     15  O   UNL     1       7.832   6.316  16.686  0.00  0.00    +0.000 OA
BRANCH  15  16
ATOM     16  C   UNL     1       7.197   7.132  17.670  0.00  0.00    +0.000 C 
ATOM     17  C   UNL     1       7.861   8.502  17.655  0.00  0.00    +0.000 C 
ENDBRANCH  15  16
ENDBRANCH  11  15
ENDBRANCH   2   9
ENDBRANCH   1   3
BRANCH   1  18
ATOM     18  N   UNL     1       2.593   3.333  19.960  0.00  0.00    +0.000 NA
ATOM     19  C   UNL     1       3.698   2.360  20.076  0.00  0.00    +0.000 C 
BRANCH  18  20
ATOM     20  C   UNL     1       3.141   4.668  20.317  0.00  0.00    +0.000 C 
BRANCH  20  21
ATOM     21  C   UNL     1       2.034   5.702  20.512  0.00  0.00    +0.000 C 
ATOM     22  O   UNL     1       0.915   5.350  20.878  0.00  0.00    +0.000 OA
ATOM     23  N   UNL     1       2.421   7.001  20.231  0.00  0.00    +0.000 N 
ATOM     24  H   UNL     1       3.329   7.127  19.790  0.00  0.00    +0.000 HD
BRANCH  23  25
ATOM     25  C   UNL     1       1.614   8.154  20.375  0.00  0.00    +0.000 A 
ATOM     26  C   UNL     1       1.145   8.608  21.612  0.00  0.00    +0.000 A 
ATOM     27  C   UNL     1       0.318   9.733  21.691  0.00  0.00    +0.000 A 
ATOM     28  C   UNL     1      -0.038  10.410  20.530  0.00  0.00    +0.000 A 
ATOM     29  F   UNL     1      -0.848  11.471  20.616  0.00  0.00    +0.000 F 
ATOM     30  C   UNL     1       0.446   9.992  19.298  0.00  0.00    +0.000 A 
ATOM     31  F   UNL     1       0.099  10.651  18.183  0.00  0.00    +0.000 F 
ATOM     32  C   UNL     1       1.275   8.877  19.222  0.00  0.00    +0.000 A 
ATOM     33  F   UNL     1       1.738   8.469  18.033  0.00  0.00    +0.000 F 
ENDBRANCH  23  25
ENDBRANCH  20  21
ENDBRANCH  18  20
ENDBRANCH   1  18
TORSDOF 10
ENDMDL
MODEL 9
REMARK VINA RESULT:      -6.6      3.367      7.598
REMARK  Name = 
REMARK  13 active torsions:
REMARK  status: ('A' for Active; 'I' for Inactive)
REMARK    1  A    between atoms: C_1  and  C_2
REMARK    2  A    between atoms: C_2  and  O_3
REMARK    3  A    between atoms: O_3  and  C_4
REMARK    4  A    between atoms: C_7  and  N_8
REMARK    5  A    between atoms: C_9  and  C_11
REMARK    6  A    between atoms: C_11  and  N_12
REMARK    7  A    between atoms: N_12  and  C_13
REMARK    8  A    between atoms: N_12  and  C_14
REMARK    9  A    between atoms: C_14  and  C_15
REMARK   10  A    between atoms: N_17  and  C_18
REMARK   11  A    between atoms: C_28  and  O_29
REMARK   12  A    between atoms: O_29  and  C_30
REMARK   13  A    between atoms: C_30  and  C_31
REMARK                            x       y       z     vdW  Elec       q    Type
REMARK                         _______ _______ _______ _____ _____    ______ ____
ROOT
ATOM      1  C   UNL     1       1.664   3.825  19.100  0.00  0.00    +0.000 C 
ENDROOT
BRANCH   1   3
ATOM      2  N   UNL     1       3.346   4.561  17.494  0.00  0.00    +0.000 N 
ATOM      3  C   UNL     1       3.031   3.603  18.451  0.00  0.00    +0.000 C 
ATOM      4  O   UNL     1       3.723   2.644  18.787  0.00  0.00    +0.000 OA
ATOM      5  H   UNL     1       2.581   5.170  17.221  0.00  0.00    +0.000 HD
BRANCH   2   9
ATOM      6  C   UNL     1       6.864   4.873  15.142  0.00  0.00    +0.000 A 
ATOM      7  C   UNL     1       5.730   4.210  14.660  0.00  0.00    +0.000 A 
ATOM      8  C   UNL     1       4.580   4.073  15.434  0.00  0.00    +0.000 A 
ATOM      9  C   UNL     1       4.523   4.597  16.717  0.00  0.00    +0.000 A 
ATOM     10  C   UNL     1       5.679   5.178  17.248  0.00  0.00    +0.000 A 
ATOM     11  C   UNL     1       6.861   5.303  16.482  0.00  0.00    +0.000 A 
BRANCH   6  12
ATOM     12  O   UNL     1       7.959   5.101  14.341  0.00  0.00    +0.000 OA
BRANCH  12  14
ATOM     13  C   UNL     1       7.521   4.370  12.071  0.00  0.00    +0.000 C 
ATOM     14  C   UNL     1       7.657   5.551  13.012  0.00  0.00    +0.000 C 
ENDBRANCH  12  14
ENDBRANCH   6  12
BRANCH  11  15
ATOM     15  O   UNL     1       7.883   5.897  17.178  0.00  0.00    +0.000 OA
BRANCH  15  16
ATOM     16  C   UNL     1       7.537   6.867  18.165  0.00  0.00    +0.000 C 
ATOM     17  C   UNL     1       7.869   8.247  17.618  0.00  0.00    +0.000 C 
ENDBRANCH  15  16
ENDBRANCH  11  15
ENDBRANCH   2   9
ENDBRANCH   1   3
BRANCH   1  18
ATOM     18  N   UNL     1       1.771   4.664  20.330  0.00  0.00    +0.000 NA
ATOM     19  C   UNL     1       2.143   3.805  21.473  0.00  0.00    +0.000 C 
BRANCH  18  20
ATOM     20  C   UNL     1       2.862   5.657  20.152  0.00  0.00    +0.000 C 
BRANCH  20  21
ATOM     21  C   UNL     1       2.321   7.029  19.757  0.00  0.00    +0.000 C 
ATOM     22  O   UNL     1       2.523   7.474  18.629  0.00  0.00    +0.000 OA
ATOM     23  N   UNL     1       1.630   7.674  20.769  0.00  0.00    +0.000 N 
ATOM     24  H   UNL     1       1.674   7.259  21.695  0.00  0.00    +0.000 HD
BRANCH  23  25
ATOM     25  C   UNL     1       0.985   8.928  20.660  0.00  0.00    +0.000 A 
ATOM     26  C   UNL     1       0.783   9.581  19.438  0.00  0.00    +0.000 A 
ATOM     27  C   UNL     1       0.173  10.838  19.393  0.00  0.00    +0.000 A 
ATOM     28  C   UNL     1      -0.242  11.445  20.574  0.00  0.00    +0.000 A 
ATOM     29  F   UNL     1      -0.804  12.658  20.520  0.00  0.00    +0.000 F 
ATOM     30  C   UNL     1      -0.079  10.797  21.790  0.00  0.00    +0.000 A 
ATOM     31  F   UNL     1      -0.484  11.389  22.924  0.00  0.00    +0.000 F 
ATOM     32  C   UNL     1       0.521   9.543  21.832  0.00  0.00    +0.000 A 
ATOM     33  F   UNL     1       0.684   8.920  23.007  0.00  0.00    +0.000 F 
ENDBRANCH  23  25
ENDBRANCH  20  21
ENDBRANCH  18  20
ENDBRANCH   1  18
TORSDOF 10
ENDMDL
