MODEL 1
REMARK VINA RESULT:      -8.7      0.000      0.000
REMARK  Name = 
REMARK  4 active torsions:
REMARK  status: ('A' for Active; 'I' for Inactive)
REMARK    1  A    between atoms: C_1  and  C_2
REMARK    2  A    between atoms: C_4  and  C_5
REMARK    3  A    between atoms: N_18  and  C_19
REMARK    4  A    between atoms: C_22  and  C_23
REMARK                            x       y       z     vdW  Elec       q    Type
REMARK                         _______ _______ _______ _____ _____    ______ ____
ROOT
ATOM      1  C   UNL     1       1.533   6.296  20.942  0.00  0.00    +0.000 C 
ATOM      2  C   UNL     1       2.247   6.863  19.743  0.00  0.00    +0.000 A 
ATOM      3  C   UNL     1       3.270   6.107  19.125  0.00  0.00    +0.000 A 
ATOM      4  C   UNL     1       3.853   6.497  17.909  0.00  0.00    +0.000 A 
ATOM      5  C   UNL     1       3.414   7.730  17.404  0.00  0.00    +0.000 A 
ATOM      6  C   UNL     1       2.511   8.552  18.071  0.00  0.00    +0.000 A 
ATOM      7  N   UNL     1       2.230   9.759  17.581  0.00  0.00    +0.000 NA
ATOM      8  N   UNL     1       1.334  10.551  18.227  0.00  0.00    +0.000 NA
ATOM      9  C   UNL     1       0.717  10.106  19.338  0.00  0.00    +0.000 A 
ATOM     10  N   UNL     1      -0.216  10.925  19.997  0.00  0.00    +0.000 N 
ATOM     11  N   UNL     1       0.962   8.896  19.867  0.00  0.00    +0.000 NA
ATOM     12  C   UNL     1       1.879   8.120  19.244  0.00  0.00    +0.000 A 
ATOM     13  H   UNL     1      -0.446  10.454  20.866  0.00  0.00    +0.000 HD
ENDROOT
BRANCH   4  14
ATOM     14  C   UNL     1       4.843   5.654  17.155  0.00  0.00    +0.000 A 
ATOM     15  C   UNL     1       4.539   4.352  16.672  0.00  0.00    +0.000 A 
ATOM     16 CL   UNL     1       3.010   3.561  16.912  0.00  0.00    +0.000 Cl
ATOM     17  C   UNL     1       5.450   3.606  15.900  0.00  0.00    +0.000 A 
ATOM     18  C   UNL     1       6.671   4.143  15.525  0.00  0.00    +0.000 A 
ATOM     19  C   UNL     1       7.013   5.409  15.974  0.00  0.00    +0.000 A 
ATOM     20  C   UNL     1       6.140   6.133  16.808  0.00  0.00    +0.000 A 
ATOM     21 CL   UNL     1       6.815   7.615  17.421  0.00  0.00    +0.000 Cl
ENDBRANCH   4  14
BRANCH  10  22
ATOM     22  C   UNL     1      -0.062  12.315  20.174  0.00  0.00    +0.000 A 
ATOM     23  C   UNL     1       0.825  12.802  21.145  0.00  0.00    +0.000 A 
ATOM     24  C   UNL     1       1.012  14.178  21.316  0.00  0.00    +0.000 A 
ATOM     25  C   UNL     1       0.348  15.094  20.491  0.00  0.00    +0.000 A 
ATOM     26  C   UNL     1      -0.447  14.609  19.450  0.00  0.00    +0.000 A 
ATOM     27  C   UNL     1      -0.675  13.238  19.313  0.00  0.00    +0.000 A 
BRANCH  25  28
ATOM     28  C   UNL     1       0.625  16.551  20.650  0.00  0.00    +0.000 C 
ATOM     29  O   UNL     1      -0.182  17.200  21.317  0.00  0.00    +0.000 OA
ATOM     30  N   UNL     1       1.769  17.126  20.108  0.00  0.00    +0.000 N 
ATOM     31  C   UNL     1       2.172  18.463  20.547  0.00  0.00    +0.000 C 
ATOM     32  C   UNL     1       3.637  18.440  21.028  0.00  0.00    +0.000 C 
ATOM     33  N   UNL     1       4.571  17.894  20.023  0.00  0.00    +0.000 NA
ATOM     34  C   UNL     1       4.113  16.573  19.550  0.00  0.00    +0.000 C 
ATOM     35  C   UNL     1       2.649  16.589  19.060  0.00  0.00    +0.000 C 
ATOM     36  H   UNL     1       5.495  17.798  20.445  0.00  0.00    +0.000 HD
ENDBRANCH  25  28
ENDBRANCH  10  22
TORSDOF 3
ENDMDL
MODEL 2
REMARK VINA RESULT:      -8.5      1.127      1.466
REMARK  Name = 
REMARK  4 active torsions:
REMARK  status: ('A' for Active; 'I' for Inactive)
REMARK    1  A    between atoms: C_1  and  C_2
REMARK    2  A    between atoms: C_4  and  C_5
REMARK    3  A    between atoms: N_18  and  C_19
REMARK    4  A    between atoms: C_22  and  C_23
REMARK                            x       y       z     vdW  Elec       q    Type
REMARK                         _______ _______ _______ _____ _____    ______ ____
ROOT
ATOM      1  C   UNL     1       1.865   5.762  20.934  0.00  0.00    +0.000 C 
ATOM      2  C   UNL     1       2.475   6.424  19.725  0.00  0.00    +0.000 A 
ATOM      3  C   UNL     1       3.546   5.789  19.056  0.00  0.00    +0.000 A 
ATOM      4  C   UNL     1       4.044   6.262  17.831  0.00  0.00    +0.000 A 
ATOM      5  C   UNL     1       3.464   7.454  17.372  0.00  0.00    +0.000 A 
ATOM      6  C   UNL     1       2.507   8.165  18.088  0.00  0.00    +0.000 A 
ATOM      7  N   UNL     1       2.089   9.348  17.637  0.00  0.00    +0.000 NA
ATOM      8  N   UNL     1       1.140  10.030  18.332  0.00  0.00    +0.000 NA
ATOM      9  C   UNL     1       0.611   9.502  19.452  0.00  0.00    +0.000 A 
ATOM     10  N   UNL     1      -0.375  10.207  20.162  0.00  0.00    +0.000 N 
ATOM     11  N   UNL     1       0.996   8.312  19.942  0.00  0.00    +0.000 NA
ATOM     12  C   UNL     1       1.965   7.647  19.271  0.00  0.00    +0.000 A 
ATOM     13  H   UNL     1      -0.526   9.697  21.025  0.00  0.00    +0.000 HD
ENDROOT
BRANCH   4  14
ATOM     14  C   UNL     1       5.086   5.540  17.024  0.00  0.00    +0.000 A 
ATOM     15  C   UNL     1       4.875   4.250  16.467  0.00  0.00    +0.000 A 
ATOM     16 CL   UNL     1       3.411   3.334  16.669  0.00  0.00    +0.000 Cl
ATOM     17  C   UNL     1       5.831   3.619  15.648  0.00  0.00    +0.000 A 
ATOM     18  C   UNL     1       7.005   4.267  15.299  0.00  0.00    +0.000 A 
ATOM     19  C   UNL     1       7.257   5.526  15.820  0.00  0.00    +0.000 A 
ATOM     20  C   UNL     1       6.340   6.134  16.699  0.00  0.00    +0.000 A 
ATOM     21 CL   UNL     1       6.910   7.624  17.394  0.00  0.00    +0.000 Cl
ENDBRANCH   4  14
BRANCH  10  22
ATOM     22  C   UNL     1      -0.356  11.602  20.367  0.00  0.00    +0.000 A 
ATOM     23  C   UNL     1      -1.434  12.387  19.932  0.00  0.00    +0.000 A 
ATOM     24  C   UNL     1      -1.447  13.768  20.152  0.00  0.00    +0.000 A 
ATOM     25  C   UNL     1      -0.402  14.386  20.849  0.00  0.00    +0.000 A 
ATOM     26  C   UNL     1       0.615  13.591  21.382  0.00  0.00    +0.000 A 
ATOM     27  C   UNL     1       0.655  12.221  21.117  0.00  0.00    +0.000 A 
BRANCH  25  28
ATOM     28  C   UNL     1      -0.480  15.849  21.131  0.00  0.00    +0.000 C 
ATOM     29  O   UNL     1      -0.889  16.180  22.245  0.00  0.00    +0.000 OA
ATOM     30  N   UNL     1      -0.061  16.783  20.190  0.00  0.00    +0.000 N 
ATOM     31  C   UNL     1       0.151  18.170  20.607  0.00  0.00    +0.000 C 
ATOM     32  C   UNL     1       1.566  18.630  20.203  0.00  0.00    +0.000 C 
ATOM     33  N   UNL     1       1.850  18.446  18.765  0.00  0.00    +0.000 NA
ATOM     34  C   UNL     1       1.571  17.057  18.354  0.00  0.00    +0.000 C 
ATOM     35  C   UNL     1       0.153  16.590  18.749  0.00  0.00    +0.000 C 
ATOM     36  H   UNL     1       2.833  18.658  18.591  0.00  0.00    +0.000 HD
ENDBRANCH  25  28
ENDBRANCH  10  22
TORSDOF 3
ENDMDL
MODEL 3
REMARK VINA RESULT:      -8.5      5.489     11.120
REMARK  Name = 
REMARK  4 active torsions:
REMARK  status: ('A' for Active; 'I' for Inactive)
REMARK    1  A    between atoms: C_1  and  C_2
REMARK    2  A    between atoms: C_4  and  C_5
REMARK    3  A    between atoms: N_18  and  C_19
REMARK    4  A    between atoms: C_22  and  C_23
REMARK                            x       y       z     vdW  Elec       q    Type
REMARK                         _______ _______ _______ _____ _____    ______ ____
ROOT
ATOM      1  C   UNL     1      -2.009  12.124  23.198  0.00  0.00    +0.000 C 
ATOM      2  C   UNL     1      -2.521  12.094  21.781  0.00  0.00    +0.000 A 
ATOM      3  C   UNL     1      -3.793  12.641  21.493  0.00  0.00    +0.000 A 
ATOM      4  C   UNL     1      -4.255  12.800  20.177  0.00  0.00    +0.000 A 
ATOM      5  C   UNL     1      -3.405  12.295  19.181  0.00  0.00    +0.000 A 
ATOM      6  C   UNL     1      -2.216  11.629  19.456  0.00  0.00    +0.000 A 
ATOM      7  N   UNL     1      -1.521  11.079  18.460  0.00  0.00    +0.000 NA
ATOM      8  N   UNL     1      -0.350  10.444  18.732  0.00  0.00    +0.000 NA
ATOM      9  C   UNL     1       0.115  10.395  19.995  0.00  0.00    +0.000 A 
ATOM     10  N   UNL     1       1.330   9.746  20.270  0.00  0.00    +0.000 N 
ATOM     11  N   UNL     1      -0.546  10.939  21.031  0.00  0.00    +0.000 NA
ATOM     12  C   UNL     1      -1.729  11.542  20.767  0.00  0.00    +0.000 A 
ATOM     13  H   UNL     1       1.414   9.712  21.280  0.00  0.00    +0.000 HD
ENDROOT
BRANCH   4  14
ATOM     14  C   UNL     1      -5.538  13.498  19.826  0.00  0.00    +0.000 A 
ATOM     15  C   UNL     1      -5.731  14.895  20.006  0.00  0.00    +0.000 A 
ATOM     16 CL   UNL     1      -4.532  15.961  20.676  0.00  0.00    +0.000 Cl
ATOM     17  C   UNL     1      -6.910  15.550  19.600  0.00  0.00    +0.000 A 
ATOM     18  C   UNL     1      -7.916  14.858  18.946  0.00  0.00    +0.000 A 
ATOM     19  C   UNL     1      -7.775  13.494  18.749  0.00  0.00    +0.000 A 
ATOM     20  C   UNL     1      -6.632  12.818  19.217  0.00  0.00    +0.000 A 
ATOM     21 CL   UNL     1      -6.716  11.088  19.047  0.00  0.00    +0.000 Cl
ENDBRANCH   4  14
BRANCH  10  22
ATOM     22  C   UNL     1       1.736   8.539  19.665  0.00  0.00    +0.000 A 
ATOM     23  C   UNL     1       2.189   8.541  18.337  0.00  0.00    +0.000 A 
ATOM     24  C   UNL     1       2.624   7.358  17.729  0.00  0.00    +0.000 A 
ATOM     25  C   UNL     1       2.653   6.158  18.449  0.00  0.00    +0.000 A 
ATOM     26  C   UNL     1       2.311   6.176  19.803  0.00  0.00    +0.000 A 
ATOM     27  C   UNL     1       1.828   7.345  20.395  0.00  0.00    +0.000 A 
BRANCH  25  28
ATOM     28  C   UNL     1       3.190   4.930  17.794  0.00  0.00    +0.000 C 
ATOM     29  O   UNL     1       2.365   4.126  17.358  0.00  0.00    +0.000 OA
ATOM     30  N   UNL     1       4.560   4.738  17.646  0.00  0.00    +0.000 N 
ATOM     31  C   UNL     1       5.040   3.702  16.730  0.00  0.00    +0.000 C 
ATOM     32  C   UNL     1       6.040   4.310  15.726  0.00  0.00    +0.000 C 
ATOM     33  N   UNL     1       7.159   5.020  16.377  0.00  0.00    +0.000 NA
ATOM     34  C   UNL     1       6.653   6.016  17.340  0.00  0.00    +0.000 C 
ATOM     35  C   UNL     1       5.656   5.415  18.353  0.00  0.00    +0.000 C 
ATOM     36  H   UNL     1       7.713   5.493  15.663  0.00  0.00    +0.000 HD
ENDBRANCH  25  28
ENDBRANCH  10  22
TORSDOF 3
ENDMDL
MODEL 4
REMARK VINA RESULT:      -8.4      0.175      1.593
REMARK  Name = 
REMARK  4 active torsions:
REMARK  status: ('A' for Active; 'I' for Inactive)
REMARK    1  A    between atoms: C_1  and  C_2
REMARK    2  A    between atoms: C_4  and  C_5
REMARK    3  A    between atoms: N_18  and  C_19
REMARK    4  A    between atoms: C_22  and  C_23
REMARK                            x       y       z     vdW  Elec       q    Type
REMARK                         _______ _______ _______ _____ _____    ______ ____
ROOT
ATOM      1  C   UNL     1       1.586   6.314  21.010  0.00  0.00    +0.000 C 
ATOM      2  C   UNL     1       2.260   6.898  19.795  0.00  0.00    +0.000 A 
ATOM      3  C   UNL     1       3.285   6.166  19.153  0.00  0.00    +0.000 A 
ATOM      4  C   UNL     1       3.832   6.570  17.925  0.00  0.00    +0.000 A 
ATOM      5  C   UNL     1       3.354   7.793  17.432  0.00  0.00    +0.000 A 
ATOM      6  C   UNL     1       2.448   8.594  18.120  0.00  0.00    +0.000 A 
ATOM      7  N   UNL     1       2.129   9.795  17.639  0.00  0.00    +0.000 NA
ATOM      8  N   UNL     1       1.230  10.566  18.307  0.00  0.00    +0.000 NA
ATOM      9  C   UNL     1       0.648  10.106  19.431  0.00  0.00    +0.000 A 
ATOM     10  N   UNL     1      -0.287  10.903  20.112  0.00  0.00    +0.000 N 
ATOM     11  N   UNL     1       0.933   8.901  19.952  0.00  0.00    +0.000 NA
ATOM     12  C   UNL     1       1.853   8.146  19.307  0.00  0.00    +0.000 A 
ATOM     13  H   UNL     1      -0.487  10.426  20.985  0.00  0.00    +0.000 HD
ENDROOT
BRANCH   4  14
ATOM     14  C   UNL     1       4.824   5.751  17.148  0.00  0.00    +0.000 A 
ATOM     15  C   UNL     1       6.147   6.195  16.876  0.00  0.00    +0.000 A 
ATOM     16 CL   UNL     1       6.774   7.737  17.374  0.00  0.00    +0.000 Cl
ATOM     17  C   UNL     1       7.090   5.385  16.214  0.00  0.00    +0.000 A 
ATOM     18  C   UNL     1       6.778   4.084  15.852  0.00  0.00    +0.000 A 
ATOM     19  C   UNL     1       5.500   3.607  16.094  0.00  0.00    +0.000 A 
ATOM     20  C   UNL     1       4.528   4.434  16.689  0.00  0.00    +0.000 A 
ATOM     21 CL   UNL     1       2.938   3.730  16.743  0.00  0.00    +0.000 Cl
ENDBRANCH   4  14
BRANCH  10  22
ATOM     22  C   UNL     1      -0.160  12.296  20.288  0.00  0.00    +0.000 A 
ATOM     23  C   UNL     1       0.741  12.802  21.236  0.00  0.00    +0.000 A 
ATOM     24  C   UNL     1       0.901  14.182  21.404  0.00  0.00    +0.000 A 
ATOM     25  C   UNL     1       0.194  15.083  20.599  0.00  0.00    +0.000 A 
ATOM     26  C   UNL     1      -0.617  14.581  19.579  0.00  0.00    +0.000 A 
ATOM     27  C   UNL     1      -0.817  13.206  19.445  0.00  0.00    +0.000 A 
BRANCH  25  28
ATOM     28  C   UNL     1       0.441  16.546  20.754  0.00  0.00    +0.000 C 
ATOM     29  O   UNL     1      -0.367  17.177  21.437  0.00  0.00    +0.000 OA
ATOM     30  N   UNL     1       1.561  17.146  20.189  0.00  0.00    +0.000 N 
ATOM     31  C   UNL     1       1.943  18.492  20.621  0.00  0.00    +0.000 C 
ATOM     32  C   UNL     1       3.417  18.501  21.073  0.00  0.00    +0.000 C 
ATOM     33  N   UNL     1       4.343  17.976  20.049  0.00  0.00    +0.000 NA
ATOM     34  C   UNL     1       3.906  16.646  19.584  0.00  0.00    +0.000 C 
ATOM     35  C   UNL     1       2.432  16.629  19.124  0.00  0.00    +0.000 C 
ATOM     36  H   UNL     1       5.277  17.902  20.453  0.00  0.00    +0.000 HD
ENDBRANCH  25  28
ENDBRANCH  10  22
TORSDOF 3
ENDMDL
MODEL 5
REMARK VINA RESULT:      -8.3      4.183      5.679
REMARK  Name = 
REMARK  4 active torsions:
REMARK  status: ('A' for Active; 'I' for Inactive)
REMARK    1  A    between atoms: C_1  and  C_2
REMARK    2  A    between atoms: C_4  and  C_5
REMARK    3  A    between atoms: N_18  and  C_19
REMARK    4  A    between atoms: C_22  and  C_23
REMARK                            x       y       z     vdW  Elec       q    Type
REMARK                         _______ _______ _______ _____ _____    ______ ____
ROOT
ATOM      1  C   UNL     1       2.437   9.218  17.450  0.00  0.00    +0.000 C 
ATOM      2  C   UNL     1       2.127   8.291  18.596  0.00  0.00    +0.000 A 
ATOM      3  C   UNL     1       2.500   6.930  18.506  0.00  0.00    +0.000 A 
ATOM      4  C   UNL     1       2.397   6.055  19.598  0.00  0.00    +0.000 A 
ATOM      5  C   UNL     1       1.816   6.605  20.751  0.00  0.00    +0.000 A 
ATOM      6  C   UNL     1       1.316   7.902  20.811  0.00  0.00    +0.000 A 
ATOM      7  N   UNL     1       0.676   8.313  21.906  0.00  0.00    +0.000 NA
ATOM      8  N   UNL     1       0.205   9.586  21.966  0.00  0.00    +0.000 NA
ATOM      9  C   UNL     1       0.408  10.432  20.938  0.00  0.00    +0.000 A 
ATOM     10  N   UNL     1      -0.073  11.750  21.009  0.00  0.00    +0.000 N 
ATOM     11  N   UNL     1       1.052  10.066  19.817  0.00  0.00    +0.000 NA
ATOM     12  C   UNL     1       1.491   8.788  19.741  0.00  0.00    +0.000 A 
ATOM     13  H   UNL     1       0.068  12.156  20.090  0.00  0.00    +0.000 HD
ENDROOT
BRANCH   4  14
ATOM     14  C   UNL     1       2.908   4.641  19.582  0.00  0.00    +0.000 A 
ATOM     15  C   UNL     1       2.060   3.513  19.748  0.00  0.00    +0.000 A 
ATOM     16 CL   UNL     1       0.346   3.619  20.019  0.00  0.00    +0.000 Cl
ATOM     17  C   UNL     1       2.539   2.192  19.653  0.00  0.00    +0.000 A 
ATOM     18  C   UNL     1       3.862   1.939  19.328  0.00  0.00    +0.000 A 
ATOM     19  C   UNL     1       4.728   3.007  19.158  0.00  0.00    +0.000 A 
ATOM     20  C   UNL     1       4.274   4.330  19.325  0.00  0.00    +0.000 A 
ATOM     21 CL   UNL     1       5.538   5.524  19.257  0.00  0.00    +0.000 Cl
ENDBRANCH   4  14
BRANCH  10  22
ATOM     22  C   UNL     1      -1.320  12.108  21.560  0.00  0.00    +0.000 A 
ATOM     23  C   UNL     1      -2.436  12.259  20.724  0.00  0.00    +0.000 A 
ATOM     24  C   UNL     1      -3.688  12.587  21.256  0.00  0.00    +0.000 A 
ATOM     25  C   UNL     1      -3.858  12.729  22.638  0.00  0.00    +0.000 A 
ATOM     26  C   UNL     1      -2.775  12.467  23.480  0.00  0.00    +0.000 A 
ATOM     27  C   UNL     1      -1.514  12.192  22.947  0.00  0.00    +0.000 A 
BRANCH  25  28
ATOM     28  C   UNL     1      -5.220  13.006  23.179  0.00  0.00    +0.000 C 
ATOM     29  O   UNL     1      -5.630  12.256  24.066  0.00  0.00    +0.000 OA
ATOM     30  N   UNL     1      -5.961  14.093  22.729  0.00  0.00    +0.000 N 
ATOM     31  C   UNL     1      -7.134  14.522  23.493  0.00  0.00    +0.000 C 
ATOM     32  C   UNL     1      -7.025  16.024  23.825  0.00  0.00    +0.000 C 
ATOM     33  N   UNL     1      -6.814  16.870  22.633  0.00  0.00    +0.000 NA
ATOM     34  C   UNL     1      -5.665  16.383  21.846  0.00  0.00    +0.000 C 
ATOM     35  C   UNL     1      -5.769  14.881  21.503  0.00  0.00    +0.000 C 
ATOM     36  H   UNL     1      -6.635  17.828  22.933  0.00  0.00    +0.000 HD
ENDBRANCH  25  28
ENDBRANCH  10  22
TORSDOF 3
ENDMDL
MODEL 6
REMARK VINA RESULT:      -8.3      1.824      2.757
REMARK  Name = 
REMARK  4 active torsions:
REMARK  status: ('A' for Active; 'I' for Inactive)
REMARK    1  A    between atoms: C_1  and  C_2
REMARK    2  A    between atoms: C_4  and  C_5
REMARK    3  A    between atoms: N_18  and  C_19
REMARK    4  A    between atoms: C_22  and  C_23
REMARK                            x       y       z     vdW  Elec       q    Type
REMARK                         _______ _______ _______ _____ _____    ______ ____
ROOT
ATOM      1  C   UNL     1       1.819   6.007  20.987  0.00  0.00    +0.000 C 
ATOM      2  C   UNL     1       2.445   6.619  19.761  0.00  0.00    +0.000 A 
ATOM      3  C   UNL     1       3.484   5.928  19.096  0.00  0.00    +0.000 A 
ATOM      4  C   UNL     1       3.990   6.355  17.859  0.00  0.00    +0.000 A 
ATOM      5  C   UNL     1       3.456   7.560  17.379  0.00  0.00    +0.000 A 
ATOM      6  C   UNL     1       2.535   8.325  18.088  0.00  0.00    +0.000 A 
ATOM      7  N   UNL     1       2.161   9.514  17.616  0.00  0.00    +0.000 NA
ATOM      8  N   UNL     1       1.247  10.248  18.305  0.00  0.00    +0.000 NA
ATOM      9  C   UNL     1       0.706   9.764  19.439  0.00  0.00    +0.000 A 
ATOM     10  N   UNL     1      -0.244  10.524  20.141  0.00  0.00    +0.000 N 
ATOM     11  N   UNL     1       1.047   8.570  19.950  0.00  0.00    +0.000 NA
ATOM     12  C   UNL     1       1.982   7.852  19.285  0.00  0.00    +0.000 A 
ATOM     13  H   UNL     1      -0.409  10.038  21.016  0.00  0.00    +0.000 HD
ENDROOT
BRANCH   4  14
ATOM     14  C   UNL     1       4.996   5.576  17.059  0.00  0.00    +0.000 A 
ATOM     15  C   UNL     1       4.724   4.288  16.521  0.00  0.00    +0.000 A 
ATOM     16 CL   UNL     1       3.222   3.443  16.742  0.00  0.00    +0.000 Cl
ATOM     17  C   UNL     1       5.648   3.603  15.708  0.00  0.00    +0.000 A 
ATOM     18  C   UNL     1       6.848   4.192  15.346  0.00  0.00    +0.000 A 
ATOM     19  C   UNL     1       7.159   5.446  15.847  0.00  0.00    +0.000 A 
ATOM     20  C   UNL     1       6.274   6.108  16.720  0.00  0.00    +0.000 A 
ATOM     21 CL   UNL     1       6.913   7.580  17.391  0.00  0.00    +0.000 Cl
ENDBRANCH   4  14
BRANCH  10  22
ATOM     22  C   UNL     1      -0.167  11.920  20.318  0.00  0.00    +0.000 A 
ATOM     23  C   UNL     1      -1.267  12.728  19.992  0.00  0.00    +0.000 A 
ATOM     24  C   UNL     1      -1.219  14.112  20.188  0.00  0.00    +0.000 A 
ATOM     25  C   UNL     1      -0.088  14.712  20.752  0.00  0.00    +0.000 A 
ATOM     26  C   UNL     1       0.962  13.897  21.183  0.00  0.00    +0.000 A 
ATOM     27  C   UNL     1       0.937  12.523  20.940  0.00  0.00    +0.000 A 
BRANCH  25  28
ATOM     28  C   UNL     1      -0.096  16.180  21.015  0.00  0.00    +0.000 C 
ATOM     29  O   UNL     1       0.465  16.897  20.186  0.00  0.00    +0.000 OA
ATOM     30  N   UNL     1      -0.755  16.705  22.122  0.00  0.00    +0.000 N 
ATOM     31  C   UNL     1      -1.019  18.144  22.178  0.00  0.00    +0.000 C 
ATOM     32  C   UNL     1      -2.518  18.394  22.435  0.00  0.00    +0.000 C 
ATOM     33  N   UNL     1      -3.027  17.701  23.636  0.00  0.00    +0.000 NA
ATOM     34  C   UNL     1      -2.696  16.264  23.587  0.00  0.00    +0.000 C 
ATOM     35  C   UNL     1      -1.195  16.005  23.336  0.00  0.00    +0.000 C 
ATOM     36  H   UNL     1      -4.040  17.813  23.680  0.00  0.00    +0.000 HD
ENDBRANCH  25  28
ENDBRANCH  10  22
TORSDOF 3
ENDMDL
MODEL 7
REMARK VINA RESULT:      -8.2      1.739      2.103
REMARK  Name = 
REMARK  4 active torsions:
REMARK  status: ('A' for Active; 'I' for Inactive)
REMARK    1  A    between atoms: C_1  and  C_2
REMARK    2  A    between atoms: C_4  and  C_5
REMARK    3  A    between atoms: N_18  and  C_19
REMARK    4  A    between atoms: C_22  and  C_23
REMARK                            x       y       z     vdW  Elec       q    Type
REMARK                         _______ _______ _______ _____ _____    ______ ____
ROOT
ATOM      1  C   UNL     1       2.213   5.163  21.216  0.00  0.00    +0.000 C 
ATOM      2  C   UNL     1       2.695   5.951  20.026  0.00  0.00    +0.000 A 
ATOM      3  C   UNL     1       3.693   5.400  19.189  0.00  0.00    +0.000 A 
ATOM      4  C   UNL     1       4.063   6.000  17.976  0.00  0.00    +0.000 A 
ATOM      5  C   UNL     1       3.439   7.226  17.701  0.00  0.00    +0.000 A 
ATOM      6  C   UNL     1       2.559   7.850  18.580  0.00  0.00    +0.000 A 
ATOM      7  N   UNL     1       2.096   9.068  18.297  0.00  0.00    +0.000 NA
ATOM      8  N   UNL     1       1.224   9.666  19.151  0.00  0.00    +0.000 NA
ATOM      9  C   UNL     1       0.812   9.021  20.259  0.00  0.00    +0.000 A 
ATOM     10  N   UNL     1      -0.097   9.640  21.133  0.00  0.00    +0.000 N 
ATOM     11  N   UNL     1       1.246   7.791  20.583  0.00  0.00    +0.000 NA
ATOM     12  C   UNL     1       2.141   7.208  19.752  0.00  0.00    +0.000 A 
ATOM     13  H   UNL     1      -0.159   9.043  21.951  0.00  0.00    +0.000 HD
ENDROOT
BRANCH   4  14
ATOM     14  C   UNL     1       5.018   5.375  16.998  0.00  0.00    +0.000 A 
ATOM     15  C   UNL     1       4.755   4.141  16.342  0.00  0.00    +0.000 A 
ATOM     16 CL   UNL     1       3.326   3.189  16.606  0.00  0.00    +0.000 Cl
ATOM     17  C   UNL     1       5.623   3.607  15.370  0.00  0.00    +0.000 A 
ATOM     18  C   UNL     1       6.750   4.303  14.966  0.00  0.00    +0.000 A 
ATOM     19  C   UNL     1       7.049   5.510  15.577  0.00  0.00    +0.000 A 
ATOM     20  C   UNL     1       6.228   6.017  16.602  0.00  0.00    +0.000 A 
ATOM     21 CL   UNL     1       6.860   7.441  17.376  0.00  0.00    +0.000 Cl
ENDBRANCH   4  14
BRANCH  10  22
ATOM     22  C   UNL     1      -0.058  11.006  21.477  0.00  0.00    +0.000 A 
ATOM     23  C   UNL     1       0.833  11.867  20.820  0.00  0.00    +0.000 A 
ATOM     24  C   UNL     1       0.866  13.232  21.128  0.00  0.00    +0.000 A 
ATOM     25  C   UNL     1      -0.020  13.770  22.068  0.00  0.00    +0.000 A 
ATOM     26  C   UNL     1      -0.984  12.936  22.639  0.00  0.00    +0.000 A 
ATOM     27  C   UNL     1      -0.983  11.566  22.372  0.00  0.00    +0.000 A 
BRANCH  25  28
ATOM     28  C   UNL     1      -0.009  15.240  22.320  0.00  0.00    +0.000 C 
ATOM     29  O   UNL     1       0.421  15.614  23.412  0.00  0.00    +0.000 OA
ATOM     30  N   UNL     1      -0.422  16.138  21.341  0.00  0.00    +0.000 N 
ATOM     31  C   UNL     1      -0.101  17.558  21.494  0.00  0.00    +0.000 C 
ATOM     32  C   UNL     1       0.619  18.073  20.232  0.00  0.00    +0.000 C 
ATOM     33  N   UNL     1      -0.134  17.818  18.987  0.00  0.00    +0.000 NA
ATOM     34  C   UNL     1      -0.500  16.393  18.883  0.00  0.00    +0.000 C 
ATOM     35  C   UNL     1      -1.227  15.869  20.141  0.00  0.00    +0.000 C 
ATOM     36  H   UNL     1       0.446  18.076  18.189  0.00  0.00    +0.000 HD
ENDBRANCH  25  28
ENDBRANCH  10  22
TORSDOF 3
ENDMDL
MODEL 8
REMARK VINA RESULT:      -8.1      1.831      2.795
REMARK  Name = 
REMARK  4 active torsions:
REMARK  status: ('A' for Active; 'I' for Inactive)
REMARK    1  A    between atoms: C_1  and  C_2
REMARK    2  A    between atoms: C_4  and  C_5
REMARK    3  A    between atoms: N_18  and  C_19
REMARK    4  A    between atoms: C_22  and  C_23
REMARK                            x       y       z     vdW  Elec       q    Type
REMARK                         _______ _______ _______ _____ _____    ______ ____
ROOT
ATOM      1  C   UNL     1       2.224   5.060  21.315  0.00  0.00    +0.000 C 
ATOM      2  C   UNL     1       2.654   5.885  20.131  0.00  0.00    +0.000 A 
ATOM      3  C   UNL     1       3.658   5.388  19.268  0.00  0.00    +0.000 A 
ATOM      4  C   UNL     1       3.983   6.022  18.059  0.00  0.00    +0.000 A 
ATOM      5  C   UNL     1       3.306   7.226  17.816  0.00  0.00    +0.000 A 
ATOM      6  C   UNL     1       2.418   7.801  18.719  0.00  0.00    +0.000 A 
ATOM      7  N   UNL     1       1.903   9.003  18.465  0.00  0.00    +0.000 NA
ATOM      8  N   UNL     1       1.023   9.552  19.344  0.00  0.00    +0.000 NA
ATOM      9  C   UNL     1       0.656   8.873  20.447  0.00  0.00    +0.000 A 
ATOM     10  N   UNL     1      -0.261   9.441  21.347  0.00  0.00    +0.000 N 
ATOM     11  N   UNL     1       1.143   7.657  20.743  0.00  0.00    +0.000 NA
ATOM     12  C   UNL     1       2.046   7.124  19.888  0.00  0.00    +0.000 A 
ATOM     13  H   UNL     1      -0.285   8.830  22.156  0.00  0.00    +0.000 HD
ENDROOT
BRANCH   4  14
ATOM     14  C   UNL     1       4.945   5.452  17.054  0.00  0.00    +0.000 A 
ATOM     15  C   UNL     1       6.169   6.088  16.711  0.00  0.00    +0.000 A 
ATOM     16 CL   UNL     1       6.693   7.605  17.377  0.00  0.00    +0.000 Cl
ATOM     17  C   UNL     1       7.097   5.505  15.827  0.00  0.00    +0.000 A 
ATOM     18  C   UNL     1       6.877   4.243  15.298  0.00  0.00    +0.000 A 
ATOM     19  C   UNL     1       5.697   3.584  15.602  0.00  0.00    +0.000 A 
ATOM     20  C   UNL     1       4.730   4.191  16.426  0.00  0.00    +0.000 A 
ATOM     21 CL   UNL     1       3.241   3.298  16.544  0.00  0.00    +0.000 Cl
ENDBRANCH   4  14
BRANCH  10  22
ATOM     22  C   UNL     1      -0.271  10.802  21.714  0.00  0.00    +0.000 A 
ATOM     23  C   UNL     1       0.504  11.725  20.995  0.00  0.00    +0.000 A 
ATOM     24  C   UNL     1       0.486  13.084  21.326  0.00  0.00    +0.000 A 
ATOM     25  C   UNL     1      -0.339  13.555  22.354  0.00  0.00    +0.000 A 
ATOM     26  C   UNL     1      -1.195  12.656  22.995  0.00  0.00    +0.000 A 
ATOM     27  C   UNL     1      -1.139  11.293  22.701  0.00  0.00    +0.000 A 
BRANCH  25  28
ATOM     28  C   UNL     1      -0.390  15.019  22.634  0.00  0.00    +0.000 C 
ATOM     29  O   UNL     1      -0.069  15.380  23.767  0.00  0.00    +0.000 OA
ATOM     30  N   UNL     1      -0.738  15.926  21.639  0.00  0.00    +0.000 N 
ATOM     31  C   UNL     1      -0.471  17.350  21.847  0.00  0.00    +0.000 C 
ATOM     32  C   UNL     1       0.345  17.911  20.665  0.00  0.00    +0.000 C 
ATOM     33  N   UNL     1      -0.288  17.663  19.353  0.00  0.00    +0.000 NA
ATOM     34  C   UNL     1      -0.604  16.231  19.190  0.00  0.00    +0.000 C 
ATOM     35  C   UNL     1      -1.426  15.663  20.367  0.00  0.00    +0.000 C 
ATOM     36  H   UNL     1       0.354  17.952  18.615  0.00  0.00    +0.000 HD
ENDBRANCH  25  28
ENDBRANCH  10  22
TORSDOF 3
ENDMDL
MODEL 9
REMARK VINA RESULT:      -8.1      4.166      5.737
REMARK  Name = 
REMARK  4 active torsions:
REMARK  status: ('A' for Active; 'I' for Inactive)
REMARK    1  A    between atoms: C_1  and  C_2
REMARK    2  A    between atoms: C_4  and  C_5
REMARK    3  A    between atoms: N_18  and  C_19
REMARK    4  A    between atoms: C_22  and  C_23
REMARK                            x       y       z     vdW  Elec       q    Type
REMARK                         _______ _______ _______ _____ _____    ______ ____
ROOT
ATOM      1  C   UNL     1       2.436   9.370  17.450  0.00  0.00    +0.000 C 
ATOM      2  C   UNL     1       2.138   8.418  18.578  0.00  0.00    +0.000 A 
ATOM      3  C   UNL     1       2.565   7.073  18.481  0.00  0.00    +0.000 A 
ATOM      4  C   UNL     1       2.474   6.182  19.561  0.00  0.00    +0.000 A 
ATOM      5  C   UNL     1       1.846   6.695  20.706  0.00  0.00    +0.000 A 
ATOM      6  C   UNL     1       1.295   7.970  20.771  0.00  0.00    +0.000 A 
ATOM      7  N   UNL     1       0.616   8.343  21.855  0.00  0.00    +0.000 NA
ATOM      8  N   UNL     1       0.094   9.597  21.919  0.00  0.00    +0.000 NA
ATOM      9  C   UNL     1       0.286  10.462  20.905  0.00  0.00    +0.000 A 
ATOM     10  N   UNL     1      -0.248  11.759  20.981  0.00  0.00    +0.000 N 
ATOM     11  N   UNL     1       0.967  10.134  19.795  0.00  0.00    +0.000 NA
ATOM     12  C   UNL     1       1.458   8.876  19.714  0.00  0.00    +0.000 A 
ATOM     13  H   UNL     1      -0.103  12.181  20.070  0.00  0.00    +0.000 HD
ENDROOT
BRANCH   4  14
ATOM     14  C   UNL     1       3.039   4.790  19.540  0.00  0.00    +0.000 A 
ATOM     15  C   UNL     1       4.407   4.516  19.264  0.00  0.00    +0.000 A 
ATOM     16 CL   UNL     1       5.584   5.739  18.890  0.00  0.00    +0.000 Cl
ATOM     17  C   UNL     1       4.940   3.214  19.324  0.00  0.00    +0.000 A 
ATOM     18  C   UNL     1       4.154   2.143  19.719  0.00  0.00    +0.000 A 
ATOM     19  C   UNL     1       2.814   2.360  19.997  0.00  0.00    +0.000 A 
ATOM     20  C   UNL     1       2.255   3.646  19.868  0.00  0.00    +0.000 A 
ATOM     21 CL   UNL     1       0.528   3.689  20.075  0.00  0.00    +0.000 Cl
ENDBRANCH   4  14
BRANCH  10  22
ATOM     22  C   UNL     1      -1.519  12.062  21.508  0.00  0.00    +0.000 A 
ATOM     23  C   UNL     1      -1.666  12.309  22.881  0.00  0.00    +0.000 A 
ATOM     24  C   UNL     1      -2.915  12.639  23.418  0.00  0.00    +0.000 A 
ATOM     25  C   UNL     1      -4.034  12.770  22.588  0.00  0.00    +0.000 A 
ATOM     26  C   UNL     1      -3.867  12.637  21.208  0.00  0.00    +0.000 A 
ATOM     27  C   UNL     1      -2.633  12.256  20.677  0.00  0.00    +0.000 A 
BRANCH  25  28
ATOM     28  C   UNL     1      -5.335  13.194  23.181  0.00  0.00    +0.000 C 
ATOM     29  O   UNL     1      -5.814  12.464  24.049  0.00  0.00    +0.000 OA
ATOM     30  N   UNL     1      -5.942  14.386  22.798  0.00  0.00    +0.000 N 
ATOM     31  C   UNL     1      -7.030  14.926  23.615  0.00  0.00    +0.000 C 
ATOM     32  C   UNL     1      -6.721  16.386  24.004  0.00  0.00    +0.000 C 
ATOM     33  N   UNL     1      -6.434  17.250  22.841  0.00  0.00    +0.000 NA
ATOM     34  C   UNL     1      -5.377  16.656  22.000  0.00  0.00    +0.000 C 
ATOM     35  C   UNL     1      -5.682  15.196  21.600  0.00  0.00    +0.000 C 
ATOM     36  H   UNL     1      -6.125  18.163  23.174  0.00  0.00    +0.000 HD
ENDBRANCH  25  28
ENDBRANCH  10  22
TORSDOF 3
ENDMDL
