MODEL 1
REMARK VINA RESULT:      -8.8      0.000      0.000
REMARK  Name = 
REMARK  7 active torsions:
REMARK  status: ('A' for Active; 'I' for Inactive)
REMARK    1  A    between atoms: C_1  and  N_2
REMARK    2  A    between atoms: C_6  and  S_7
REMARK    3  A    between atoms: S_7  and  C_8
REMARK    4  A    between atoms: C_8  and  C_9
REMARK    5  A    between atoms: N_11  and  C_12
REMARK    6  A    between atoms: C_12  and  C_13
REMARK    7  A    between atoms: C_13  and  C_14
REMARK                            x       y       z     vdW  Elec       q    Type
REMARK                         _______ _______ _______ _____ _____    ______ ____
ROOT
ATOM      1  S   UNL     1       4.780   6.448  16.606  0.00  0.00    +0.000 S 
ENDROOT
BRANCH   1   7
ATOM      2  C   UNL     1       1.865   2.227  19.770  0.00  0.00    +0.000 C 
ATOM      3  N   UNL     1       2.602   3.267  19.065  0.00  0.00    +0.000 N 
ATOM      4  C   UNL     1       3.446   2.883  18.038  0.00  0.00    +0.000 A 
ATOM      5  O   UNL     1       3.640   1.720  17.689  0.00  0.00    +0.000 OA
ATOM      6  C   UNL     1       4.156   3.951  17.306  0.00  0.00    +0.000 A 
ATOM      7  C   UNL     1       4.023   5.244  17.608  0.00  0.00    +0.000 A 
ATOM      8  C   UNL     1       3.112   5.646  18.708  0.00  0.00    +0.000 A 
ATOM      9  C   UNL     1       2.894   6.989  19.073  0.00  0.00    +0.000 A 
ATOM     10  C   UNL     1       2.023   7.333  20.111  0.00  0.00    +0.000 A 
ATOM     11  C   UNL     1       1.354   6.341  20.812  0.00  0.00    +0.000 A 
ATOM     12  C   UNL     1       1.551   5.004  20.469  0.00  0.00    +0.000 A 
ATOM     13  C   UNL     1       2.419   4.639  19.422  0.00  0.00    +0.000 A 
ENDBRANCH   1   7
BRANCH   1  14
ATOM     14  C   UNL     1       6.507   5.866  16.496  0.00  0.00    +0.000 C 
BRANCH  14  15
ATOM     15  C   UNL     1       7.370   6.582  17.542  0.00  0.00    +0.000 C 
ATOM     16  O   UNL     1       7.822   6.019  18.539  0.00  0.00    +0.000 OA
ATOM     17  N   UNL     1       7.655   7.912  17.271  0.00  0.00    +0.000 N 
ATOM     18  H   UNL     1       7.227   8.378  16.481  0.00  0.00    +0.000 HD
BRANCH  17  19
ATOM     19  C   UNL     1       8.408   8.692  18.246  0.00  0.00    +0.000 C 
BRANCH  19  20
ATOM     20  C   UNL     1       8.408  10.202  17.973  0.00  0.00    +0.000 C 
BRANCH  20  21
ATOM     21  C   UNL     1       9.606  10.915  18.580  0.00  0.00    +0.000 C 
ATOM     22  C   UNL     1      10.570  11.463  17.816  0.00  0.00    +0.000 C 
ATOM     23  C   UNL     1      11.789  12.149  18.366  0.00  0.00    +0.000 C 
ATOM     24  C   UNL     1      12.011  11.880  19.854  0.00  0.00    +0.000 C 
ATOM     25  C   UNL     1      10.702  11.987  20.625  0.00  0.00    +0.000 C 
ATOM     26  C   UNL     1       9.661  10.997  20.091  0.00  0.00    +0.000 C 
ENDBRANCH  20  21
ENDBRANCH  19  20
ENDBRANCH  17  19
ENDBRANCH  14  15
ENDBRANCH   1  14
TORSDOF 6
ENDMDL
MODEL 2
REMARK VINA RESULT:      -8.1      1.928      2.949
REMARK  Name = 
REMARK  7 active torsions:
REMARK  status: ('A' for Active; 'I' for Inactive)
REMARK    1  A    between atoms: C_1  and  N_2
REMARK    2  A    between atoms: C_6  and  S_7
REMARK    3  A    between atoms: S_7  and  C_8
REMARK    4  A    between atoms: C_8  and  C_9
REMARK    5  A    between atoms: N_11  and  C_12
REMARK    6  A    between atoms: C_12  and  C_13
REMARK    7  A    between atoms: C_13  and  C_14
REMARK                            x       y       z     vdW  Elec       q    Type
REMARK                         _______ _______ _______ _____ _____    ______ ____
ROOT
ATOM      1  S   UNL     1       5.959   4.988  17.171  0.00  0.00    +0.000 S 
ENDROOT
BRANCH   1   7
ATOM      2  C   UNL     1       1.274   6.693  20.560  0.00  0.00    +0.000 C 
ATOM      3  N   UNL     1       2.367   6.228  19.716  0.00  0.00    +0.000 N 
ATOM      4  C   UNL     1       2.858   7.092  18.753  0.00  0.00    +0.000 A 
ATOM      5  O   UNL     1       2.422   8.221  18.537  0.00  0.00    +0.000 OA
ATOM      6  C   UNL     1       3.991   6.621  17.931  0.00  0.00    +0.000 A 
ATOM      7  C   UNL     1       4.534   5.410  18.077  0.00  0.00    +0.000 A 
ATOM      8  C   UNL     1       4.004   4.494  19.116  0.00  0.00    +0.000 A 
ATOM      9  C   UNL     1       4.538   3.211  19.353  0.00  0.00    +0.000 A 
ATOM     10  C   UNL     1       4.018   2.376  20.345  0.00  0.00    +0.000 A 
ATOM     11  C   UNL     1       2.949   2.800  21.120  0.00  0.00    +0.000 A 
ATOM     12  C   UNL     1       2.404   4.066  20.907  0.00  0.00    +0.000 A 
ATOM     13  C   UNL     1       2.920   4.924  19.916  0.00  0.00    +0.000 A 
ENDBRANCH   1   7
BRANCH   1  14
ATOM     14  C   UNL     1       7.311   5.675  18.187  0.00  0.00    +0.000 C 
BRANCH  14  15
ATOM     15  C   UNL     1       7.574   7.134  17.796  0.00  0.00    +0.000 C 
ATOM     16  O   UNL     1       7.120   7.647  16.773  0.00  0.00    +0.000 OA
ATOM     17  N   UNL     1       8.327   7.868  18.700  0.00  0.00    +0.000 N 
ATOM     18  H   UNL     1       8.745   7.419  19.505  0.00  0.00    +0.000 HD
BRANCH  17  19
ATOM     19  C   UNL     1       8.688   9.243  18.375  0.00  0.00    +0.000 C 
BRANCH  19  20
ATOM     20  C   UNL     1       9.221  10.048  19.568  0.00  0.00    +0.000 C 
BRANCH  20  21
ATOM     21  C   UNL     1      10.179  11.154  19.158  0.00  0.00    +0.000 C 
ATOM     22  C   UNL     1      11.143  11.602  19.984  0.00  0.00    +0.000 C 
ATOM     23  C   UNL     1      12.094  12.715  19.641  0.00  0.00    +0.000 C 
ATOM     24  C   UNL     1      11.662  13.518  18.414  0.00  0.00    +0.000 C 
ATOM     25  C   UNL     1      11.186  12.594  17.301  0.00  0.00    +0.000 C 
ATOM     26  C   UNL     1      10.012  11.725  17.765  0.00  0.00    +0.000 C 
ENDBRANCH  20  21
ENDBRANCH  19  20
ENDBRANCH  17  19
ENDBRANCH  14  15
ENDBRANCH   1  14
TORSDOF 6
ENDMDL
MODEL 3
REMARK VINA RESULT:      -8.0      1.502      2.897
REMARK  Name = 
REMARK  7 active torsions:
REMARK  status: ('A' for Active; 'I' for Inactive)
REMARK    1  A    between atoms: C_1  and  N_2
REMARK    2  A    between atoms: C_6  and  S_7
REMARK    3  A    between atoms: S_7  and  C_8
REMARK    4  A    between atoms: C_8  and  C_9
REMARK    5  A    between atoms: N_11  and  C_12
REMARK    6  A    between atoms: C_12  and  C_13
REMARK    7  A    between atoms: C_13  and  C_14
REMARK                            x       y       z     vdW  Elec       q    Type
REMARK                         _______ _______ _______ _____ _____    ______ ____
ROOT
ATOM      1  S   UNL     1       5.307   5.896  16.134  0.00  0.00    +0.000 S 
ENDROOT
BRANCH   1   7
ATOM      2  C   UNL     1       1.319   5.415  20.628  0.00  0.00    +0.000 C 
ATOM      3  N   UNL     1       2.236   5.499  19.499  0.00  0.00    +0.000 N 
ATOM      4  C   UNL     1       2.640   6.755  19.083  0.00  0.00    +0.000 A 
ATOM      5  O   UNL     1       2.262   7.813  19.581  0.00  0.00    +0.000 OA
ATOM      6  C   UNL     1       3.600   6.823  17.963  0.00  0.00    +0.000 A 
ATOM      7  C   UNL     1       4.069   5.736  17.346  0.00  0.00    +0.000 A 
ATOM      8  C   UNL     1       3.633   4.393  17.804  0.00  0.00    +0.000 A 
ATOM      9  C   UNL     1       4.099   3.196  17.225  0.00  0.00    +0.000 A 
ATOM     10  C   UNL     1       3.672   1.948  17.685  0.00  0.00    +0.000 A 
ATOM     11  C   UNL     1       2.765   1.867  18.732  0.00  0.00    +0.000 A 
ATOM     12  C   UNL     1       2.290   3.037  19.322  0.00  0.00    +0.000 A 
ATOM     13  C   UNL     1       2.714   4.304  18.876  0.00  0.00    +0.000 A 
ENDBRANCH   1   7
BRANCH   1  14
ATOM     14  C   UNL     1       6.737   5.051  16.893  0.00  0.00    +0.000 C 
BRANCH  14  15
ATOM     15  C   UNL     1       7.453   5.998  17.862  0.00  0.00    +0.000 C 
ATOM     16  O   UNL     1       7.869   5.642  18.965  0.00  0.00    +0.000 OA
ATOM     17  N   UNL     1       7.648   7.290  17.399  0.00  0.00    +0.000 N 
ATOM     18  H   UNL     1       7.247   7.586  16.518  0.00  0.00    +0.000 HD
BRANCH  17  19
ATOM     19  C   UNL     1       8.255   8.280  18.281  0.00  0.00    +0.000 C 
BRANCH  19  20
ATOM     20  C   UNL     1       8.460   9.655  17.632  0.00  0.00    +0.000 C 
BRANCH  20  21
ATOM     21  C   UNL     1       9.274  10.604  18.496  0.00  0.00    +0.000 C 
ATOM     22  C   UNL     1       9.272  10.520  19.840  0.00  0.00    +0.000 C 
ATOM     23  C   UNL     1      10.031  11.454  20.741  0.00  0.00    +0.000 C 
ATOM     24  C   UNL     1      10.534  12.706  20.025  0.00  0.00    +0.000 C 
ATOM     25  C   UNL     1      11.132  12.351  18.669  0.00  0.00    +0.000 C 
ATOM     26  C   UNL     1      10.105  11.646  17.777  0.00  0.00    +0.000 C 
ENDBRANCH  20  21
ENDBRANCH  19  20
ENDBRANCH  17  19
ENDBRANCH  14  15
ENDBRANCH   1  14
TORSDOF 6
ENDMDL
MODEL 4
REMARK VINA RESULT:      -8.0      0.592      1.121
REMARK  Name = 
REMARK  7 active torsions:
REMARK  status: ('A' for Active; 'I' for Inactive)
REMARK    1  A    between atoms: C_1  and  N_2
REMARK    2  A    between atoms: C_6  and  S_7
REMARK    3  A    between atoms: S_7  and  C_8
REMARK    4  A    between atoms: C_8  and  C_9
REMARK    5  A    between atoms: N_11  and  C_12
REMARK    6  A    between atoms: C_12  and  C_13
REMARK    7  A    between atoms: C_13  and  C_14
REMARK                            x       y       z     vdW  Elec       q    Type
REMARK                         _______ _______ _______ _____ _____    ______ ____
ROOT
ATOM      1  S   UNL     1       4.860   6.592  16.742  0.00  0.00    +0.000 S 
ENDROOT
BRANCH   1   7
ATOM      2  C   UNL     1       1.867   2.318  19.761  0.00  0.00    +0.000 C 
ATOM      3  N   UNL     1       2.621   3.370  19.092  0.00  0.00    +0.000 N 
ATOM      4  C   UNL     1       3.493   3.003  18.081  0.00  0.00    +0.000 A 
ATOM      5  O   UNL     1       3.698   1.847  17.719  0.00  0.00    +0.000 OA
ATOM      6  C   UNL     1       4.221   4.083  17.386  0.00  0.00    +0.000 A 
ATOM      7  C   UNL     1       4.078   5.372  17.705  0.00  0.00    +0.000 A 
ATOM      8  C   UNL     1       3.138   5.755  18.787  0.00  0.00    +0.000 A 
ATOM      9  C   UNL     1       2.909   7.092  19.167  0.00  0.00    +0.000 A 
ATOM     10  C   UNL     1       2.011   7.418  20.187  0.00  0.00    +0.000 A 
ATOM     11  C   UNL     1       1.324   6.415  20.854  0.00  0.00    +0.000 A 
ATOM     12  C   UNL     1       1.532   5.084  20.496  0.00  0.00    +0.000 A 
ATOM     13  C   UNL     1       2.428   4.737  19.466  0.00  0.00    +0.000 A 
ENDBRANCH   1   7
BRANCH   1  14
ATOM     14  C   UNL     1       6.599   6.039  16.709  0.00  0.00    +0.000 C 
BRANCH  14  15
ATOM     15  C   UNL     1       7.430   6.858  17.703  0.00  0.00    +0.000 C 
ATOM     16  O   UNL     1       7.947   6.371  18.708  0.00  0.00    +0.000 OA
ATOM     17  N   UNL     1       7.607   8.194  17.374  0.00  0.00    +0.000 N 
ATOM     18  H   UNL     1       7.127   8.595  16.578  0.00  0.00    +0.000 HD
BRANCH  17  19
ATOM     19  C   UNL     1       8.322   9.066  18.297  0.00  0.00    +0.000 C 
BRANCH  19  20
ATOM     20  C   UNL     1       8.720  10.421  17.697  0.00  0.00    +0.000 C 
BRANCH  20  21
ATOM     21  C   UNL     1       9.470  11.308  18.677  0.00  0.00    +0.000 C 
ATOM     22  C   UNL     1       9.602  10.978  19.977  0.00  0.00    +0.000 C 
ATOM     23  C   UNL     1      10.305  11.835  20.993  0.00  0.00    +0.000 C 
ATOM     24  C   UNL     1      10.564  13.259  20.505  0.00  0.00    +0.000 C 
ATOM     25  C   UNL     1      11.079  13.255  19.071  0.00  0.00    +0.000 C 
ATOM     26  C   UNL     1      10.082  12.578  18.125  0.00  0.00    +0.000 C 
ENDBRANCH  20  21
ENDBRANCH  19  20
ENDBRANCH  17  19
ENDBRANCH  14  15
ENDBRANCH   1  14
TORSDOF 6
ENDMDL
MODEL 5
REMARK VINA RESULT:      -7.9      1.751      2.637
REMARK  Name = 
REMARK  7 active torsions:
REMARK  status: ('A' for Active; 'I' for Inactive)
REMARK    1  A    between atoms: C_1  and  N_2
REMARK    2  A    between atoms: C_6  and  S_7
REMARK    3  A    between atoms: S_7  and  C_8
REMARK    4  A    between atoms: C_8  and  C_9
REMARK    5  A    between atoms: N_11  and  C_12
REMARK    6  A    between atoms: C_12  and  C_13
REMARK    7  A    between atoms: C_13  and  C_14
REMARK                            x       y       z     vdW  Elec       q    Type
REMARK                         _______ _______ _______ _____ _____    ______ ____
ROOT
ATOM      1  S   UNL     1       5.927   4.472  17.648  0.00  0.00    +0.000 S 
ENDROOT
BRANCH   1   7
ATOM      2  C   UNL     1       1.231   6.775  20.644  0.00  0.00    +0.000 C 
ATOM      3  N   UNL     1       2.324   6.166  19.897  0.00  0.00    +0.000 N 
ATOM      4  C   UNL     1       2.920   6.911  18.894  0.00  0.00    +0.000 A 
ATOM      5  O   UNL     1       2.579   8.046  18.567  0.00  0.00    +0.000 OA
ATOM      6  C   UNL     1       4.052   6.296  18.172  0.00  0.00    +0.000 A 
ATOM      7  C   UNL     1       4.498   5.067  18.442  0.00  0.00    +0.000 A 
ATOM      8  C   UNL     1       3.855   4.279  19.523  0.00  0.00    +0.000 A 
ATOM      9  C   UNL     1       4.282   2.987  19.888  0.00  0.00    +0.000 A 
ATOM     10  C   UNL     1       3.657   2.275  20.916  0.00  0.00    +0.000 A 
ATOM     11  C   UNL     1       2.588   2.836  21.599  0.00  0.00    +0.000 A 
ATOM     12  C   UNL     1       2.148   4.114  21.257  0.00  0.00    +0.000 A 
ATOM     13  C   UNL     1       2.770   4.849  20.229  0.00  0.00    +0.000 A 
ENDBRANCH   1   7
BRANCH   1  14
ATOM     14  C   UNL     1       6.555   5.947  16.773  0.00  0.00    +0.000 C 
BRANCH  14  15
ATOM     15  C   UNL     1       7.490   6.744  17.690  0.00  0.00    +0.000 C 
ATOM     16  O   UNL     1       8.105   6.235  18.627  0.00  0.00    +0.000 OA
ATOM     17  N   UNL     1       7.641   8.084  17.369  0.00  0.00    +0.000 N 
ATOM     18  H   UNL     1       7.084   8.503  16.635  0.00  0.00    +0.000 HD
BRANCH  17  19
ATOM     19  C   UNL     1       8.454   8.936  18.230  0.00  0.00    +0.000 C 
BRANCH  19  20
ATOM     20  C   UNL     1       8.564  10.389  17.748  0.00  0.00    +0.000 C 
BRANCH  20  21
ATOM     21  C   UNL     1       9.593  11.195  18.523  0.00  0.00    +0.000 C 
ATOM     22  C   UNL     1      10.319  12.169  17.940  0.00  0.00    +0.000 C 
ATOM     23  C   UNL     1      11.371  12.972  18.652  0.00  0.00    +0.000 C 
ATOM     24  C   UNL     1      11.784  12.370  19.994  0.00  0.00    +0.000 C 
ATOM     25  C   UNL     1      10.563  11.907  20.778  0.00  0.00    +0.000 C 
ATOM     26  C   UNL     1       9.759  10.866  19.992  0.00  0.00    +0.000 C 
ENDBRANCH  20  21
ENDBRANCH  19  20
ENDBRANCH  17  19
ENDBRANCH  14  15
ENDBRANCH   1  14
TORSDOF 6
ENDMDL
MODEL 6
REMARK VINA RESULT:      -7.9      1.967      3.064
REMARK  Name = 
REMARK  7 active torsions:
REMARK  status: ('A' for Active; 'I' for Inactive)
REMARK    1  A    between atoms: C_1  and  N_2
REMARK    2  A    between atoms: C_6  and  S_7
REMARK    3  A    between atoms: S_7  and  C_8
REMARK    4  A    between atoms: C_8  and  C_9
REMARK    5  A    between atoms: N_11  and  C_12
REMARK    6  A    between atoms: C_12  and  C_13
REMARK    7  A    between atoms: C_13  and  C_14
REMARK                            x       y       z     vdW  Elec       q    Type
REMARK                         _______ _______ _______ _____ _____    ______ ____
ROOT
ATOM      1  S   UNL     1       4.679   4.839  16.603  0.00  0.00    +0.000 S 
ENDROOT
BRANCH   1   7
ATOM      2  C   UNL     1       1.351   7.618  20.790  0.00  0.00    +0.000 C 
ATOM      3  N   UNL     1       2.101   6.903  19.766  0.00  0.00    +0.000 N 
ATOM      4  C   UNL     1       2.536   7.615  18.662  0.00  0.00    +0.000 A 
ATOM      5  O   UNL     1       2.316   8.809  18.468  0.00  0.00    +0.000 OA
ATOM      6  C   UNL     1       3.328   6.886  17.652  0.00  0.00    +0.000 A 
ATOM      7  C   UNL     1       3.619   5.588  17.761  0.00  0.00    +0.000 A 
ATOM      8  C   UNL     1       3.151   4.834  18.951  0.00  0.00    +0.000 A 
ATOM      9  C   UNL     1       3.437   3.470  19.156  0.00  0.00    +0.000 A 
ATOM     10  C   UNL     1       2.986   2.792  20.291  0.00  0.00    +0.000 A 
ATOM     11  C   UNL     1       2.235   3.460  21.246  0.00  0.00    +0.000 A 
ATOM     12  C   UNL     1       1.940   4.811  21.068  0.00  0.00    +0.000 A 
ATOM     13  C   UNL     1       2.392   5.513  19.933  0.00  0.00    +0.000 A 
ENDBRANCH   1   7
BRANCH   1  14
ATOM     14  C   UNL     1       6.303   4.894  17.435  0.00  0.00    +0.000 C 
BRANCH  14  15
ATOM     15  C   UNL     1       7.070   6.151  17.008  0.00  0.00    +0.000 C 
ATOM     16  O   UNL     1       7.655   6.247  15.930  0.00  0.00    +0.000 OA
ATOM     17  N   UNL     1       7.027   7.210  17.904  0.00  0.00    +0.000 N 
ATOM     18  H   UNL     1       6.594   7.097  18.812  0.00  0.00    +0.000 HD
BRANCH  17  19
ATOM     19  C   UNL     1       7.788   8.419  17.615  0.00  0.00    +0.000 C 
BRANCH  19  20
ATOM     20  C   UNL     1       8.868   8.743  18.655  0.00  0.00    +0.000 C 
BRANCH  20  21
ATOM     21  C   UNL     1       9.057  10.235  18.871  0.00  0.00    +0.000 C 
ATOM     22  C   UNL     1       9.708  10.722  19.945  0.00  0.00    +0.000 C 
ATOM     23  C   UNL     1       9.893  12.187  20.222  0.00  0.00    +0.000 C 
ATOM     24  C   UNL     1       8.997  13.081  19.365  0.00  0.00    +0.000 C 
ATOM     25  C   UNL     1       8.985  12.606  17.918  0.00  0.00    +0.000 C 
ATOM     26  C   UNL     1       8.493  11.159  17.812  0.00  0.00    +0.000 C 
ENDBRANCH  20  21
ENDBRANCH  19  20
ENDBRANCH  17  19
ENDBRANCH  14  15
ENDBRANCH   1  14
TORSDOF 6
ENDMDL
MODEL 7
REMARK VINA RESULT:      -7.7      1.724      2.990
REMARK  Name = 
REMARK  7 active torsions:
REMARK  status: ('A' for Active; 'I' for Inactive)
REMARK    1  A    between atoms: C_1  and  N_2
REMARK    2  A    between atoms: C_6  and  S_7
REMARK    3  A    between atoms: S_7  and  C_8
REMARK    4  A    between atoms: C_8  and  C_9
REMARK    5  A    between atoms: N_11  and  C_12
REMARK    6  A    between atoms: C_12  and  C_13
REMARK    7  A    between atoms: C_13  and  C_14
REMARK                            x       y       z     vdW  Elec       q    Type
REMARK                         _______ _______ _______ _____ _____    ______ ____
ROOT
ATOM      1  S   UNL     1       5.469   5.511  16.406  0.00  0.00    +0.000 S 
ENDROOT
BRANCH   1   7
ATOM      2  C   UNL     1       1.101   5.495  20.560  0.00  0.00    +0.000 C 
ATOM      3  N   UNL     1       2.112   5.467  19.511  0.00  0.00    +0.000 N 
ATOM      4  C   UNL     1       2.614   6.674  19.060  0.00  0.00    +0.000 A 
ATOM      5  O   UNL     1       2.252   7.778  19.462  0.00  0.00    +0.000 OA
ATOM      6  C   UNL     1       3.666   6.629  18.025  0.00  0.00    +0.000 A 
ATOM      7  C   UNL     1       4.127   5.485  17.514  0.00  0.00    +0.000 A 
ATOM      8  C   UNL     1       3.586   4.195  18.008  0.00  0.00    +0.000 A 
ATOM      9  C   UNL     1       4.035   2.944  17.542  0.00  0.00    +0.000 A 
ATOM     10  C   UNL     1       3.507   1.748  18.034  0.00  0.00    +0.000 A 
ATOM     11  C   UNL     1       2.514   1.774  19.001  0.00  0.00    +0.000 A 
ATOM     12  C   UNL     1       2.052   2.999  19.481  0.00  0.00    +0.000 A 
ATOM     13  C   UNL     1       2.577   4.215  19.001  0.00  0.00    +0.000 A 
ENDBRANCH   1   7
BRANCH   1  14
ATOM     14  C   UNL     1       6.878   5.962  17.477  0.00  0.00    +0.000 C 
BRANCH  14  15
ATOM     15  C   UNL     1       7.143   7.469  17.390  0.00  0.00    +0.000 C 
ATOM     16  O   UNL     1       6.469   8.231  16.696  0.00  0.00    +0.000 OA
ATOM     17  N   UNL     1       8.175   7.940  18.187  0.00  0.00    +0.000 N 
ATOM     18  H   UNL     1       8.760   7.296  18.705  0.00  0.00    +0.000 HD
BRANCH  17  19
ATOM     19  C   UNL     1       8.546   9.348  18.115  0.00  0.00    +0.000 C 
BRANCH  19  20
ATOM     20  C   UNL     1       9.133   9.908  19.417  0.00  0.00    +0.000 C 
BRANCH  20  21
ATOM     21  C   UNL     1      10.043  11.105  19.192  0.00  0.00    +0.000 C 
ATOM     22  C   UNL     1      10.611  11.769  20.216  0.00  0.00    +0.000 C 
ATOM     23  C   UNL     1      11.490  12.978  20.050  0.00  0.00    +0.000 C 
ATOM     24  C   UNL     1      11.415  13.589  18.652  0.00  0.00    +0.000 C 
ATOM     25  C   UNL     1      11.453  12.504  17.583  0.00  0.00    +0.000 C 
ATOM     26  C   UNL     1      10.297  11.514  17.756  0.00  0.00    +0.000 C 
ENDBRANCH  20  21
ENDBRANCH  19  20
ENDBRANCH  17  19
ENDBRANCH  14  15
ENDBRANCH   1  14
TORSDOF 6
ENDMDL
MODEL 8
REMARK VINA RESULT:      -7.6      1.786      2.840
REMARK  Name = 
REMARK  7 active torsions:
REMARK  status: ('A' for Active; 'I' for Inactive)
REMARK    1  A    between atoms: C_1  and  N_2
REMARK    2  A    between atoms: C_6  and  S_7
REMARK    3  A    between atoms: S_7  and  C_8
REMARK    4  A    between atoms: C_8  and  C_9
REMARK    5  A    between atoms: N_11  and  C_12
REMARK    6  A    between atoms: C_12  and  C_13
REMARK    7  A    between atoms: C_13  and  C_14
REMARK                            x       y       z     vdW  Elec       q    Type
REMARK                         _______ _______ _______ _____ _____    ______ ____
ROOT
ATOM      1  S   UNL     1       5.444   4.632  16.075  0.00  0.00    +0.000 S 
ENDROOT
BRANCH   1   7
ATOM      2  C   UNL     1       1.882   7.134  20.245  0.00  0.00    +0.000 C 
ATOM      3  N   UNL     1       2.691   6.484  19.223  0.00  0.00    +0.000 N 
ATOM      4  C   UNL     1       3.118   7.246  18.150  0.00  0.00    +0.000 A 
ATOM      5  O   UNL     1       2.845   8.432  17.981  0.00  0.00    +0.000 OA
ATOM      6  C   UNL     1       3.970   6.583  17.142  0.00  0.00    +0.000 A 
ATOM      7  C   UNL     1       4.320   5.298  17.225  0.00  0.00    +0.000 A 
ATOM      8  C   UNL     1       3.860   4.490  18.382  0.00  0.00    +0.000 A 
ATOM      9  C   UNL     1       4.206   3.136  18.558  0.00  0.00    +0.000 A 
ATOM     10  C   UNL     1       3.761   2.407  19.664  0.00  0.00    +0.000 A 
ATOM     11  C   UNL     1       2.955   3.012  20.616  0.00  0.00    +0.000 A 
ATOM     12  C   UNL     1       2.600   4.352  20.465  0.00  0.00    +0.000 A 
ATOM     13  C   UNL     1       3.045   5.105  19.361  0.00  0.00    +0.000 A 
ENDBRANCH   1   7
BRANCH   1  14
ATOM     14  C   UNL     1       7.040   4.730  16.956  0.00  0.00    +0.000 C 
BRANCH  14  15
ATOM     15  C   UNL     1       7.122   6.038  17.751  0.00  0.00    +0.000 C 
ATOM     16  O   UNL     1       6.945   6.098  18.967  0.00  0.00    +0.000 OA
ATOM     17  N   UNL     1       7.459   7.164  17.013  0.00  0.00    +0.000 N 
ATOM     18  H   UNL     1       7.541   7.112  16.006  0.00  0.00    +0.000 HD
BRANCH  17  19
ATOM     19  C   UNL     1       7.489   8.464  17.672  0.00  0.00    +0.000 C 
BRANCH  19  20
ATOM     20  C   UNL     1       8.782   8.742  18.450  0.00  0.00    +0.000 C 
BRANCH  20  21
ATOM     21  C   UNL     1       8.983  10.216  18.760  0.00  0.00    +0.000 C 
ATOM     22  C   UNL     1       8.757  11.174  17.841  0.00  0.00    +0.000 C 
ATOM     23  C   UNL     1       8.972  12.641  18.086  0.00  0.00    +0.000 C 
ATOM     24  C   UNL     1       9.784  12.929  19.348  0.00  0.00    +0.000 C 
ATOM     25  C   UNL     1       9.314  12.055  20.505  0.00  0.00    +0.000 C 
ATOM     26  C   UNL     1       9.437  10.567  20.162  0.00  0.00    +0.000 C 
ENDBRANCH  20  21
ENDBRANCH  19  20
ENDBRANCH  17  19
ENDBRANCH  14  15
ENDBRANCH   1  14
TORSDOF 6
ENDMDL
MODEL 9
REMARK VINA RESULT:      -7.6      4.980      8.412
REMARK  Name = 
REMARK  7 active torsions:
REMARK  status: ('A' for Active; 'I' for Inactive)
REMARK    1  A    between atoms: C_1  and  N_2
REMARK    2  A    between atoms: C_6  and  S_7
REMARK    3  A    between atoms: S_7  and  C_8
REMARK    4  A    between atoms: C_8  and  C_9
REMARK    5  A    between atoms: N_11  and  C_12
REMARK    6  A    between atoms: C_12  and  C_13
REMARK    7  A    between atoms: C_13  and  C_14
REMARK                            x       y       z     vdW  Elec       q    Type
REMARK                         _______ _______ _______ _____ _____    ______ ____
ROOT
ATOM      1  S   UNL     1       2.339   7.576  19.230  0.00  0.00    +0.000 S 
ENDROOT
BRANCH   1   7
ATOM      2  C   UNL     1       3.485   1.775  18.060  0.00  0.00    +0.000 C 
ATOM      3  N   UNL     1       3.185   3.184  18.276  0.00  0.00    +0.000 N 
ATOM      4  C   UNL     1       2.261   3.509  19.254  0.00  0.00    +0.000 A 
ATOM      5  O   UNL     1       1.652   2.692  19.941  0.00  0.00    +0.000 OA
ATOM      6  C   UNL     1       1.996   4.943  19.489  0.00  0.00    +0.000 A 
ATOM      7  C   UNL     1       2.597   5.911  18.793  0.00  0.00    +0.000 A 
ATOM      8  C   UNL     1       3.589   5.552  17.751  0.00  0.00    +0.000 A 
ATOM      9  C   UNL     1       4.287   6.512  16.991  0.00  0.00    +0.000 A 
ATOM     10  C   UNL     1       5.220   6.139  16.021  0.00  0.00    +0.000 A 
ATOM     11  C   UNL     1       5.476   4.797  15.784  0.00  0.00    +0.000 A 
ATOM     12  C   UNL     1       4.800   3.827  16.523  0.00  0.00    +0.000 A 
ATOM     13  C   UNL     1       3.860   4.184  17.510  0.00  0.00    +0.000 A 
ENDBRANCH   1   7
BRANCH   1  14
ATOM     14  C   UNL     1       1.642   7.456  20.914  0.00  0.00    +0.000 C 
BRANCH  14  15
ATOM     15  C   UNL     1       0.872   8.737  21.256  0.00  0.00    +0.000 C 
ATOM     16  O   UNL     1       0.826   9.209  22.392  0.00  0.00    +0.000 OA
ATOM     17  N   UNL     1       0.257   9.367  20.185  0.00  0.00    +0.000 N 
ATOM     18  H   UNL     1       0.251   8.936  19.269  0.00  0.00    +0.000 HD
BRANCH  17  19
ATOM     19  C   UNL     1      -0.558  10.551  20.427  0.00  0.00    +0.000 C 
BRANCH  19  20
ATOM     20  C   UNL     1      -0.693  11.478  19.212  0.00  0.00    +0.000 C 
BRANCH  20  21
ATOM     21  C   UNL     1      -1.877  11.126  18.326  0.00  0.00    +0.000 C 
ATOM     22  C   UNL     1      -1.769  10.246  17.312  0.00  0.00    +0.000 C 
ATOM     23  C   UNL     1      -2.899   9.889  16.386  0.00  0.00    +0.000 C 
ATOM     24  C   UNL     1      -4.081  10.852  16.480  0.00  0.00    +0.000 C 
ATOM     25  C   UNL     1      -4.402  11.177  17.933  0.00  0.00    +0.000 C 
ATOM     26  C   UNL     1      -3.196  11.801  18.642  0.00  0.00    +0.000 C 
ENDBRANCH  20  21
ENDBRANCH  19  20
ENDBRANCH  17  19
ENDBRANCH  14  15
ENDBRANCH   1  14
TORSDOF 6
ENDMDL
