MODEL 1
REMARK VINA RESULT:      -6.7      0.000      0.000
REMARK  Name = 
REMARK  5 active torsions:
REMARK  status: ('A' for Active; 'I' for Inactive)
REMARK    1  A    between atoms: C_1  and  C_2
REMARK    2  A    between atoms: C_2  and  C_3
REMARK    3  A    between atoms: C_4  and  C_5
REMARK    4  A    between atoms: C_6  and  C_7
REMARK    5  A    between atoms: C_7  and  C_8
REMARK                            x       y       z     vdW  Elec       q    Type
REMARK                         _______ _______ _______ _____ _____    ______ ____
ROOT
ATOM      1  C   UNL     1       3.266   3.935  18.342  0.00  0.00    +0.000 C 
ATOM      2  C   UNL     1       2.611   3.256  17.125  0.00  0.00    +0.000 C 
ATOM      3  C   UNL     1       2.193   4.263  19.391  0.00  0.00    +0.000 C 
ATOM      4  C   UNL     1       2.336   3.640  20.773  0.00  0.00    +0.000 C 
ATOM      5  N   UNL     1       3.325   2.583  20.942  0.00  0.00    +0.000 NA
ATOM      6  C   UNL     1       4.179   2.396  20.013  0.00  0.00    +0.000 C 
ATOM      7  N   UNL     1       5.175   1.497  20.165  0.00  0.00    +0.000 N 
ATOM      8  N   UNL     1       4.279   3.037  18.843  0.00  0.00    +0.000 N 
ATOM      9  H   UNL     1       5.189   1.174  21.127  0.00  0.00    +0.000 HD
ATOM     10  H   UNL     1       6.078   1.872  19.907  0.00  0.00    +0.000 HD
ATOM     11  H   UNL     1       4.839   2.579  18.134  0.00  0.00    +0.000 HD
ENDROOT
BRANCH   1  13
ATOM     12  C   UNL     1       5.319   5.310  17.797  0.00  0.00    +0.000 C 
ATOM     13  C   UNL     1       3.981   5.209  17.905  0.00  0.00    +0.000 C 
BRANCH  12  17
ATOM     14  C   UNL     1       7.882   8.148  17.558  0.00  0.00    +0.000 C 
ATOM     15  C   UNL     1       7.227   6.861  17.972  0.00  0.00    +0.000 C 
ATOM     16  C   UNL     1       7.952   6.032  19.002  0.00  0.00    +0.000 C 
ATOM     17  C   UNL     1       6.040   6.503  17.430  0.00  0.00    +0.000 C 
ENDBRANCH  12  17
ENDBRANCH   1  13
TORSDOF 2
ENDMDL
MODEL 2
REMARK VINA RESULT:      -6.7      2.907      3.288
REMARK  Name = 
REMARK  5 active torsions:
REMARK  status: ('A' for Active; 'I' for Inactive)
REMARK    1  A    between atoms: C_1  and  C_2
REMARK    2  A    between atoms: C_2  and  C_3
REMARK    3  A    between atoms: C_4  and  C_5
REMARK    4  A    between atoms: C_6  and  C_7
REMARK    5  A    between atoms: C_7  and  C_8
REMARK                            x       y       z     vdW  Elec       q    Type
REMARK                         _______ _______ _______ _____ _____    ______ ____
ROOT
ATOM      1  C   UNL     1       1.703   3.305  19.251  0.00  0.00    +0.000 C 
ATOM      2  C   UNL     1       0.844   2.265  18.509  0.00  0.00    +0.000 C 
ATOM      3  C   UNL     1       1.183   3.474  20.687  0.00  0.00    +0.000 C 
ATOM      4  C   UNL     1       2.140   3.167  21.831  0.00  0.00    +0.000 C 
ATOM      5  N   UNL     1       3.392   2.495  21.506  0.00  0.00    +0.000 NA
ATOM      6  C   UNL     1       3.738   2.414  20.282  0.00  0.00    +0.000 C 
ATOM      7  N   UNL     1       4.934   1.890  19.937  0.00  0.00    +0.000 N 
ATOM      8  N   UNL     1       3.071   2.846  19.205  0.00  0.00    +0.000 N 
ATOM      9  H   UNL     1       5.492   1.754  20.774  0.00  0.00    +0.000 HD
ATOM     10  H   UNL     1       5.432   2.466  19.272  0.00  0.00    +0.000 HD
ATOM     11  H   UNL     1       3.367   2.460  18.316  0.00  0.00    +0.000 HD
ENDROOT
BRANCH   1  13
ATOM     12  C   UNL     1       2.569   5.614  18.690  0.00  0.00    +0.000 C 
ATOM     13  C   UNL     1       1.658   4.639  18.515  0.00  0.00    +0.000 C 
BRANCH  12  17
ATOM     14  C   UNL     1       2.106   9.334  17.898  0.00  0.00    +0.000 C 
ATOM     15  C   UNL     1       2.140   8.041  18.662  0.00  0.00    +0.000 C 
ATOM     16  C   UNL     1       1.699   8.094  20.103  0.00  0.00    +0.000 C 
ATOM     17  C   UNL     1       2.544   6.906  18.049  0.00  0.00    +0.000 C 
ENDBRANCH  12  17
ENDBRANCH   1  13
TORSDOF 2
ENDMDL
MODEL 3
REMARK VINA RESULT:      -6.6      3.759      5.345
REMARK  Name = 
REMARK  5 active torsions:
REMARK  status: ('A' for Active; 'I' for Inactive)
REMARK    1  A    between atoms: C_1  and  C_2
REMARK    2  A    between atoms: C_2  and  C_3
REMARK    3  A    between atoms: C_4  and  C_5
REMARK    4  A    between atoms: C_6  and  C_7
REMARK    5  A    between atoms: C_7  and  C_8
REMARK                            x       y       z     vdW  Elec       q    Type
REMARK                         _______ _______ _______ _____ _____    ______ ____
ROOT
ATOM      1  C   UNL     1       6.238   5.472  16.496  0.00  0.00    +0.000 C 
ATOM      2  C   UNL     1       5.054   6.315  15.986  0.00  0.00    +0.000 C 
ATOM      3  C   UNL     1       7.272   6.388  17.170  0.00  0.00    +0.000 C 
ATOM      4  C   UNL     1       7.601   6.131  18.634  0.00  0.00    +0.000 C 
ATOM      5  N   UNL     1       6.744   5.211  19.371  0.00  0.00    +0.000 NA
ATOM      6  C   UNL     1       5.923   4.488  18.715  0.00  0.00    +0.000 C 
ATOM      7  N   UNL     1       5.179   3.551  19.341  0.00  0.00    +0.000 N 
ATOM      8  N   UNL     1       5.704   4.478  17.395  0.00  0.00    +0.000 N 
ATOM      9  H   UNL     1       5.506   3.449  20.296  0.00  0.00    +0.000 HD
ATOM     10  H   UNL     1       5.199   2.659  18.865  0.00  0.00    +0.000 HD
ATOM     11  H   UNL     1       4.841   4.041  17.093  0.00  0.00    +0.000 HD
ENDROOT
BRANCH   1  13
ATOM     12  C   UNL     1       6.206   4.342  14.233  0.00  0.00    +0.000 C 
ATOM     13  C   UNL     1       6.880   4.720  15.335  0.00  0.00    +0.000 C 
BRANCH  12  17
ATOM     14  C   UNL     1       6.682   2.299  11.026  0.00  0.00    +0.000 C 
ATOM     15  C   UNL     1       6.022   3.107  12.107  0.00  0.00    +0.000 C 
ATOM     16  C   UNL     1       4.535   3.321  11.981  0.00  0.00    +0.000 C 
ATOM     17  C   UNL     1       6.760   3.593  13.131  0.00  0.00    +0.000 C 
ENDBRANCH  12  17
ENDBRANCH   1  13
TORSDOF 2
ENDMDL
MODEL 4
REMARK VINA RESULT:      -6.5      2.518      5.416
REMARK  Name = 
REMARK  5 active torsions:
REMARK  status: ('A' for Active; 'I' for Inactive)
REMARK    1  A    between atoms: C_1  and  C_2
REMARK    2  A    between atoms: C_2  and  C_3
REMARK    3  A    between atoms: C_4  and  C_5
REMARK    4  A    between atoms: C_6  and  C_7
REMARK    5  A    between atoms: C_7  and  C_8
REMARK                            x       y       z     vdW  Elec       q    Type
REMARK                         _______ _______ _______ _____ _____    ______ ____
ROOT
ATOM      1  C   UNL     1       5.046   5.340  16.829  0.00  0.00    +0.000 C 
ATOM      2  C   UNL     1       4.694   6.832  16.969  0.00  0.00    +0.000 C 
ATOM      3  C   UNL     1       5.455   5.040  15.378  0.00  0.00    +0.000 C 
ATOM      4  C   UNL     1       6.853   4.485  15.135  0.00  0.00    +0.000 C 
ATOM      5  N   UNL     1       7.796   4.512  16.245  0.00  0.00    +0.000 NA
ATOM      6  C   UNL     1       7.352   4.765  17.413  0.00  0.00    +0.000 C 
ATOM      7  N   UNL     1       8.168   4.704  18.487  0.00  0.00    +0.000 N 
ATOM      8  N   UNL     1       6.097   5.053  17.775  0.00  0.00    +0.000 N 
ATOM      9  H   UNL     1       9.055   4.295  18.210  0.00  0.00    +0.000 HD
ATOM     10  H   UNL     1       7.764   4.179  19.252  0.00  0.00    +0.000 HD
ATOM     11  H   UNL     1       5.986   5.483  18.686  0.00  0.00    +0.000 HD
ENDROOT
BRANCH   1  13
ATOM     12  C   UNL     1       2.768   4.968  17.864  0.00  0.00    +0.000 C 
ATOM     13  C   UNL     1       3.848   4.483  17.225  0.00  0.00    +0.000 C 
BRANCH  12  17
ATOM     14  C   UNL     1       0.258   2.923  19.914  0.00  0.00    +0.000 C 
ATOM     15  C   UNL     1       1.451   3.768  19.568  0.00  0.00    +0.000 C 
ATOM     16  C   UNL     1       2.399   4.094  20.694  0.00  0.00    +0.000 C 
ATOM     17  C   UNL     1       1.633   4.190  18.296  0.00  0.00    +0.000 C 
ENDBRANCH  12  17
ENDBRANCH   1  13
TORSDOF 2
ENDMDL
MODEL 5
REMARK VINA RESULT:      -6.4      2.477      5.444
REMARK  Name = 
REMARK  5 active torsions:
REMARK  status: ('A' for Active; 'I' for Inactive)
REMARK    1  A    between atoms: C_1  and  C_2
REMARK    2  A    between atoms: C_2  and  C_3
REMARK    3  A    between atoms: C_4  and  C_5
REMARK    4  A    between atoms: C_6  and  C_7
REMARK    5  A    between atoms: C_7  and  C_8
REMARK                            x       y       z     vdW  Elec       q    Type
REMARK                         _______ _______ _______ _____ _____    ______ ____
ROOT
ATOM      1  C   UNL     1       6.140   4.892  17.791  0.00  0.00    +0.000 C 
ATOM      2  C   UNL     1       7.563   5.063  18.352  0.00  0.00    +0.000 C 
ATOM      3  C   UNL     1       5.522   6.272  17.520  0.00  0.00    +0.000 C 
ATOM      4  C   UNL     1       5.095   6.592  16.093  0.00  0.00    +0.000 C 
ATOM      5  N   UNL     1       5.526   5.685  15.037  0.00  0.00    +0.000 NA
ATOM      6  C   UNL     1       6.020   4.557  15.368  0.00  0.00    +0.000 C 
ATOM      7  N   UNL     1       6.342   3.643  14.428  0.00  0.00    +0.000 N 
ATOM      8  N   UNL     1       6.240   4.083  16.600  0.00  0.00    +0.000 N 
ATOM      9  H   UNL     1       5.985   3.950  13.529  0.00  0.00    +0.000 HD
ATOM     10  H   UNL     1       5.991   2.721  14.648  0.00  0.00    +0.000 HD
ATOM     11  H   UNL     1       6.877   3.296  16.664  0.00  0.00    +0.000 HD
ENDROOT
BRANCH   1  13
ATOM     12  C   UNL     1       3.976   3.845  18.580  0.00  0.00    +0.000 C 
ATOM     13  C   UNL     1       5.279   4.116  18.782  0.00  0.00    +0.000 C 
BRANCH  12  17
ATOM     14  C   UNL     1       1.433   2.973  21.310  0.00  0.00    +0.000 C 
ATOM     15  C   UNL     1       2.261   3.778  20.349  0.00  0.00    +0.000 C 
ATOM     16  C   UNL     1       2.087   5.275  20.396  0.00  0.00    +0.000 C 
ATOM     17  C   UNL     1       3.113   3.153  19.506  0.00  0.00    +0.000 C 
ENDBRANCH  12  17
ENDBRANCH   1  13
TORSDOF 2
ENDMDL
MODEL 6
REMARK VINA RESULT:      -6.4      2.186      3.060
REMARK  Name = 
REMARK  5 active torsions:
REMARK  status: ('A' for Active; 'I' for Inactive)
REMARK    1  A    between atoms: C_1  and  C_2
REMARK    2  A    between atoms: C_2  and  C_3
REMARK    3  A    between atoms: C_4  and  C_5
REMARK    4  A    between atoms: C_6  and  C_7
REMARK    5  A    between atoms: C_7  and  C_8
REMARK                            x       y       z     vdW  Elec       q    Type
REMARK                         _______ _______ _______ _____ _____    ______ ____
ROOT
ATOM      1  C   UNL     1       3.388   2.905  19.254  0.00  0.00    +0.000 C 
ATOM      2  C   UNL     1       4.354   2.180  20.209  0.00  0.00    +0.000 C 
ATOM      3  C   UNL     1       2.066   2.126  19.167  0.00  0.00    +0.000 C 
ATOM      4  C   UNL     1       0.790   2.844  19.586  0.00  0.00    +0.000 C 
ATOM      5  N   UNL     1       0.925   4.121  20.276  0.00  0.00    +0.000 NA
ATOM      6  C   UNL     1       2.066   4.690  20.283  0.00  0.00    +0.000 C 
ATOM      7  N   UNL     1       2.220   5.918  20.823  0.00  0.00    +0.000 N 
ATOM      8  N   UNL     1       3.213   4.247  19.754  0.00  0.00    +0.000 N 
ATOM      9  H   UNL     1       1.306   6.305  21.036  0.00  0.00    +0.000 HD
ATOM     10  H   UNL     1       2.735   6.545  20.219  0.00  0.00    +0.000 HD
ATOM     11  H   UNL     1       4.057   4.698  20.087  0.00  0.00    +0.000 HD
ENDROOT
BRANCH   1  13
ATOM     12  C   UNL     1       4.399   4.199  17.330  0.00  0.00    +0.000 C 
ATOM     13  C   UNL     1       4.017   3.027  17.870  0.00  0.00    +0.000 C 
BRANCH  12  17
ATOM     14  C   UNL     1       6.760   4.764  14.365  0.00  0.00    +0.000 C 
ATOM     15  C   UNL     1       6.277   4.551  15.771  0.00  0.00    +0.000 C 
ATOM     16  C   UNL     1       7.323   4.564  16.856  0.00  0.00    +0.000 C 
ATOM     17  C   UNL     1       4.958   4.369  16.011  0.00  0.00    +0.000 C 
ENDBRANCH  12  17
ENDBRANCH   1  13
TORSDOF 2
ENDMDL
MODEL 7
REMARK VINA RESULT:      -6.4      0.907      1.121
REMARK  Name = 
REMARK  5 active torsions:
REMARK  status: ('A' for Active; 'I' for Inactive)
REMARK    1  A    between atoms: C_1  and  C_2
REMARK    2  A    between atoms: C_2  and  C_3
REMARK    3  A    between atoms: C_4  and  C_5
REMARK    4  A    between atoms: C_6  and  C_7
REMARK    5  A    between atoms: C_7  and  C_8
REMARK                            x       y       z     vdW  Elec       q    Type
REMARK                         _______ _______ _______ _____ _____    ______ ____
ROOT
ATOM      1  C   UNL     1       4.289   4.296  17.840  0.00  0.00    +0.000 C 
ATOM      2  C   UNL     1       4.496   3.711  16.430  0.00  0.00    +0.000 C 
ATOM      3  C   UNL     1       2.786   4.457  18.117  0.00  0.00    +0.000 C 
ATOM      4  C   UNL     1       2.197   3.704  19.302  0.00  0.00    +0.000 C 
ATOM      5  N   UNL     1       3.026   2.690  19.941  0.00  0.00    +0.000 NA
ATOM      6  C   UNL     1       4.266   2.645  19.647  0.00  0.00    +0.000 C 
ATOM      7  N   UNL     1       5.094   1.789  20.284  0.00  0.00    +0.000 N 
ATOM      8  N   UNL     1       4.936   3.406  18.775  0.00  0.00    +0.000 N 
ATOM      9  H   UNL     1       4.602   1.370  21.067  0.00  0.00    +0.000 HD
ATOM     10  H   UNL     1       5.943   2.236  20.602  0.00  0.00    +0.000 HD
ATOM     11  H   UNL     1       5.839   3.053  18.481  0.00  0.00    +0.000 HD
ENDROOT
BRANCH   1  13
ATOM     12  C   UNL     1       5.844   6.117  17.025  0.00  0.00    +0.000 C 
ATOM     13  C   UNL     1       4.992   5.644  17.953  0.00  0.00    +0.000 C 
BRANCH  12  17
ATOM     14  C   UNL     1       8.271   8.922  17.987  0.00  0.00    +0.000 C 
ATOM     15  C   UNL     1       7.612   7.573  17.937  0.00  0.00    +0.000 C 
ATOM     16  C   UNL     1       8.176   6.510  18.846  0.00  0.00    +0.000 C 
ATOM     17  C   UNL     1       6.563   7.365  17.109  0.00  0.00    +0.000 C 
ENDBRANCH  12  17
ENDBRANCH   1  13
TORSDOF 2
ENDMDL
MODEL 8
REMARK VINA RESULT:      -6.3      1.390      2.271
REMARK  Name = 
REMARK  5 active torsions:
REMARK  status: ('A' for Active; 'I' for Inactive)
REMARK    1  A    between atoms: C_1  and  C_2
REMARK    2  A    between atoms: C_2  and  C_3
REMARK    3  A    between atoms: C_4  and  C_5
REMARK    4  A    between atoms: C_6  and  C_7
REMARK    5  A    between atoms: C_7  and  C_8
REMARK                            x       y       z     vdW  Elec       q    Type
REMARK                         _______ _______ _______ _____ _____    ______ ____
ROOT
ATOM      1  C   UNL     1       3.505   2.768  18.894  0.00  0.00    +0.000 C 
ATOM      2  C   UNL     1       3.732   1.313  18.445  0.00  0.00    +0.000 C 
ATOM      3  C   UNL     1       2.381   3.397  18.058  0.00  0.00    +0.000 C 
ATOM      4  C   UNL     1       1.148   3.908  18.793  0.00  0.00    +0.000 C 
ATOM      5  N   UNL     1       0.997   3.545  20.196  0.00  0.00    +0.000 NA
ATOM      6  C   UNL     1       1.995   3.034  20.803  0.00  0.00    +0.000 C 
ATOM      7  N   UNL     1       1.935   2.772  22.126  0.00  0.00    +0.000 N 
ATOM      8  N   UNL     1       3.202   2.741  20.305  0.00  0.00    +0.000 N 
ATOM      9  H   UNL     1       1.090   3.182  22.510  0.00  0.00    +0.000 HD
ATOM     10  H   UNL     1       2.747   3.111  22.625  0.00  0.00    +0.000 HD
ATOM     11  H   UNL     1       3.765   2.104  20.856  0.00  0.00    +0.000 HD
ENDROOT
BRANCH   1  13
ATOM     12  C   UNL     1       4.865   4.900  18.915  0.00  0.00    +0.000 C 
ATOM     13  C   UNL     1       4.792   3.569  18.733  0.00  0.00    +0.000 C 
BRANCH  12  17
ATOM     14  C   UNL     1       7.565   7.232  17.516  0.00  0.00    +0.000 C 
ATOM     15  C   UNL     1       6.281   6.462  17.636  0.00  0.00    +0.000 C 
ATOM     16  C   UNL     1       5.311   6.579  16.487  0.00  0.00    +0.000 C 
ATOM     17  C   UNL     1       6.048   5.705  18.732  0.00  0.00    +0.000 C 
ENDBRANCH  12  17
ENDBRANCH   1  13
TORSDOF 2
ENDMDL
MODEL 9
REMARK VINA RESULT:      -6.3      2.420      5.369
REMARK  Name = 
REMARK  5 active torsions:
REMARK  status: ('A' for Active; 'I' for Inactive)
REMARK    1  A    between atoms: C_1  and  C_2
REMARK    2  A    between atoms: C_2  and  C_3
REMARK    3  A    between atoms: C_4  and  C_5
REMARK    4  A    between atoms: C_6  and  C_7
REMARK    5  A    between atoms: C_7  and  C_8
REMARK                            x       y       z     vdW  Elec       q    Type
REMARK                         _______ _______ _______ _____ _____    ______ ____
ROOT
ATOM      1  C   UNL     1       5.267   5.832  17.005  0.00  0.00    +0.000 C 
ATOM      2  C   UNL     1       5.201   7.363  16.864  0.00  0.00    +0.000 C 
ATOM      3  C   UNL     1       5.731   5.210  15.678  0.00  0.00    +0.000 C 
ATOM      4  C   UNL     1       7.010   4.383  15.689  0.00  0.00    +0.000 C 
ATOM      5  N   UNL     1       7.844   4.440  16.883  0.00  0.00    +0.000 NA
ATOM      6  C   UNL     1       7.361   4.971  17.937  0.00  0.00    +0.000 C 
ATOM      7  N   UNL     1       8.056   4.960  19.094  0.00  0.00    +0.000 N 
ATOM      8  N   UNL     1       6.159   5.537  18.100  0.00  0.00    +0.000 N 
ATOM      9  H   UNL     1       8.867   4.358  18.990  0.00  0.00    +0.000 HD
ATOM     10  H   UNL     1       7.495   4.660  19.880  0.00  0.00    +0.000 HD
ATOM     11  H   UNL     1       6.058   6.135  18.912  0.00  0.00    +0.000 HD
ENDROOT
BRANCH   1  13
ATOM     12  C   UNL     1       3.541   3.997  17.232  0.00  0.00    +0.000 C 
ATOM     13  C   UNL     1       3.897   5.285  17.391  0.00  0.00    +0.000 C 
BRANCH  12  17
ATOM     14  C   UNL     1       0.598   2.197  18.900  0.00  0.00    +0.000 C 
ATOM     15  C   UNL     1       1.967   2.776  18.686  0.00  0.00    +0.000 C 
ATOM     16  C   UNL     1       2.973   2.563  19.788  0.00  0.00    +0.000 C 
ATOM     17  C   UNL     1       2.245   3.444  17.543  0.00  0.00    +0.000 C 
ENDBRANCH  12  17
ENDBRANCH   1  13
TORSDOF 2
ENDMDL
