MODEL 1
REMARK VINA RESULT:      -7.1      0.000      0.000
REMARK  Name = 
REMARK  1 active torsions:
REMARK  status: ('A' for Active; 'I' for Inactive)
REMARK    1  A    between atoms: C_2  and  C_3
REMARK                            x       y       z     vdW  Elec       q    Type
REMARK                         _______ _______ _______ _____ _____    ______ ____
ROOT
ATOM      1  C   UNL     1       4.121   6.238  17.424  0.00  0.00    +0.000 C 
ATOM      2  C   UNL     1       3.841   4.931  17.588  0.00  0.00    +0.000 C 
ATOM      3  C   UNL     1       4.560   3.840  16.827  0.00  0.00    +0.000 C 
ATOM      4  C   UNL     1       5.769   4.339  16.001  0.00  0.00    +0.000 C 
ATOM      5  C   UNL     1       7.050   4.508  16.850  0.00  0.00    +0.000 C 
ATOM      6  N   UNL     1       6.988   5.590  17.834  0.00  0.00    +0.000 NA
ATOM      7  C   UNL     1       6.540   6.858  17.236  0.00  0.00    +0.000 C 
ATOM      8  C   UNL     1       5.206   6.703  16.472  0.00  0.00    +0.000 C 
ATOM      9  C   UNL     1       5.410   5.677  15.348  0.00  0.00    +0.000 C 
ATOM     10  H   UNL     1       7.896   5.717  18.280  0.00  0.00    +0.000 HD
ENDROOT
BRANCH   2  11
ATOM     11  C   UNL     1       2.879   4.506  18.608  0.00  0.00    +0.000 A 
ATOM     12  C   UNL     1       1.875   3.581  18.320  0.00  0.00    +0.000 A 
ATOM     13  C   UNL     1       0.990   3.197  19.325  0.00  0.00    +0.000 A 
ATOM     14  C   UNL     1       1.137   3.758  20.585  0.00  0.00    +0.000 A 
ATOM     15  N   UNL     1       2.089   4.661  20.900  0.00  0.00    +0.000 NA
ATOM     16  C   UNL     1       2.936   5.016  19.903  0.00  0.00    +0.000 A 
ENDBRANCH   2  11
TORSDOF 1
ENDMDL
MODEL 2
REMARK VINA RESULT:      -7.1      1.579      5.166
REMARK  Name = 
REMARK  1 active torsions:
REMARK  status: ('A' for Active; 'I' for Inactive)
REMARK    1  A    between atoms: C_2  and  C_3
REMARK                            x       y       z     vdW  Elec       q    Type
REMARK                         _______ _______ _______ _____ _____    ______ ____
ROOT
ATOM      1  C   UNL     1       3.929   3.953  17.297  0.00  0.00    +0.000 C 
ATOM      2  C   UNL     1       4.126   5.042  18.064  0.00  0.00    +0.000 C 
ATOM      3  C   UNL     1       3.099   5.539  19.056  0.00  0.00    +0.000 C 
ATOM      4  C   UNL     1       1.900   4.582  19.255  0.00  0.00    +0.000 C 
ATOM      5  C   UNL     1       2.205   3.430  20.239  0.00  0.00    +0.000 C 
ATOM      6  N   UNL     1       3.187   2.460  19.752  0.00  0.00    +0.000 NA
ATOM      7  C   UNL     1       2.864   1.974  18.402  0.00  0.00    +0.000 C 
ATOM      8  C   UNL     1       2.658   3.131  17.399  0.00  0.00    +0.000 C 
ATOM      9  C   UNL     1       1.495   4.000  17.897  0.00  0.00    +0.000 C 
ATOM     10  H   UNL     1       3.259   1.674  20.398  0.00  0.00    +0.000 HD
ENDROOT
BRANCH   2  11
ATOM     11  C   UNL     1       5.414   5.739  18.037  0.00  0.00    +0.000 A 
ATOM     12  C   UNL     1       6.452   5.387  18.901  0.00  0.00    +0.000 A 
ATOM     13  C   UNL     1       7.663   6.070  18.830  0.00  0.00    +0.000 A 
ATOM     14  C   UNL     1       7.793   7.090  17.899  0.00  0.00    +0.000 A 
ATOM     15  N   UNL     1       6.812   7.466  17.052  0.00  0.00    +0.000 NA
ATOM     16  C   UNL     1       5.644   6.784  17.144  0.00  0.00    +0.000 A 
ENDBRANCH   2  11
TORSDOF 1
ENDMDL
MODEL 3
REMARK VINA RESULT:      -7.1      1.336      2.043
REMARK  Name = 
REMARK  1 active torsions:
REMARK  status: ('A' for Active; 'I' for Inactive)
REMARK    1  A    between atoms: C_2  and  C_3
REMARK                            x       y       z     vdW  Elec       q    Type
REMARK                         _______ _______ _______ _____ _____    ______ ____
ROOT
ATOM      1  C   UNL     1       5.722   5.161  19.155  0.00  0.00    +0.000 C 
ATOM      2  C   UNL     1       4.438   5.217  18.750  0.00  0.00    +0.000 C 
ATOM      3  C   UNL     1       4.022   5.847  17.440  0.00  0.00    +0.000 C 
ATOM      4  C   UNL     1       5.206   6.236  16.524  0.00  0.00    +0.000 C 
ATOM      5  C   UNL     1       5.754   5.043  15.708  0.00  0.00    +0.000 C 
ATOM      6  N   UNL     1       6.420   4.015  16.509  0.00  0.00    +0.000 NA
ATOM      7  C   UNL     1       7.428   4.584  17.416  0.00  0.00    +0.000 C 
ATOM      8  C   UNL     1       6.848   5.710  18.300  0.00  0.00    +0.000 C 
ATOM      9  C   UNL     1       6.329   6.827  17.382  0.00  0.00    +0.000 C 
ATOM     10  H   UNL     1       6.851   3.317  15.903  0.00  0.00    +0.000 HD
ENDROOT
BRANCH   2  11
ATOM     11  C   UNL     1       3.389   4.564  19.536  0.00  0.00    +0.000 A 
ATOM     12  C   UNL     1       2.184   5.209  19.819  0.00  0.00    +0.000 A 
ATOM     13  C   UNL     1       1.210   4.544  20.560  0.00  0.00    +0.000 A 
ATOM     14  C   UNL     1       1.477   3.256  20.999  0.00  0.00    +0.000 A 
ATOM     15  N   UNL     1       2.632   2.602  20.753  0.00  0.00    +0.000 NA
ATOM     16  C   UNL     1       3.562   3.274  20.031  0.00  0.00    +0.000 A 
ENDBRANCH   2  11
TORSDOF 1
ENDMDL
MODEL 4
REMARK VINA RESULT:      -7.0      1.106      1.759
REMARK  Name = 
REMARK  1 active torsions:
REMARK  status: ('A' for Active; 'I' for Inactive)
REMARK    1  A    between atoms: C_2  and  C_3
REMARK                            x       y       z     vdW  Elec       q    Type
REMARK                         _______ _______ _______ _____ _____    ______ ____
ROOT
ATOM      1  C   UNL     1       5.625   5.294  19.038  0.00  0.00    +0.000 C 
ATOM      2  C   UNL     1       4.467   5.425  18.363  0.00  0.00    +0.000 C 
ATOM      3  C   UNL     1       4.387   6.070  16.997  0.00  0.00    +0.000 C 
ATOM      4  C   UNL     1       5.764   6.381  16.365  0.00  0.00    +0.000 C 
ATOM      5  C   UNL     1       6.404   5.152  15.680  0.00  0.00    +0.000 C 
ATOM      6  N   UNL     1       6.815   4.090  16.600  0.00  0.00    +0.000 NA
ATOM      7  C   UNL     1       7.632   4.603  17.710  0.00  0.00    +0.000 C 
ATOM      8  C   UNL     1       6.942   5.767  18.454  0.00  0.00    +0.000 C 
ATOM      9  C   UNL     1       6.705   6.907  17.452  0.00  0.00    +0.000 C 
ATOM     10  H   UNL     1       7.324   3.363  16.098  0.00  0.00    +0.000 HD
ENDROOT
BRANCH   2  11
ATOM     11  C   UNL     1       3.233   4.842  18.895  0.00  0.00    +0.000 A 
ATOM     12  C   UNL     1       2.418   4.022  18.113  0.00  0.00    +0.000 A 
ATOM     13  C   UNL     1       1.261   3.481  18.666  0.00  0.00    +0.000 A 
ATOM     14  C   UNL     1       0.954   3.783  19.984  0.00  0.00    +0.000 A 
ATOM     15  N   UNL     1       1.711   4.578  20.770  0.00  0.00    +0.000 NA
ATOM     16  C   UNL     1       2.831   5.091  20.205  0.00  0.00    +0.000 A 
ENDBRANCH   2  11
TORSDOF 1
ENDMDL
MODEL 5
REMARK VINA RESULT:      -7.0      0.812      1.245
REMARK  Name = 
REMARK  1 active torsions:
REMARK  status: ('A' for Active; 'I' for Inactive)
REMARK    1  A    between atoms: C_2  and  C_3
REMARK                            x       y       z     vdW  Elec       q    Type
REMARK                         _______ _______ _______ _____ _____    ______ ____
ROOT
ATOM      1  C   UNL     1       4.051   6.191  17.356  0.00  0.00    +0.000 C 
ATOM      2  C   UNL     1       3.777   4.878  17.475  0.00  0.00    +0.000 C 
ATOM      3  C   UNL     1       4.544   3.812  16.725  0.00  0.00    +0.000 C 
ATOM      4  C   UNL     1       5.787   4.343  15.972  0.00  0.00    +0.000 C 
ATOM      5  C   UNL     1       7.023   4.503  16.886  0.00  0.00    +0.000 C 
ATOM      6  N   UNL     1       6.901   5.561  17.890  0.00  0.00    +0.000 NA
ATOM      7  C   UNL     1       6.469   6.838  17.302  0.00  0.00    +0.000 C 
ATOM      8  C   UNL     1       5.176   6.689  16.469  0.00  0.00    +0.000 C 
ATOM      9  C   UNL     1       5.446   5.692  15.333  0.00  0.00    +0.000 C 
ATOM     10  H   UNL     1       7.785   5.686  18.383  0.00  0.00    +0.000 HD
ENDROOT
BRANCH   2  11
ATOM     11  C   UNL     1       2.772   4.419  18.436  0.00  0.00    +0.000 A 
ATOM     12  C   UNL     1       2.467   5.158  19.580  0.00  0.00    +0.000 A 
ATOM     13  C   UNL     1       1.494   4.688  20.459  0.00  0.00    +0.000 A 
ATOM     14  C   UNL     1       0.862   3.489  20.166  0.00  0.00    +0.000 A 
ATOM     15  N   UNL     1       1.134   2.742  19.076  0.00  0.00    +0.000 NA
ATOM     16  C   UNL     1       2.085   3.223  18.239  0.00  0.00    +0.000 A 
ENDBRANCH   2  11
TORSDOF 1
ENDMDL
MODEL 6
REMARK VINA RESULT:      -7.0      1.546      5.105
REMARK  Name = 
REMARK  1 active torsions:
REMARK  status: ('A' for Active; 'I' for Inactive)
REMARK    1  A    between atoms: C_2  and  C_3
REMARK                            x       y       z     vdW  Elec       q    Type
REMARK                         _______ _______ _______ _____ _____    ______ ____
ROOT
ATOM      1  C   UNL     1       3.962   3.876  17.411  0.00  0.00    +0.000 C 
ATOM      2  C   UNL     1       4.167   4.983  18.151  0.00  0.00    +0.000 C 
ATOM      3  C   UNL     1       3.075   5.628  18.974  0.00  0.00    +0.000 C 
ATOM      4  C   UNL     1       1.770   4.801  19.050  0.00  0.00    +0.000 C 
ATOM      5  C   UNL     1       1.827   3.681  20.114  0.00  0.00    +0.000 C 
ATOM      6  N   UNL     1       2.762   2.598  19.805  0.00  0.00    +0.000 NA
ATOM      7  C   UNL     1       2.570   2.070  18.445  0.00  0.00    +0.000 C 
ATOM      8  C   UNL     1       2.613   3.184  17.376  0.00  0.00    +0.000 C 
ATOM      9  C   UNL     1       1.488   4.186  17.676  0.00  0.00    +0.000 C 
ATOM     10  H   UNL     1       2.670   1.846  20.488  0.00  0.00    +0.000 HD
ENDROOT
BRANCH   2  11
ATOM     11  C   UNL     1       5.511   5.553  18.267  0.00  0.00    +0.000 A 
ATOM     12  C   UNL     1       5.981   6.501  17.357  0.00  0.00    +0.000 A 
ATOM     13  C   UNL     1       7.262   7.024  17.515  0.00  0.00    +0.000 A 
ATOM     14  C   UNL     1       8.033   6.576  18.577  0.00  0.00    +0.000 A 
ATOM     15  N   UNL     1       7.618   5.656  19.472  0.00  0.00    +0.000 NA
ATOM     16  C   UNL     1       6.368   5.164  19.294  0.00  0.00    +0.000 A 
ENDBRANCH   2  11
TORSDOF 1
ENDMDL
MODEL 7
REMARK VINA RESULT:      -7.0      1.353      2.135
REMARK  Name = 
REMARK  1 active torsions:
REMARK  status: ('A' for Active; 'I' for Inactive)
REMARK    1  A    between atoms: C_2  and  C_3
REMARK                            x       y       z     vdW  Elec       q    Type
REMARK                         _______ _______ _______ _____ _____    ______ ____
ROOT
ATOM      1  C   UNL     1       5.545   5.186  19.042  0.00  0.00    +0.000 C 
ATOM      2  C   UNL     1       4.420   5.288  18.309  0.00  0.00    +0.000 C 
ATOM      3  C   UNL     1       4.381   5.977  16.963  0.00  0.00    +0.000 C 
ATOM      4  C   UNL     1       5.774   6.371  16.417  0.00  0.00    +0.000 C 
ATOM      5  C   UNL     1       6.506   5.196  15.728  0.00  0.00    +0.000 C 
ATOM      6  N   UNL     1       6.916   4.122  16.634  0.00  0.00    +0.000 NA
ATOM      7  C   UNL     1       7.650   4.632  17.803  0.00  0.00    +0.000 C 
ATOM      8  C   UNL     1       6.868   5.738  18.546  0.00  0.00    +0.000 C 
ATOM      9  C   UNL     1       6.631   6.901  17.570  0.00  0.00    +0.000 C 
ATOM     10  H   UNL     1       7.485   3.437  16.137  0.00  0.00    +0.000 HD
ENDROOT
BRANCH   2  11
ATOM     11  C   UNL     1       3.188   4.632  18.755  0.00  0.00    +0.000 A 
ATOM     12  C   UNL     1       2.763   4.706  20.082  0.00  0.00    +0.000 A 
ATOM     13  C   UNL     1       1.579   4.077  20.457  0.00  0.00    +0.000 A 
ATOM     14  C   UNL     1       0.861   3.389  19.490  0.00  0.00    +0.000 A 
ATOM     15  N   UNL     1       1.243   3.287  18.200  0.00  0.00    +0.000 NA
ATOM     16  C   UNL     1       2.399   3.909  17.864  0.00  0.00    +0.000 A 
ENDBRANCH   2  11
TORSDOF 1
ENDMDL
MODEL 8
REMARK VINA RESULT:      -6.9      1.683      5.210
REMARK  Name = 
REMARK  1 active torsions:
REMARK  status: ('A' for Active; 'I' for Inactive)
REMARK    1  A    between atoms: C_2  and  C_3
REMARK                            x       y       z     vdW  Elec       q    Type
REMARK                         _______ _______ _______ _____ _____    ______ ____
ROOT
ATOM      1  C   UNL     1       4.778   3.552  19.333  0.00  0.00    +0.000 C 
ATOM      2  C   UNL     1       4.851   4.223  18.167  0.00  0.00    +0.000 C 
ATOM      3  C   UNL     1       3.888   3.984  17.026  0.00  0.00    +0.000 C 
ATOM      4  C   UNL     1       2.703   3.058  17.384  0.00  0.00    +0.000 C 
ATOM      5  C   UNL     1       1.559   3.797  18.115  0.00  0.00    +0.000 C 
ATOM      6  N   UNL     1       1.898   4.258  19.462  0.00  0.00    +0.000 NA
ATOM      7  C   UNL     1       2.489   3.190  20.283  0.00  0.00    +0.000 C 
ATOM      8  C   UNL     1       3.696   2.520  19.588  0.00  0.00    +0.000 C 
ATOM      9  C   UNL     1       3.213   1.911  18.263  0.00  0.00    +0.000 C 
ATOM     10  H   UNL     1       1.073   4.638  19.926  0.00  0.00    +0.000 HD
ENDROOT
BRANCH   2  11
ATOM     11  C   UNL     1       5.825   5.304  17.999  0.00  0.00    +0.000 A 
ATOM     12  C   UNL     1       6.929   5.427  18.843  0.00  0.00    +0.000 A 
ATOM     13  C   UNL     1       7.836   6.464  18.637  0.00  0.00    +0.000 A 
ATOM     14  C   UNL     1       7.603   7.348  17.595  0.00  0.00    +0.000 A 
ATOM     15  N   UNL     1       6.544   7.268  16.762  0.00  0.00    +0.000 NA
ATOM     16  C   UNL     1       5.678   6.249  16.987  0.00  0.00    +0.000 A 
ENDBRANCH   2  11
TORSDOF 1
ENDMDL
MODEL 9
REMARK VINA RESULT:      -6.9      1.990      5.389
REMARK  Name = 
REMARK  1 active torsions:
REMARK  status: ('A' for Active; 'I' for Inactive)
REMARK    1  A    between atoms: C_2  and  C_3
REMARK                            x       y       z     vdW  Elec       q    Type
REMARK                         _______ _______ _______ _____ _____    ______ ____
ROOT
ATOM      1  C   UNL     1       3.404   3.731  16.838  0.00  0.00    +0.000 C 
ATOM      2  C   UNL     1       4.624   4.244  17.089  0.00  0.00    +0.000 C 
ATOM      3  C   UNL     1       5.123   4.514  18.491  0.00  0.00    +0.000 C 
ATOM      4  C   UNL     1       4.199   3.969  19.605  0.00  0.00    +0.000 C 
ATOM      5  C   UNL     1       4.414   2.464  19.883  0.00  0.00    +0.000 C 
ATOM      6  N   UNL     1       3.997   1.580  18.793  0.00  0.00    +0.000 NA
ATOM      7  C   UNL     1       2.632   1.876  18.330  0.00  0.00    +0.000 C 
ATOM      8  C   UNL     1       2.452   3.364  17.959  0.00  0.00    +0.000 C 
ATOM      9  C   UNL     1       2.740   4.212  19.207  0.00  0.00    +0.000 C 
ATOM     10  H   UNL     1       4.063   0.604  19.083  0.00  0.00    +0.000 HD
ENDROOT
BRANCH   2  11
ATOM     11  C   UNL     1       5.570   4.467  15.993  0.00  0.00    +0.000 A 
ATOM     12  C   UNL     1       5.381   3.887  14.738  0.00  0.00    +0.000 A 
ATOM     13  C   UNL     1       6.300   4.138  13.723  0.00  0.00    +0.000 A 
ATOM     14  C   UNL     1       7.383   4.958  13.999  0.00  0.00    +0.000 A 
ATOM     15  N   UNL     1       7.606   5.531  15.201  0.00  0.00    +0.000 NA
ATOM     16  C   UNL     1       6.695   5.269  16.170  0.00  0.00    +0.000 A 
ENDBRANCH   2  11
TORSDOF 1
ENDMDL
