MODEL 1
REMARK VINA RESULT:      -8.6      0.000      0.000
REMARK  Name = 
REMARK  6 active torsions:
REMARK  status: ('A' for Active; 'I' for Inactive)
REMARK    1  A    between atoms: C_1  and  N_2
REMARK    2  A    between atoms: N_2  and  C_3
REMARK    3  A    between atoms: N_2  and  C_4
REMARK    4  A    between atoms: C_4  and  C_5
REMARK    5  A    between atoms: C_5  and  C_6
REMARK    6  A    between atoms: N_8  and  C_9
REMARK                            x       y       z     vdW  Elec       q    Type
REMARK                         _______ _______ _______ _____ _____    ______ ____
ROOT
ATOM      1  C   UNL     1       0.105  10.041  18.658  0.00  0.00    +0.000 A 
ATOM      2  C   UNL     1       1.198   9.288  18.130  0.00  0.00    +0.000 A 
ATOM      3  N   UNL     1       1.764   8.483  19.142  0.00  0.00    +0.000 N 
ATOM      4  C   UNL     1       1.151   9.013  20.387  0.00  0.00    +0.000 A 
ATOM      5  C   UNL     1       1.203   8.651  21.778  0.00  0.00    +0.000 A 
ATOM      6  C   UNL     1       0.376   9.303  22.730  0.00  0.00    +0.000 A 
ATOM      7  C   UNL     1      -0.421  10.373  22.386  0.00  0.00    +0.000 A 
ATOM      8  C   UNL     1      -0.457  10.750  21.051  0.00  0.00    +0.000 A 
ATOM      9  C   UNL     1       0.237  10.029  20.042  0.00  0.00    +0.000 A 
ENDROOT
BRANCH   3  10
ATOM     10  C   UNL     1       2.196   7.035  18.923  0.00  0.00    +0.000 A 
ATOM     11  C   UNL     1       3.185   7.124  17.955  0.00  0.00    +0.000 A 
ATOM     12  C   UNL     1       4.174   6.221  18.067  0.00  0.00    +0.000 A 
ATOM     13  C   UNL     1       3.618   5.029  17.760  0.00  0.00    +0.000 A 
ATOM     14  C   UNL     1       2.630   4.579  18.605  0.00  0.00    +0.000 A 
ATOM     15  C   UNL     1       2.497   3.200  18.546  0.00  0.00    +0.000 A 
ATOM     16  C   UNL     1       1.954   2.447  19.574  0.00  0.00    +0.000 A 
ATOM     17  C   UNL     1       1.529   3.169  20.668  0.00  0.00    +0.000 A 
ATOM     18  C   UNL     1       1.498   4.641  20.644  0.00  0.00    +0.000 A 
ATOM     19  C   UNL     1       2.015   5.561  19.525  0.00  0.00    +0.000 A 
ENDBRANCH   3  10
BRANCH   1  20
ATOM     20  C   UNL     1      -0.962  10.866  17.979  0.00  0.00    +0.000 C 
BRANCH  20  21
ATOM     21  C   UNL     1      -2.094  10.201  17.119  0.00  0.00    +0.000 C 
BRANCH  21  23
ATOM     22  C   UNL     1      -2.980  10.268  14.821  0.00  0.00    +0.000 C 
ATOM     23  N   UNL     1      -2.901  10.909  16.123  0.00  0.00    +0.000 NA
ATOM     24  C   UNL     1      -4.190  11.380  16.591  0.00  0.00    +0.000 C 
ENDBRANCH  21  23
ENDBRANCH  20  21
ENDBRANCH   1  20
TORSDOF 4
ENDMDL
MODEL 2
REMARK VINA RESULT:      -8.5      2.586      7.221
REMARK  Name = 
REMARK  6 active torsions:
REMARK  status: ('A' for Active; 'I' for Inactive)
REMARK    1  A    between atoms: C_1  and  N_2
REMARK    2  A    between atoms: N_2  and  C_3
REMARK    3  A    between atoms: N_2  and  C_4
REMARK    4  A    between atoms: C_4  and  C_5
REMARK    5  A    between atoms: C_5  and  C_6
REMARK    6  A    between atoms: N_8  and  C_9
REMARK                            x       y       z     vdW  Elec       q    Type
REMARK                         _______ _______ _______ _____ _____    ______ ____
ROOT
ATOM      1  C   UNL     1       4.522   5.187  19.092  0.00  0.00    +0.000 A 
ATOM      2  C   UNL     1       3.885   6.299  18.460  0.00  0.00    +0.000 A 
ATOM      3  N   UNL     1       2.569   6.445  18.952  0.00  0.00    +0.000 N 
ATOM      4  C   UNL     1       2.337   5.179  19.693  0.00  0.00    +0.000 A 
ATOM      5  C   UNL     1       1.265   4.656  20.497  0.00  0.00    +0.000 A 
ATOM      6  C   UNL     1       1.409   3.426  21.190  0.00  0.00    +0.000 A 
ATOM      7  C   UNL     1       2.526   2.634  21.036  0.00  0.00    +0.000 A 
ATOM      8  C   UNL     1       3.556   3.116  20.240  0.00  0.00    +0.000 A 
ATOM      9  C   UNL     1       3.516   4.408  19.651  0.00  0.00    +0.000 A 
ENDROOT
BRANCH   3  10
ATOM     10  C   UNL     1       1.946   7.795  19.299  0.00  0.00    +0.000 A 
ATOM     11  C   UNL     1       2.129   8.552  18.153  0.00  0.00    +0.000 A 
ATOM     12  C   UNL     1       1.148   9.434  17.892  0.00  0.00    +0.000 A 
ATOM     13  C   UNL     1       1.245  10.383  18.847  0.00  0.00    +0.000 A 
ATOM     14  C   UNL     1       1.018   9.974  20.141  0.00  0.00    +0.000 A 
ATOM     15  C   UNL     1       0.623  11.030  20.948  0.00  0.00    +0.000 A 
ATOM     16  C   UNL     1      -0.104  10.861  22.115  0.00  0.00    +0.000 A 
ATOM     17  C   UNL     1      -0.397   9.554  22.439  0.00  0.00    +0.000 A 
ATOM     18  C   UNL     1       0.187   8.433  21.682  0.00  0.00    +0.000 A 
ATOM     19  C   UNL     1       1.057   8.522  20.417  0.00  0.00    +0.000 A 
ENDBRANCH   3  10
BRANCH   1  20
ATOM     20  C   UNL     1       5.962   4.734  19.101  0.00  0.00    +0.000 C 
BRANCH  20  21
ATOM     21  C   UNL     1       7.146   5.748  18.917  0.00  0.00    +0.000 C 
BRANCH  21  23
ATOM     22  C   UNL     1       7.058   5.587  16.460  0.00  0.00    +0.000 C 
ATOM     23  N   UNL     1       7.593   6.272  17.625  0.00  0.00    +0.000 NA
ATOM     24  C   UNL     1       7.546   7.715  17.493  0.00  0.00    +0.000 C 
ENDBRANCH  21  23
ENDBRANCH  20  21
ENDBRANCH   1  20
TORSDOF 4
ENDMDL
MODEL 3
REMARK VINA RESULT:      -8.0      2.447      7.053
REMARK  Name = 
REMARK  6 active torsions:
REMARK  status: ('A' for Active; 'I' for Inactive)
REMARK    1  A    between atoms: C_1  and  N_2
REMARK    2  A    between atoms: N_2  and  C_3
REMARK    3  A    between atoms: N_2  and  C_4
REMARK    4  A    between atoms: C_4  and  C_5
REMARK    5  A    between atoms: C_5  and  C_6
REMARK    6  A    between atoms: N_8  and  C_9
REMARK                            x       y       z     vdW  Elec       q    Type
REMARK                         _______ _______ _______ _____ _____    ______ ____
ROOT
ATOM      1  C   UNL     1       4.420   5.646  18.736  0.00  0.00    +0.000 A 
ATOM      2  C   UNL     1       3.631   6.728  18.238  0.00  0.00    +0.000 A 
ATOM      3  N   UNL     1       2.385   6.763  18.902  0.00  0.00    +0.000 N 
ATOM      4  C   UNL     1       2.339   5.460  19.615  0.00  0.00    +0.000 A 
ATOM      5  C   UNL     1       1.421   4.835  20.528  0.00  0.00    +0.000 A 
ATOM      6  C   UNL     1       1.739   3.597  21.145  0.00  0.00    +0.000 A 
ATOM      7  C   UNL     1       2.877   2.894  20.816  0.00  0.00    +0.000 A 
ATOM      8  C   UNL     1       3.757   3.475  19.913  0.00  0.00    +0.000 A 
ATOM      9  C   UNL     1       3.552   4.779  19.388  0.00  0.00    +0.000 A 
ENDROOT
BRANCH   3  10
ATOM     10  C   UNL     1       1.723   8.052  19.382  0.00  0.00    +0.000 A 
ATOM     11  C   UNL     1       1.827   8.906  18.296  0.00  0.00    +0.000 A 
ATOM     12  C   UNL     1       0.801   9.762  18.146  0.00  0.00    +0.000 A 
ATOM     13  C   UNL     1       0.900  10.635  19.171  0.00  0.00    +0.000 A 
ATOM     14  C   UNL     1       0.744  10.114  20.435  0.00  0.00    +0.000 A 
ATOM     15  C   UNL     1       0.341  11.084  21.340  0.00  0.00    +0.000 A 
ATOM     16  C   UNL     1      -0.329  10.791  22.516  0.00  0.00    +0.000 A 
ATOM     17  C   UNL     1      -0.555   9.450  22.743  0.00  0.00    +0.000 A 
ATOM     18  C   UNL     1       0.041   8.420  21.876  0.00  0.00    +0.000 A 
ATOM     19  C   UNL     1       0.853   8.647  20.590  0.00  0.00    +0.000 A 
ENDBRANCH   3  10
BRANCH   1  20
ATOM     20  C   UNL     1       5.876   5.299  18.540  0.00  0.00    +0.000 C 
BRANCH  20  21
ATOM     21  C   UNL     1       6.730   5.946  17.393  0.00  0.00    +0.000 C 
BRANCH  21  23
ATOM     22  C   UNL     1       6.820   4.217  15.639  0.00  0.00    +0.000 C 
ATOM     23  N   UNL     1       6.596   5.614  15.973  0.00  0.00    +0.000 NA
ATOM     24  C   UNL     1       5.424   6.163  15.318  0.00  0.00    +0.000 C 
ENDBRANCH  21  23
ENDBRANCH  20  21
ENDBRANCH   1  20
TORSDOF 4
ENDMDL
MODEL 4
REMARK VINA RESULT:      -7.9      1.684      2.252
REMARK  Name = 
REMARK  6 active torsions:
REMARK  status: ('A' for Active; 'I' for Inactive)
REMARK    1  A    between atoms: C_1  and  N_2
REMARK    2  A    between atoms: N_2  and  C_3
REMARK    3  A    between atoms: N_2  and  C_4
REMARK    4  A    between atoms: C_4  and  C_5
REMARK    5  A    between atoms: C_5  and  C_6
REMARK    6  A    between atoms: N_8  and  C_9
REMARK                            x       y       z     vdW  Elec       q    Type
REMARK                         _______ _______ _______ _____ _____    ______ ____
ROOT
ATOM      1  C   UNL     1       0.025  10.458  19.062  0.00  0.00    +0.000 A 
ATOM      2  C   UNL     1       1.120   9.736  18.495  0.00  0.00    +0.000 A 
ATOM      3  N   UNL     1       1.651   8.838  19.446  0.00  0.00    +0.000 N 
ATOM      4  C   UNL     1       1.017   9.269  20.718  0.00  0.00    +0.000 A 
ATOM      5  C   UNL     1       1.031   8.789  22.074  0.00  0.00    +0.000 A 
ATOM      6  C   UNL     1       0.192   9.370  23.060  0.00  0.00    +0.000 A 
ATOM      7  C   UNL     1      -0.582  10.478  22.792  0.00  0.00    +0.000 A 
ATOM      8  C   UNL     1      -0.582  10.968  21.493  0.00  0.00    +0.000 A 
ATOM      9  C   UNL     1       0.125  10.325  20.442  0.00  0.00    +0.000 A 
ENDROOT
BRANCH   3  10
ATOM     10  C   UNL     1       2.069   7.408  19.113  0.00  0.00    +0.000 A 
ATOM     11  C   UNL     1       2.869   7.546  17.990  0.00  0.00    +0.000 A 
ATOM     12  C   UNL     1       3.882   6.666  17.901  0.00  0.00    +0.000 A 
ATOM     13  C   UNL     1       3.306   5.468  17.663  0.00  0.00    +0.000 A 
ATOM     14  C   UNL     1       2.492   4.973  18.655  0.00  0.00    +0.000 A 
ATOM     15  C   UNL     1       2.380   3.592  18.580  0.00  0.00    +0.000 A 
ATOM     16  C   UNL     1       2.043   2.801  19.665  0.00  0.00    +0.000 A 
ATOM     17  C   UNL     1       1.801   3.484  20.838  0.00  0.00    +0.000 A 
ATOM     18  C   UNL     1       1.736   4.955  20.861  0.00  0.00    +0.000 A 
ATOM     19  C   UNL     1       2.028   5.915  19.696  0.00  0.00    +0.000 A 
ENDBRANCH   3  10
BRANCH   1  20
ATOM     20  C   UNL     1      -1.014  11.354  18.432  0.00  0.00    +0.000 C 
BRANCH  20  21
ATOM     21  C   UNL     1      -0.774  12.896  18.259  0.00  0.00    +0.000 C 
BRANCH  21  23
ATOM     22  C   UNL     1       0.930  14.579  18.835  0.00  0.00    +0.000 C 
ATOM     23  N   UNL     1      -0.187  13.763  19.282  0.00  0.00    +0.000 NA
ATOM     24  C   UNL     1      -1.138  14.510  20.081  0.00  0.00    +0.000 C 
ENDBRANCH  21  23
ENDBRANCH  20  21
ENDBRANCH   1  20
TORSDOF 4
ENDMDL
MODEL 5
REMARK VINA RESULT:      -7.8      2.460      7.354
REMARK  Name = 
REMARK  6 active torsions:
REMARK  status: ('A' for Active; 'I' for Inactive)
REMARK    1  A    between atoms: C_1  and  N_2
REMARK    2  A    between atoms: N_2  and  C_3
REMARK    3  A    between atoms: N_2  and  C_4
REMARK    4  A    between atoms: C_4  and  C_5
REMARK    5  A    between atoms: C_5  and  C_6
REMARK    6  A    between atoms: N_8  and  C_9
REMARK                            x       y       z     vdW  Elec       q    Type
REMARK                         _______ _______ _______ _____ _____    ______ ____
ROOT
ATOM      1  C   UNL     1       2.374   4.564  18.402  0.00  0.00    +0.000 A 
ATOM      2  C   UNL     1       2.046   5.486  19.443  0.00  0.00    +0.000 A 
ATOM      3  N   UNL     1       2.648   6.738  19.189  0.00  0.00    +0.000 N 
ATOM      4  C   UNL     1       3.608   6.441  18.095  0.00  0.00    +0.000 A 
ATOM      5  C   UNL     1       4.508   7.226  17.293  0.00  0.00    +0.000 A 
ATOM      6  C   UNL     1       5.218   6.641  16.213  0.00  0.00    +0.000 A 
ATOM      7  C   UNL     1       5.162   5.289  15.956  0.00  0.00    +0.000 A 
ATOM      8  C   UNL     1       4.319   4.516  16.741  0.00  0.00    +0.000 A 
ATOM      9  C   UNL     1       3.476   5.085  17.734  0.00  0.00    +0.000 A 
ENDROOT
BRANCH   3  10
ATOM     10  C   UNL     1       1.936   8.072  19.396  0.00  0.00    +0.000 A 
ATOM     11  C   UNL     1       2.002   8.682  18.154  0.00  0.00    +0.000 A 
ATOM     12  C   UNL     1       0.943   9.448  17.839  0.00  0.00    +0.000 A 
ATOM     13  C   UNL     1       1.009  10.520  18.658  0.00  0.00    +0.000 A 
ATOM     14  C   UNL     1       0.879  10.270  20.004  0.00  0.00    +0.000 A 
ATOM     15  C   UNL     1       0.440  11.392  20.691  0.00  0.00    +0.000 A 
ATOM     16  C   UNL     1      -0.214  11.326  21.910  0.00  0.00    +0.000 A 
ATOM     17  C   UNL     1      -0.386  10.055  22.416  0.00  0.00    +0.000 A 
ATOM     18  C   UNL     1       0.249   8.889  21.776  0.00  0.00    +0.000 A 
ATOM     19  C   UNL     1       1.047   8.873  20.462  0.00  0.00    +0.000 A 
ENDBRANCH   3  10
BRANCH   1  20
ATOM     20  C   UNL     1       1.829   3.196  18.070  0.00  0.00    +0.000 C 
BRANCH  20  21
ATOM     21  C   UNL     1       1.530   2.136  19.187  0.00  0.00    +0.000 C 
BRANCH  21  23
ATOM     22  C   UNL     1       3.674   2.340  20.383  0.00  0.00    +0.000 C 
ATOM     23  N   UNL     1       2.253   2.045  20.457  0.00  0.00    +0.000 NA
ATOM     24  C   UNL     1       1.608   2.689  21.585  0.00  0.00    +0.000 C 
ENDBRANCH  21  23
ENDBRANCH  20  21
ENDBRANCH   1  20
TORSDOF 4
ENDMDL
MODEL 6
REMARK VINA RESULT:      -7.7      1.094      2.248
REMARK  Name = 
REMARK  6 active torsions:
REMARK  status: ('A' for Active; 'I' for Inactive)
REMARK    1  A    between atoms: C_1  and  N_2
REMARK    2  A    between atoms: N_2  and  C_3
REMARK    3  A    between atoms: N_2  and  C_4
REMARK    4  A    between atoms: C_4  and  C_5
REMARK    5  A    between atoms: C_5  and  C_6
REMARK    6  A    between atoms: N_8  and  C_9
REMARK                            x       y       z     vdW  Elec       q    Type
REMARK                         _______ _______ _______ _____ _____    ______ ____
ROOT
ATOM      1  C   UNL     1      -0.105  10.094  18.996  0.00  0.00    +0.000 A 
ATOM      2  C   UNL     1       1.092   9.423  18.597  0.00  0.00    +0.000 A 
ATOM      3  N   UNL     1       1.671   8.767  19.705  0.00  0.00    +0.000 N 
ATOM      4  C   UNL     1       0.928   9.327  20.863  0.00  0.00    +0.000 A 
ATOM      5  C   UNL     1       0.926   9.085  22.281  0.00  0.00    +0.000 A 
ATOM      6  C   UNL     1      -0.023   9.719  23.125  0.00  0.00    +0.000 A 
ATOM      7  C   UNL     1      -0.902  10.665  22.646  0.00  0.00    +0.000 A 
ATOM      8  C   UNL     1      -0.890  10.928  21.283  0.00  0.00    +0.000 A 
ATOM      9  C   UNL     1      -0.062  10.207  20.381  0.00  0.00    +0.000 A 
ENDROOT
BRANCH   3  10
ATOM     10  C   UNL     1       2.263   7.362  19.636  0.00  0.00    +0.000 A 
ATOM     11  C   UNL     1       1.625   6.680  20.660  0.00  0.00    +0.000 A 
ATOM     12  C   UNL     1       1.395   5.377  20.420  0.00  0.00    +0.000 A 
ATOM     13  C   UNL     1       2.608   4.783  20.429  0.00  0.00    +0.000 A 
ATOM     14  C   UNL     1       3.488   5.175  19.448  0.00  0.00    +0.000 A 
ATOM     15  C   UNL     1       4.444   4.201  19.202  0.00  0.00    +0.000 A 
ATOM     16  C   UNL     1       5.134   4.102  18.005  0.00  0.00    +0.000 A 
ATOM     17  C   UNL     1       4.820   5.060  17.066  0.00  0.00    +0.000 A 
ATOM     18  C   UNL     1       3.948   6.199  17.403  0.00  0.00    +0.000 A 
ATOM     19  C   UNL     1       3.193   6.429  18.722  0.00  0.00    +0.000 A 
ENDBRANCH   3  10
BRANCH   1  20
ATOM     20  C   UNL     1      -1.204  10.742  18.190  0.00  0.00    +0.000 C 
BRANCH  20  21
ATOM     21  C   UNL     1      -2.543   9.988  17.867  0.00  0.00    +0.000 C 
BRANCH  21  23
ATOM     22  C   UNL     1      -4.342  11.399  16.949  0.00  0.00    +0.000 C 
ATOM     23  N   UNL     1      -3.416  10.299  16.734  0.00  0.00    +0.000 NA
ATOM     24  C   UNL     1      -2.755  10.372  15.445  0.00  0.00    +0.000 C 
ENDBRANCH  21  23
ENDBRANCH  20  21
ENDBRANCH   1  20
TORSDOF 4
ENDMDL
MODEL 7
REMARK VINA RESULT:      -7.6      2.801      7.345
REMARK  Name = 
REMARK  6 active torsions:
REMARK  status: ('A' for Active; 'I' for Inactive)
REMARK    1  A    between atoms: C_1  and  N_2
REMARK    2  A    between atoms: N_2  and  C_3
REMARK    3  A    between atoms: N_2  and  C_4
REMARK    4  A    between atoms: C_4  and  C_5
REMARK    5  A    between atoms: C_5  and  C_6
REMARK    6  A    between atoms: N_8  and  C_9
REMARK                            x       y       z     vdW  Elec       q    Type
REMARK                         _______ _______ _______ _____ _____    ______ ____
ROOT
ATOM      1  C   UNL     1       4.056   4.111  18.876  0.00  0.00    +0.000 A 
ATOM      2  C   UNL     1       3.735   5.218  19.720  0.00  0.00    +0.000 A 
ATOM      3  N   UNL     1       3.780   6.420  18.980  0.00  0.00    +0.000 N 
ATOM      4  C   UNL     1       4.442   6.018  17.712  0.00  0.00    +0.000 A 
ATOM      5  C   UNL     1       4.762   6.685  16.479  0.00  0.00    +0.000 A 
ATOM      6  C   UNL     1       5.301   5.964  15.382  0.00  0.00    +0.000 A 
ATOM      7  C   UNL     1       5.641   4.633  15.485  0.00  0.00    +0.000 A 
ATOM      8  C   UNL     1       5.362   3.985  16.681  0.00  0.00    +0.000 A 
ATOM      9  C   UNL     1       4.686   4.631  17.751  0.00  0.00    +0.000 A 
ENDROOT
BRANCH   3  10
ATOM     10  C   UNL     1       2.743   7.532  19.116  0.00  0.00    +0.000 A 
ATOM     11  C   UNL     1       2.693   8.098  17.853  0.00  0.00    +0.000 A 
ATOM     12  C   UNL     1       1.484   8.555  17.482  0.00  0.00    +0.000 A 
ATOM     13  C   UNL     1       1.245   9.634  18.259  0.00  0.00    +0.000 A 
ATOM     14  C   UNL     1       1.137   9.402  19.610  0.00  0.00    +0.000 A 
ATOM     15  C   UNL     1       0.402  10.394  20.241  0.00  0.00    +0.000 A 
ATOM     16  C   UNL     1      -0.254  10.201  21.445  0.00  0.00    +0.000 A 
ATOM     17  C   UNL     1      -0.112   8.946  21.996  0.00  0.00    +0.000 A 
ATOM     18  C   UNL     1       0.822   7.963  21.420  0.00  0.00    +0.000 A 
ATOM     19  C   UNL     1       1.642   8.111  20.127  0.00  0.00    +0.000 A 
ENDBRANCH   3  10
BRANCH   1  20
ATOM     20  C   UNL     1       3.940   2.622  19.093  0.00  0.00    +0.000 C 
BRANCH  20  21
ATOM     21  C   UNL     1       2.544   1.913  19.206  0.00  0.00    +0.000 C 
BRANCH  21  23
ATOM     22  C   UNL     1       1.988   2.522  21.528  0.00  0.00    +0.000 C 
ATOM     23  N   UNL     1       1.510   2.271  20.178  0.00  0.00    +0.000 NA
ATOM     24  C   UNL     1       0.558   3.269  19.730  0.00  0.00    +0.000 C 
ENDBRANCH  21  23
ENDBRANCH  20  21
ENDBRANCH   1  20
TORSDOF 4
ENDMDL
MODEL 8
REMARK VINA RESULT:      -7.6      2.168      7.151
REMARK  Name = 
REMARK  6 active torsions:
REMARK  status: ('A' for Active; 'I' for Inactive)
REMARK    1  A    between atoms: C_1  and  N_2
REMARK    2  A    between atoms: N_2  and  C_3
REMARK    3  A    between atoms: N_2  and  C_4
REMARK    4  A    between atoms: C_4  and  C_5
REMARK    5  A    between atoms: C_5  and  C_6
REMARK    6  A    between atoms: N_8  and  C_9
REMARK                            x       y       z     vdW  Elec       q    Type
REMARK                         _______ _______ _______ _____ _____    ______ ____
ROOT
ATOM      1  C   UNL     1       3.892   7.002  17.841  0.00  0.00    +0.000 A 
ATOM      2  C   UNL     1       2.821   7.920  17.618  0.00  0.00    +0.000 A 
ATOM      3  N   UNL     1       1.828   7.753  18.608  0.00  0.00    +0.000 N 
ATOM      4  C   UNL     1       2.211   6.479  19.268  0.00  0.00    +0.000 A 
ATOM      5  C   UNL     1       1.712   5.725  20.387  0.00  0.00    +0.000 A 
ATOM      6  C   UNL     1       2.400   4.575  20.854  0.00  0.00    +0.000 A 
ATOM      7  C   UNL     1       3.501   4.072  20.196  0.00  0.00    +0.000 A 
ATOM      8  C   UNL     1       3.975   4.776  19.098  0.00  0.00    +0.000 A 
ATOM      9  C   UNL     1       3.408   6.013  18.689  0.00  0.00    +0.000 A 
ENDROOT
BRANCH   3  10
ATOM     10  C   UNL     1       1.117   8.919  19.292  0.00  0.00    +0.000 A 
ATOM     11  C   UNL     1       0.950   9.849  18.279  0.00  0.00    +0.000 A 
ATOM     12  C   UNL     1      -0.173  10.584  18.361  0.00  0.00    +0.000 A 
ATOM     13  C   UNL     1      -0.003  11.393  19.429  0.00  0.00    +0.000 A 
ATOM     14  C   UNL     1       0.106  10.774  20.653  0.00  0.00    +0.000 A 
ATOM     15  C   UNL     1      -0.247  11.627  21.689  0.00  0.00    +0.000 A 
ATOM     16  C   UNL     1      -0.680  11.178  22.925  0.00  0.00    +0.000 A 
ATOM     17  C   UNL     1      -0.721   9.808  23.070  0.00  0.00    +0.000 A 
ATOM     18  C   UNL     1      -0.166   8.916  22.037  0.00  0.00    +0.000 A 
ATOM     19  C   UNL     1       0.396   9.324  20.665  0.00  0.00    +0.000 A 
ENDBRANCH   3  10
BRANCH   1  20
ATOM     20  C   UNL     1       5.270   6.907  17.231  0.00  0.00    +0.000 C 
BRANCH  20  21
ATOM     21  C   UNL     1       5.534   6.091  15.916  0.00  0.00    +0.000 C 
BRANCH  21  23
ATOM     22  C   UNL     1       7.040   4.678  14.573  0.00  0.00    +0.000 C 
ATOM     23  N   UNL     1       6.362   4.886  15.842  0.00  0.00    +0.000 NA
ATOM     24  C   UNL     1       7.231   4.660  16.981  0.00  0.00    +0.000 C 
ENDBRANCH  21  23
ENDBRANCH  20  21
ENDBRANCH   1  20
TORSDOF 4
ENDMDL
MODEL 9
REMARK VINA RESULT:      -7.6      1.204      2.570
REMARK  Name = 
REMARK  6 active torsions:
REMARK  status: ('A' for Active; 'I' for Inactive)
REMARK    1  A    between atoms: C_1  and  N_2
REMARK    2  A    between atoms: N_2  and  C_3
REMARK    3  A    between atoms: N_2  and  C_4
REMARK    4  A    between atoms: C_4  and  C_5
REMARK    5  A    between atoms: C_5  and  C_6
REMARK    6  A    between atoms: N_8  and  C_9
REMARK                            x       y       z     vdW  Elec       q    Type
REMARK                         _______ _______ _______ _____ _____    ______ ____
ROOT
ATOM      1  C   UNL     1       0.402   9.858  18.335  0.00  0.00    +0.000 A 
ATOM      2  C   UNL     1       1.576   9.319  17.726  0.00  0.00    +0.000 A 
ATOM      3  N   UNL     1       2.207   8.415  18.608  0.00  0.00    +0.000 N 
ATOM      4  C   UNL     1       1.522   8.663  19.903  0.00  0.00    +0.000 A 
ATOM      5  C   UNL     1       1.589   8.078  21.215  0.00  0.00    +0.000 A 
ATOM      6  C   UNL     1       0.684   8.474  22.234  0.00  0.00    +0.000 A 
ATOM      7  C   UNL     1      -0.215   9.501  22.047  0.00  0.00    +0.000 A 
ATOM      8  C   UNL     1      -0.269  10.093  20.793  0.00  0.00    +0.000 A 
ATOM      9  C   UNL     1       0.513   9.626  19.701  0.00  0.00    +0.000 A 
ENDROOT
BRANCH   3  10
ATOM     10  C   UNL     1       2.792   7.076  18.165  0.00  0.00    +0.000 A 
ATOM     11  C   UNL     1       1.903   6.140  18.669  0.00  0.00    +0.000 A 
ATOM     12  C   UNL     1       1.740   5.042  17.910  0.00  0.00    +0.000 A 
ATOM     13  C   UNL     1       2.905   4.364  17.993  0.00  0.00    +0.000 A 
ATOM     14  C   UNL     1       4.016   4.991  17.478  0.00  0.00    +0.000 A 
ATOM     15  C   UNL     1       5.000   4.078  17.128  0.00  0.00    +0.000 A 
ATOM     16  C   UNL     1       5.983   4.347  16.190  0.00  0.00    +0.000 A 
ATOM     17  C   UNL     1       5.932   5.606  15.632  0.00  0.00    +0.000 A 
ATOM     18  C   UNL     1       5.006   6.630  16.145  0.00  0.00    +0.000 A 
ATOM     19  C   UNL     1       3.928   6.445  17.227  0.00  0.00    +0.000 A 
ENDBRANCH   3  10
BRANCH   1  20
ATOM     20  C   UNL     1      -0.734  10.675  17.768  0.00  0.00    +0.000 C 
BRANCH  20  21
ATOM     21  C   UNL     1      -1.926  10.004  16.997  0.00  0.00    +0.000 C 
BRANCH  21  23
ATOM     22  C   UNL     1      -2.988  10.117  14.777  0.00  0.00    +0.000 C 
ATOM     23  N   UNL     1      -2.831  10.715  16.092  0.00  0.00    +0.000 NA
ATOM     24  C   UNL     1      -4.096  11.120  16.675  0.00  0.00    +0.000 C 
ENDBRANCH  21  23
ENDBRANCH  20  21
ENDBRANCH   1  20
TORSDOF 4
ENDMDL
