MODEL 1
REMARK VINA RESULT:      -8.7      0.000      0.000
REMARK  Name = 
REMARK  6 active torsions:
REMARK  status: ('A' for Active; 'I' for Inactive)
REMARK    1  A    between atoms: C_1  and  N_2
REMARK    2  A    between atoms: C_6  and  C_8
REMARK    3  A    between atoms: C_10  and  N_11
REMARK    4  A    between atoms: C_17  and  C_18
REMARK    5  A    between atoms: N_20  and  C_21
REMARK    6  A    between atoms: N_29  and  C_30
REMARK                            x       y       z     vdW  Elec       q    Type
REMARK                         _______ _______ _______ _____ _____    ______ ____
ROOT
ATOM      1  N   UNL     1       1.327   7.386  20.954  0.00  0.00    +0.000 N 
ATOM      2  C   UNL     1       1.988   6.459  20.112  0.00  0.00    +0.000 A 
ATOM      3  N   UNL     1       1.705   5.222  20.589  0.00  0.00    +0.000 NA
ATOM      4  C   UNL     1       2.477   4.177  20.254  0.00  0.00    +0.000 A 
ATOM      5  C   UNL     1       3.621   4.446  19.533  0.00  0.00    +0.000 A 
ATOM      6  C   UNL     1       4.963   4.003  19.581  0.00  0.00    +0.000 A 
ATOM      7  C   UNL     1       5.677   4.779  18.692  0.00  0.00    +0.000 A 
ATOM      8  N   UNL     1       4.700   5.405  17.883  0.00  0.00    +0.000 N 
ATOM      9  C   UNL     1       3.608   5.600  18.752  0.00  0.00    +0.000 A 
ATOM     10  N   UNL     1       2.826   6.694  19.046  0.00  0.00    +0.000 NA
ATOM     11  H   UNL     1       0.938   6.775  21.670  0.00  0.00    +0.000 HD
ENDROOT
BRANCH   1  14
ATOM     12  C   UNL     1       0.000  10.684  20.407  0.00  0.00    +0.000 A 
ATOM     13  C   UNL     1       0.662   9.559  19.908  0.00  0.00    +0.000 A 
ATOM     14  C   UNL     1       0.883   8.656  20.958  0.00  0.00    +0.000 A 
ATOM     15  C   UNL     1       0.540   9.327  22.122  0.00  0.00    +0.000 A 
ATOM     16  N   UNL     1      -0.062  10.520  21.781  0.00  0.00    +0.000 N 
ATOM     17  C   UNL     1      -0.792  11.377  22.694  0.00  0.00    +0.000 C 
BRANCH  12  23
ATOM     18  C   UNL     1       3.042  16.185  19.088  0.00  0.00    +0.000 C 
ATOM     19  N   UNL     1       2.218  15.026  18.760  0.00  0.00    +0.000 NA
ATOM     20  C   UNL     1       0.781  15.304  18.983  0.00  0.00    +0.000 C 
ATOM     21  C   UNL     1      -0.127  14.073  18.747  0.00  0.00    +0.000 C 
ATOM     22  N   UNL     1       0.371  12.880  19.425  0.00  0.00    +0.000 N 
ATOM     23  C   UNL     1      -0.538  11.840  19.713  0.00  0.00    +0.000 C 
ATOM     24  O   UNL     1      -1.707  11.920  19.382  0.00  0.00    +0.000 OA
ATOM     25  C   UNL     1       1.800  12.631  19.198  0.00  0.00    +0.000 C 
ATOM     26  C   UNL     1       2.628  13.863  19.570  0.00  0.00    +0.000 C 
ENDBRANCH  12  23
ENDBRANCH   1  14
BRANCH   8  27
ATOM     27  C   UNL     1       4.766   5.028  16.453  0.00  0.00    +0.000 C 
ATOM     28  C   UNL     1       5.171   3.631  15.969  0.00  0.00    +0.000 C 
ATOM     29  C   UNL     1       5.563   3.858  14.498  0.00  0.00    +0.000 C 
ATOM     30  C   UNL     1       6.382   5.132  14.562  0.00  0.00    +0.000 C 
ATOM     31  C   UNL     1       5.592   6.003  15.536  0.00  0.00    +0.000 C 
ENDBRANCH   8  27
BRANCH   7  32
ATOM     32  C   UNL     1       7.074   4.756  18.435  0.00  0.00    +0.000 C 
ATOM     33  N   UNL     1       8.209   4.711  18.200  0.00  0.00    +0.000 NA
ENDBRANCH   7  32
TORSDOF 4
ENDMDL
MODEL 2
REMARK VINA RESULT:      -8.3      1.883      3.206
REMARK  Name = 
REMARK  6 active torsions:
REMARK  status: ('A' for Active; 'I' for Inactive)
REMARK    1  A    between atoms: C_1  and  N_2
REMARK    2  A    between atoms: C_6  and  C_8
REMARK    3  A    between atoms: C_10  and  N_11
REMARK    4  A    between atoms: C_17  and  C_18
REMARK    5  A    between atoms: N_20  and  C_21
REMARK    6  A    between atoms: N_29  and  C_30
REMARK                            x       y       z     vdW  Elec       q    Type
REMARK                         _______ _______ _______ _____ _____    ______ ____
ROOT
ATOM      1  N   UNL     1       1.256   7.786  20.849  0.00  0.00    +0.000 N 
ATOM      2  C   UNL     1       1.917   6.802  20.073  0.00  0.00    +0.000 A 
ATOM      3  N   UNL     1       1.594   5.598  20.606  0.00  0.00    +0.000 NA
ATOM      4  C   UNL     1       2.350   4.522  20.343  0.00  0.00    +0.000 A 
ATOM      5  C   UNL     1       3.516   4.728  19.639  0.00  0.00    +0.000 A 
ATOM      6  C   UNL     1       4.846   4.260  19.743  0.00  0.00    +0.000 A 
ATOM      7  C   UNL     1       5.600   4.973  18.834  0.00  0.00    +0.000 A 
ATOM      8  N   UNL     1       4.656   5.578  17.969  0.00  0.00    +0.000 N 
ATOM      9  C   UNL     1       3.549   5.840  18.800  0.00  0.00    +0.000 A 
ATOM     10  N   UNL     1       2.785   6.965  19.018  0.00  0.00    +0.000 NA
ATOM     11  H   UNL     1       0.836   7.221  21.585  0.00  0.00    +0.000 HD
ENDROOT
BRANCH   1  14
ATOM     12  C   UNL     1       0.462  11.282  21.141  0.00  0.00    +0.000 A 
ATOM     13  C   UNL     1       0.761  10.064  21.757  0.00  0.00    +0.000 A 
ATOM     14  C   UNL     1       0.841   9.064  20.777  0.00  0.00    +0.000 A 
ATOM     15  C   UNL     1       0.385   9.640  19.600  0.00  0.00    +0.000 A 
ATOM     16  N   UNL     1       0.230  10.995  19.806  0.00  0.00    +0.000 N 
ATOM     17  C   UNL     1       0.027  11.979  18.761  0.00  0.00    +0.000 C 
BRANCH  12  23
ATOM     18  C   UNL     1      -4.680  14.053  23.811  0.00  0.00    +0.000 C 
ATOM     19  N   UNL     1      -3.273  13.666  23.757  0.00  0.00    +0.000 NA
ATOM     20  C   UNL     1      -2.455  14.701  23.087  0.00  0.00    +0.000 C 
ATOM     21  C   UNL     1      -0.971  14.293  22.912  0.00  0.00    +0.000 C 
ATOM     22  N   UNL     1      -0.829  12.952  22.352  0.00  0.00    +0.000 N 
ATOM     23  C   UNL     1       0.377  12.619  21.699  0.00  0.00    +0.000 C 
ATOM     24  O   UNL     1       1.290  13.419  21.625  0.00  0.00    +0.000 OA
ATOM     25  C   UNL     1      -1.659  11.945  23.025  0.00  0.00    +0.000 C 
ATOM     26  C   UNL     1      -3.126  12.382  23.046  0.00  0.00    +0.000 C 
ENDBRANCH  12  23
ENDBRANCH   1  14
BRANCH   8  27
ATOM     27  C   UNL     1       4.748   5.126  16.563  0.00  0.00    +0.000 C 
ATOM     28  C   UNL     1       5.207   3.720  16.160  0.00  0.00    +0.000 C 
ATOM     29  C   UNL     1       5.603   3.881  14.680  0.00  0.00    +0.000 C 
ATOM     30  C   UNL     1       6.376   5.184  14.680  0.00  0.00    +0.000 C 
ATOM     31  C   UNL     1       5.548   6.078  15.600  0.00  0.00    +0.000 C 
ENDBRANCH   8  27
BRANCH   7  32
ATOM     32  C   UNL     1       7.001   4.907  18.614  0.00  0.00    +0.000 C 
ATOM     33  N   UNL     1       8.150   4.849  18.469  0.00  0.00    +0.000 NA
ENDBRANCH   7  32
TORSDOF 4
ENDMDL
MODEL 3
REMARK VINA RESULT:      -8.2      5.226      7.383
REMARK  Name = 
REMARK  6 active torsions:
REMARK  status: ('A' for Active; 'I' for Inactive)
REMARK    1  A    between atoms: C_1  and  N_2
REMARK    2  A    between atoms: C_6  and  C_8
REMARK    3  A    between atoms: C_10  and  N_11
REMARK    4  A    between atoms: C_17  and  C_18
REMARK    5  A    between atoms: N_20  and  C_21
REMARK    6  A    between atoms: N_29  and  C_30
REMARK                            x       y       z     vdW  Elec       q    Type
REMARK                         _______ _______ _______ _____ _____    ______ ____
ROOT
ATOM      1  N   UNL     1       7.932   7.735  17.455  0.00  0.00    +0.000 N 
ATOM      2  C   UNL     1       7.171   6.605  17.842  0.00  0.00    +0.000 A 
ATOM      3  N   UNL     1       7.736   5.527  17.244  0.00  0.00    +0.000 NA
ATOM      4  C   UNL     1       7.036   4.391  17.104  0.00  0.00    +0.000 A 
ATOM      5  C   UNL     1       5.706   4.423  17.463  0.00  0.00    +0.000 A 
ATOM      6  C   UNL     1       4.505   3.927  16.905  0.00  0.00    +0.000 A 
ATOM      7  C   UNL     1       3.467   4.439  17.656  0.00  0.00    +0.000 A 
ATOM      8  N   UNL     1       4.074   4.920  18.841  0.00  0.00    +0.000 N 
ATOM      9  C   UNL     1       5.341   5.369  18.420  0.00  0.00    +0.000 A 
ATOM     10  N   UNL     1       6.033   6.544  18.612  0.00  0.00    +0.000 NA
ATOM     11  H   UNL     1       8.589   7.326  16.793  0.00  0.00    +0.000 HD
ENDROOT
BRANCH   1  14
ATOM     12  C   UNL     1       9.161  10.901  18.640  0.00  0.00    +0.000 A 
ATOM     13  C   UNL     1       9.153   9.507  18.733  0.00  0.00    +0.000 A 
ATOM     14  C   UNL     1       8.195   8.996  17.844  0.00  0.00    +0.000 A 
ATOM     15  C   UNL     1       7.486  10.091  17.371  0.00  0.00    +0.000 A 
ATOM     16  N   UNL     1       8.119  11.241  17.793  0.00  0.00    +0.000 N 
ATOM     17  C   UNL     1       7.845  12.574  17.296  0.00  0.00    +0.000 C 
BRANCH  12  23
ATOM     18  C   UNL     1       7.926  14.399  23.883  0.00  0.00    +0.000 C 
ATOM     19  N   UNL     1       8.743  13.524  23.048  0.00  0.00    +0.000 NA
ATOM     20  C   UNL     1       9.609  14.303  22.134  0.00  0.00    +0.000 C 
ATOM     21  C   UNL     1      10.420  13.420  21.155  0.00  0.00    +0.000 C 
ATOM     22  N   UNL     1       9.589  12.419  20.494  0.00  0.00    +0.000 N 
ATOM     23  C   UNL     1      10.033  11.876  19.269  0.00  0.00    +0.000 C 
ATOM     24  O   UNL     1      11.096  12.213  18.784  0.00  0.00    +0.000 OA
ATOM     25  C   UNL     1       8.730  11.667  21.418  0.00  0.00    +0.000 C 
ATOM     26  C   UNL     1       7.881  12.620  22.262  0.00  0.00    +0.000 C 
ENDBRANCH  12  23
ENDBRANCH   1  14
BRANCH   8  27
ATOM     27  C   UNL     1       3.634   4.225  20.072  0.00  0.00    +0.000 C 
ATOM     28  C   UNL     1       3.489   2.702  20.171  0.00  0.00    +0.000 C 
ATOM     29  C   UNL     1       2.576   2.506  21.396  0.00  0.00    +0.000 C 
ATOM     30  C   UNL     1       1.511   3.564  21.192  0.00  0.00    +0.000 C 
ATOM     31  C   UNL     1       2.312   4.776  20.721  0.00  0.00    +0.000 C 
ENDBRANCH   8  27
BRANCH   7  32
ATOM     32  C   UNL     1       2.072   4.278  17.448  0.00  0.00    +0.000 C 
ATOM     33  N   UNL     1       0.929   4.134  17.311  0.00  0.00    +0.000 NA
ENDBRANCH   7  32
TORSDOF 4
ENDMDL
MODEL 4
REMARK VINA RESULT:      -8.1      1.214      1.490
REMARK  Name = 
REMARK  6 active torsions:
REMARK  status: ('A' for Active; 'I' for Inactive)
REMARK    1  A    between atoms: C_1  and  N_2
REMARK    2  A    between atoms: C_6  and  C_8
REMARK    3  A    between atoms: C_10  and  N_11
REMARK    4  A    between atoms: C_17  and  C_18
REMARK    5  A    between atoms: N_20  and  C_21
REMARK    6  A    between atoms: N_29  and  C_30
REMARK                            x       y       z     vdW  Elec       q    Type
REMARK                         _______ _______ _______ _____ _____    ______ ____
ROOT
ATOM      1  N   UNL     1       1.053   7.886  21.065  0.00  0.00    +0.000 N 
ATOM      2  C   UNL     1       1.726   6.931  20.265  0.00  0.00    +0.000 A 
ATOM      3  N   UNL     1       1.414   5.710  20.765  0.00  0.00    +0.000 NA
ATOM      4  C   UNL     1       2.181   4.648  20.476  0.00  0.00    +0.000 A 
ATOM      5  C   UNL     1       3.348   4.885  19.781  0.00  0.00    +0.000 A 
ATOM      6  C   UNL     1       4.682   4.427  19.877  0.00  0.00    +0.000 A 
ATOM      7  C   UNL     1       5.431   5.172  18.990  0.00  0.00    +0.000 A 
ATOM      8  N   UNL     1       4.484   5.790  18.139  0.00  0.00    +0.000 N 
ATOM      9  C   UNL     1       3.372   6.019  18.972  0.00  0.00    +0.000 A 
ATOM     10  N   UNL     1       2.595   7.130  19.218  0.00  0.00    +0.000 NA
ATOM     11  H   UNL     1       0.637   7.298  21.785  0.00  0.00    +0.000 HD
ENDROOT
BRANCH   1  14
ATOM     12  C   UNL     1       0.468  11.435  21.056  0.00  0.00    +0.000 A 
ATOM     13  C   UNL     1       1.190  10.340  21.536  0.00  0.00    +0.000 A 
ATOM     14  C   UNL     1       0.625   9.162  21.026  0.00  0.00    +0.000 A 
ATOM     15  C   UNL     1      -0.560   9.537  20.410  0.00  0.00    +0.000 A 
ATOM     16  N   UNL     1      -0.613  10.915  20.364  0.00  0.00    +0.000 N 
ATOM     17  C   UNL     1      -1.552  11.686  19.575  0.00  0.00    +0.000 C 
BRANCH  12  23
ATOM     18  C   UNL     1       4.624  15.032  17.734  0.00  0.00    +0.000 C 
ATOM     19  N   UNL     1       3.320  14.726  18.315  0.00  0.00    +0.000 NA
ATOM     20  C   UNL     1       3.203  15.261  19.690  0.00  0.00    +0.000 C 
ATOM     21  C   UNL     1       1.876  14.874  20.388  0.00  0.00    +0.000 C 
ATOM     22  N   UNL     1       1.581  13.449  20.266  0.00  0.00    +0.000 N 
ATOM     23  C   UNL     1       0.712  12.858  21.208  0.00  0.00    +0.000 C 
ATOM     24  O   UNL     1       0.198  13.521  22.088  0.00  0.00    +0.000 OA
ATOM     25  C   UNL     1       1.715  12.939  18.895  0.00  0.00    +0.000 C 
ATOM     26  C   UNL     1       3.100  13.267  18.331  0.00  0.00    +0.000 C 
ENDBRANCH  12  23
ENDBRANCH   1  14
BRANCH   8  27
ATOM     27  C   UNL     1       4.585   5.377  16.721  0.00  0.00    +0.000 C 
ATOM     28  C   UNL     1       4.941   3.952  16.284  0.00  0.00    +0.000 C 
ATOM     29  C   UNL     1       5.397   4.126  14.823  0.00  0.00    +0.000 C 
ATOM     30  C   UNL     1       6.272   5.362  14.891  0.00  0.00    +0.000 C 
ATOM     31  C   UNL     1       5.490   6.291  15.816  0.00  0.00    +0.000 C 
ENDBRANCH   8  27
BRANCH   7  32
ATOM     32  C   UNL     1       6.833   5.126  18.773  0.00  0.00    +0.000 C 
ATOM     33  N   UNL     1       7.983   5.112  18.622  0.00  0.00    +0.000 NA
ENDBRANCH   7  32
TORSDOF 4
ENDMDL
MODEL 5
REMARK VINA RESULT:      -8.1      2.139      3.012
REMARK  Name = 
REMARK  6 active torsions:
REMARK  status: ('A' for Active; 'I' for Inactive)
REMARK    1  A    between atoms: C_1  and  N_2
REMARK    2  A    between atoms: C_6  and  C_8
REMARK    3  A    between atoms: C_10  and  N_11
REMARK    4  A    between atoms: C_17  and  C_18
REMARK    5  A    between atoms: N_20  and  C_21
REMARK    6  A    between atoms: N_29  and  C_30
REMARK                            x       y       z     vdW  Elec       q    Type
REMARK                         _______ _______ _______ _____ _____    ______ ____
ROOT
ATOM      1  N   UNL     1       1.191   8.247  20.837  0.00  0.00    +0.000 N 
ATOM      2  C   UNL     1       1.824   7.210  20.109  0.00  0.00    +0.000 A 
ATOM      3  N   UNL     1       1.476   6.042  20.704  0.00  0.00    +0.000 NA
ATOM      4  C   UNL     1       2.205   4.936  20.493  0.00  0.00    +0.000 A 
ATOM      5  C   UNL     1       3.372   5.079  19.774  0.00  0.00    +0.000 A 
ATOM      6  C   UNL     1       4.691   4.585  19.896  0.00  0.00    +0.000 A 
ATOM      7  C   UNL     1       5.456   5.234  18.949  0.00  0.00    +0.000 A 
ATOM      8  N   UNL     1       4.522   5.816  18.059  0.00  0.00    +0.000 N 
ATOM      9  C   UNL     1       3.426   6.146  18.880  0.00  0.00    +0.000 A 
ATOM     10  N   UNL     1       2.689   7.298  19.044  0.00  0.00    +0.000 NA
ATOM     11  H   UNL     1       0.762   7.730  21.603  0.00  0.00    +0.000 HD
ENDROOT
BRANCH   1  14
ATOM     12  C   UNL     1       0.286  11.722  21.045  0.00  0.00    +0.000 A 
ATOM     13  C   UNL     1       0.374  10.467  21.652  0.00  0.00    +0.000 A 
ATOM     14  C   UNL     1       0.805   9.529  20.703  0.00  0.00    +0.000 A 
ATOM     15  C   UNL     1       0.776  10.179  19.478  0.00  0.00    +0.000 A 
ATOM     16  N   UNL     1       0.538  11.520  19.698  0.00  0.00    +0.000 N 
ATOM     17  C   UNL     1       0.693  12.567  18.708  0.00  0.00    +0.000 C 
BRANCH  12  23
ATOM     18  C   UNL     1      -5.195  15.031  20.539  0.00  0.00    +0.000 C 
ATOM     19  N   UNL     1      -4.069  14.453  21.267  0.00  0.00    +0.000 NA
ATOM     20  C   UNL     1      -2.934  15.399  21.347  0.00  0.00    +0.000 C 
ATOM     21  C   UNL     1      -1.677  14.796  22.020  0.00  0.00    +0.000 C 
ATOM     22  N   UNL     1      -1.335  13.483  21.479  0.00  0.00    +0.000 N 
ATOM     23  C   UNL     1      -0.009  13.022  21.618  0.00  0.00    +0.000 C 
ATOM     24  O   UNL     1       0.828  13.688  22.198  0.00  0.00    +0.000 OA
ATOM     25  C   UNL     1      -2.480  12.566  21.399  0.00  0.00    +0.000 C 
ATOM     26  C   UNL     1      -3.629  13.205  20.616  0.00  0.00    +0.000 C 
ENDBRANCH  12  23
ENDBRANCH   1  14
BRANCH   8  27
ATOM     27  C   UNL     1       4.596   5.291  16.677  0.00  0.00    +0.000 C 
ATOM     28  C   UNL     1       5.008   3.853  16.344  0.00  0.00    +0.000 C 
ATOM     29  C   UNL     1       5.405   3.926  14.858  0.00  0.00    +0.000 C 
ATOM     30  C   UNL     1       6.220   5.202  14.792  0.00  0.00    +0.000 C 
ATOM     31  C   UNL     1       5.423   6.168  15.667  0.00  0.00    +0.000 C 
ENDBRANCH   8  27
BRANCH   7  32
ATOM     32  C   UNL     1       6.854   5.124  18.726  0.00  0.00    +0.000 C 
ATOM     33  N   UNL     1       7.993   4.998  18.543  0.00  0.00    +0.000 NA
ENDBRANCH   7  32
TORSDOF 4
ENDMDL
MODEL 6
REMARK VINA RESULT:      -8.0      1.877      2.738
REMARK  Name = 
REMARK  6 active torsions:
REMARK  status: ('A' for Active; 'I' for Inactive)
REMARK    1  A    between atoms: C_1  and  N_2
REMARK    2  A    between atoms: C_6  and  C_8
REMARK    3  A    between atoms: C_10  and  N_11
REMARK    4  A    between atoms: C_17  and  C_18
REMARK    5  A    between atoms: N_20  and  C_21
REMARK    6  A    between atoms: N_29  and  C_30
REMARK                            x       y       z     vdW  Elec       q    Type
REMARK                         _______ _______ _______ _____ _____    ______ ____
ROOT
ATOM      1  N   UNL     1       1.620   6.935  21.030  0.00  0.00    +0.000 N 
ATOM      2  C   UNL     1       2.259   6.045  20.132  0.00  0.00    +0.000 A 
ATOM      3  N   UNL     1       2.031   4.791  20.593  0.00  0.00    +0.000 NA
ATOM      4  C   UNL     1       2.809   3.774  20.192  0.00  0.00    +0.000 A 
ATOM      5  C   UNL     1       3.907   4.088  19.421  0.00  0.00    +0.000 A 
ATOM      6  C   UNL     1       5.259   3.678  19.389  0.00  0.00    +0.000 A 
ATOM      7  C   UNL     1       5.909   4.492  18.485  0.00  0.00    +0.000 A 
ATOM      8  N   UNL     1       4.876   5.113  17.742  0.00  0.00    +0.000 N 
ATOM      9  C   UNL     1       3.827   5.259  18.671  0.00  0.00    +0.000 A 
ATOM     10  N   UNL     1       3.035   6.327  19.032  0.00  0.00    +0.000 NA
ATOM     11  H   UNL     1       1.284   6.298  21.749  0.00  0.00    +0.000 HD
ENDROOT
BRANCH   1  14
ATOM     12  C   UNL     1       0.283  10.248  20.610  0.00  0.00    +0.000 A 
ATOM     13  C   UNL     1       1.026   9.180  20.099  0.00  0.00    +0.000 A 
ATOM     14  C   UNL     1       1.147   8.194  21.088  0.00  0.00    +0.000 A 
ATOM     15  C   UNL     1       0.657   8.757  22.257  0.00  0.00    +0.000 A 
ATOM     16  N   UNL     1       0.068   9.966  21.949  0.00  0.00    +0.000 N 
ATOM     17  C   UNL     1      -0.782  10.730  22.839  0.00  0.00    +0.000 C 
BRANCH  12  23
ATOM     18  C   UNL     1      -3.107  10.610  15.167  0.00  0.00    +0.000 C 
ATOM     19  N   UNL     1      -2.821  10.929  16.563  0.00  0.00    +0.000 NA
ATOM     20  C   UNL     1      -1.953  12.122  16.677  0.00  0.00    +0.000 C 
ATOM     21  C   UNL     1      -1.536  12.442  18.133  0.00  0.00    +0.000 C 
ATOM     22  N   UNL     1      -1.041  11.263  18.839  0.00  0.00    +0.000 N 
ATOM     23  C   UNL     1      -0.201  11.450  19.957  0.00  0.00    +0.000 C 
ATOM     24  O   UNL     1       0.086  12.567  20.344  0.00  0.00    +0.000 OA
ATOM     25  C   UNL     1      -1.912  10.089  18.701  0.00  0.00    +0.000 C 
ATOM     26  C   UNL     1      -2.173   9.781  17.225  0.00  0.00    +0.000 C 
ENDBRANCH  12  23
ENDBRANCH   1  14
BRANCH   8  27
ATOM     27  C   UNL     1       4.877   4.772  16.302  0.00  0.00    +0.000 C 
ATOM     28  C   UNL     1       5.411   3.444  15.753  0.00  0.00    +0.000 C 
ATOM     29  C   UNL     1       5.657   3.743  14.262  0.00  0.00    +0.000 C 
ATOM     30  C   UNL     1       6.318   5.106  14.299  0.00  0.00    +0.000 C 
ATOM     31  C   UNL     1       5.507   5.856  15.353  0.00  0.00    +0.000 C 
ENDBRANCH   8  27
BRANCH   7  32
ATOM     32  C   UNL     1       7.290   4.510  18.156  0.00  0.00    +0.000 C 
ATOM     33  N   UNL     1       8.420   4.489  17.895  0.00  0.00    +0.000 NA
ENDBRANCH   7  32
TORSDOF 4
ENDMDL
MODEL 7
REMARK VINA RESULT:      -7.9      1.877      3.342
REMARK  Name = 
REMARK  6 active torsions:
REMARK  status: ('A' for Active; 'I' for Inactive)
REMARK    1  A    between atoms: C_1  and  N_2
REMARK    2  A    between atoms: C_6  and  C_8
REMARK    3  A    between atoms: C_10  and  N_11
REMARK    4  A    between atoms: C_17  and  C_18
REMARK    5  A    between atoms: N_20  and  C_21
REMARK    6  A    between atoms: N_29  and  C_30
REMARK                            x       y       z     vdW  Elec       q    Type
REMARK                         _______ _______ _______ _____ _____    ______ ____
ROOT
ATOM      1  N   UNL     1       1.188   8.152  20.683  0.00  0.00    +0.000 N 
ATOM      2  C   UNL     1       1.851   7.109  19.991  0.00  0.00    +0.000 A 
ATOM      3  N   UNL     1       1.528   5.952  20.621  0.00  0.00    +0.000 NA
ATOM      4  C   UNL     1       2.285   4.858  20.450  0.00  0.00    +0.000 A 
ATOM      5  C   UNL     1       3.453   5.007  19.734  0.00  0.00    +0.000 A 
ATOM      6  C   UNL     1       4.783   4.550  19.880  0.00  0.00    +0.000 A 
ATOM      7  C   UNL     1       5.539   5.187  18.918  0.00  0.00    +0.000 A 
ATOM      8  N   UNL     1       4.597   5.717  18.004  0.00  0.00    +0.000 N 
ATOM      9  C   UNL     1       3.487   6.046  18.807  0.00  0.00    +0.000 A 
ATOM     10  N   UNL     1       2.722   7.184  18.929  0.00  0.00    +0.000 NA
ATOM     11  H   UNL     1       0.766   7.650  21.462  0.00  0.00    +0.000 HD
ENDROOT
BRANCH   1  14
ATOM     12  C   UNL     1      -0.455  11.333  20.331  0.00  0.00    +0.000 A 
ATOM     13  C   UNL     1      -0.496   9.941  20.210  0.00  0.00    +0.000 A 
ATOM     14  C   UNL     1       0.772   9.420  20.505  0.00  0.00    +0.000 A 
ATOM     15  C   UNL     1       1.625  10.509  20.599  0.00  0.00    +0.000 A 
ATOM     16  N   UNL     1       0.869  11.663  20.569  0.00  0.00    +0.000 N 
ATOM     17  C   UNL     1       1.355  12.987  20.903  0.00  0.00    +0.000 C 
BRANCH  12  23
ATOM     18  C   UNL     1      -5.025  12.543  24.678  0.00  0.00    +0.000 C 
ATOM     19  N   UNL     1      -3.971  12.914  23.739  0.00  0.00    +0.000 NA
ATOM     20  C   UNL     1      -4.514  13.148  22.382  0.00  0.00    +0.000 C 
ATOM     21  C   UNL     1      -3.422  13.445  21.326  0.00  0.00    +0.000 C 
ATOM     22  N   UNL     1      -2.323  12.485  21.381  0.00  0.00    +0.000 N 
ATOM     23  C   UNL     1      -1.520  12.314  20.233  0.00  0.00    +0.000 C 
ATOM     24  O   UNL     1      -1.718  12.968  19.227  0.00  0.00    +0.000 OA
ATOM     25  C   UNL     1      -1.809  12.261  22.738  0.00  0.00    +0.000 C 
ATOM     26  C   UNL     1      -2.942  11.859  23.685  0.00  0.00    +0.000 C 
ENDBRANCH  12  23
ENDBRANCH   1  14
BRANCH   8  27
ATOM     27  C   UNL     1       4.693   5.151  16.639  0.00  0.00    +0.000 C 
ATOM     28  C   UNL     1       5.248   3.753  16.346  0.00  0.00    +0.000 C 
ATOM     29  C   UNL     1       5.600   3.811  14.848  0.00  0.00    +0.000 C 
ATOM     30  C   UNL     1       6.272   5.163  14.714  0.00  0.00    +0.000 C 
ATOM     31  C   UNL     1       5.398   6.071  15.576  0.00  0.00    +0.000 C 
ENDBRANCH   8  27
BRANCH   7  32
ATOM     32  C   UNL     1       6.941   5.103  18.707  0.00  0.00    +0.000 C 
ATOM     33  N   UNL     1       8.085   5.003  18.551  0.00  0.00    +0.000 NA
ENDBRANCH   7  32
TORSDOF 4
ENDMDL
MODEL 8
REMARK VINA RESULT:      -7.8      5.399      7.242
REMARK  Name = 
REMARK  6 active torsions:
REMARK  status: ('A' for Active; 'I' for Inactive)
REMARK    1  A    between atoms: C_1  and  N_2
REMARK    2  A    between atoms: C_6  and  C_8
REMARK    3  A    between atoms: C_10  and  N_11
REMARK    4  A    between atoms: C_17  and  C_18
REMARK    5  A    between atoms: N_20  and  C_21
REMARK    6  A    between atoms: N_29  and  C_30
REMARK                            x       y       z     vdW  Elec       q    Type
REMARK                         _______ _______ _______ _____ _____    ______ ____
ROOT
ATOM      1  N   UNL     1       8.982   8.742  18.947  0.00  0.00    +0.000 N 
ATOM      2  C   UNL     1       8.089   7.674  18.683  0.00  0.00    +0.000 A 
ATOM      3  N   UNL     1       8.576   6.586  19.329  0.00  0.00    +0.000 NA
ATOM      4  C   UNL     1       8.179   5.356  18.968  0.00  0.00    +0.000 A 
ATOM      5  C   UNL     1       7.383   5.255  17.848  0.00  0.00    +0.000 A 
ATOM      6  C   UNL     1       7.334   4.394  16.728  0.00  0.00    +0.000 A 
ATOM      7  C   UNL     1       6.404   4.917  15.854  0.00  0.00    +0.000 A 
ATOM      8  N   UNL     1       5.670   5.855  16.618  0.00  0.00    +0.000 N 
ATOM      9  C   UNL     1       6.614   6.372  17.527  0.00  0.00    +0.000 A 
ATOM     10  N   UNL     1       6.970   7.653  17.883  0.00  0.00    +0.000 NA
ATOM     11  H   UNL     1       9.719   8.272  19.470  0.00  0.00    +0.000 HD
ENDROOT
BRANCH   1  14
ATOM     12  C   UNL     1       8.689  12.303  18.532  0.00  0.00    +0.000 A 
ATOM     13  C   UNL     1       8.628  11.021  17.978  0.00  0.00    +0.000 A 
ATOM     14  C   UNL     1       9.028  10.087  18.945  0.00  0.00    +0.000 A 
ATOM     15  C   UNL     1       9.525  10.822  20.010  0.00  0.00    +0.000 A 
ATOM     16  N   UNL     1       9.249  12.156  19.790  0.00  0.00    +0.000 N 
ATOM     17  C   UNL     1       9.370  13.207  20.781  0.00  0.00    +0.000 C 
BRANCH  12  23
ATOM     18  C   UNL     1      12.333  17.538  17.784  0.00  0.00    +0.000 C 
ATOM     19  N   UNL     1      11.380  16.524  17.342  0.00  0.00    +0.000 NA
ATOM     20  C   UNL     1       9.986  16.936  17.619  0.00  0.00    +0.000 C 
ATOM     21  C   UNL     1       8.942  15.850  17.263  0.00  0.00    +0.000 C 
ATOM     22  N   UNL     1       9.303  14.539  17.795  0.00  0.00    +0.000 N 
ATOM     23  C   UNL     1       8.283  13.582  17.980  0.00  0.00    +0.000 C 
ATOM     24  O   UNL     1       7.130  13.831  17.680  0.00  0.00    +0.000 OA
ATOM     25  C   UNL     1      10.694  14.157  17.517  0.00  0.00    +0.000 C 
ATOM     26  C   UNL     1      11.659  15.238  18.010  0.00  0.00    +0.000 C 
ENDBRANCH  12  23
ENDBRANCH   1  14
BRANCH   8  27
ATOM     27  C   UNL     1       4.236   5.521  16.770  0.00  0.00    +0.000 C 
ATOM     28  C   UNL     1       3.290   6.281  17.708  0.00  0.00    +0.000 C 
ATOM     29  C   UNL     1       2.111   5.309  17.896  0.00  0.00    +0.000 C 
ATOM     30  C   UNL     1       2.804   3.976  18.098  0.00  0.00    +0.000 C 
ATOM     31  C   UNL     1       3.924   4.007  17.060  0.00  0.00    +0.000 C 
ENDBRANCH   8  27
BRANCH   7  32
ATOM     32  C   UNL     1       6.051   4.444  14.562  0.00  0.00    +0.000 C 
ATOM     33  N   UNL     1       5.758   4.024  13.522  0.00  0.00    +0.000 NA
ENDBRANCH   7  32
TORSDOF 4
ENDMDL
MODEL 9
REMARK VINA RESULT:      -7.7      1.655      2.000
REMARK  Name = 
REMARK  6 active torsions:
REMARK  status: ('A' for Active; 'I' for Inactive)
REMARK    1  A    between atoms: C_1  and  N_2
REMARK    2  A    between atoms: C_6  and  C_8
REMARK    3  A    between atoms: C_10  and  N_11
REMARK    4  A    between atoms: C_17  and  C_18
REMARK    5  A    between atoms: N_20  and  C_21
REMARK    6  A    between atoms: N_29  and  C_30
REMARK                            x       y       z     vdW  Elec       q    Type
REMARK                         _______ _______ _______ _____ _____    ______ ____
ROOT
ATOM      1  N   UNL     1       1.042   8.274  20.862  0.00  0.00    +0.000 N 
ATOM      2  C   UNL     1       1.706   7.253  20.138  0.00  0.00    +0.000 A 
ATOM      3  N   UNL     1       1.390   6.078  20.737  0.00  0.00    +0.000 NA
ATOM      4  C   UNL     1       2.150   4.992  20.532  0.00  0.00    +0.000 A 
ATOM      5  C   UNL     1       3.314   5.165  19.814  0.00  0.00    +0.000 A 
ATOM      6  C   UNL     1       4.646   4.710  19.940  0.00  0.00    +0.000 A 
ATOM      7  C   UNL     1       5.395   5.376  18.992  0.00  0.00    +0.000 A 
ATOM      8  N   UNL     1       4.446   5.928  18.098  0.00  0.00    +0.000 N 
ATOM      9  C   UNL     1       3.340   6.230  18.916  0.00  0.00    +0.000 A 
ATOM     10  N   UNL     1       2.571   7.362  19.074  0.00  0.00    +0.000 NA
ATOM     11  H   UNL     1       0.627   7.749  21.629  0.00  0.00    +0.000 HD
ENDROOT
BRANCH   1  14
ATOM     12  C   UNL     1       0.243  11.780  20.957  0.00  0.00    +0.000 A 
ATOM     13  C   UNL     1       0.562  10.603  21.640  0.00  0.00    +0.000 A 
ATOM     14  C   UNL     1       0.621   9.544  20.721  0.00  0.00    +0.000 A 
ATOM     15  C   UNL     1       0.134  10.046  19.523  0.00  0.00    +0.000 A 
ATOM     16  N   UNL     1      -0.020  11.411  19.648  0.00  0.00    +0.000 N 
ATOM     17  C   UNL     1      -0.252  12.328  18.550  0.00  0.00    +0.000 C 
BRANCH  12  23
ATOM     18  C   UNL     1       5.143  15.787  22.044  0.00  0.00    +0.000 C 
ATOM     19  N   UNL     1       3.841  15.419  21.496  0.00  0.00    +0.000 NA
ATOM     20  C   UNL     1       2.750  15.712  22.451  0.00  0.00    +0.000 C 
ATOM     21  C   UNL     1       1.359  15.245  21.958  0.00  0.00    +0.000 C 
ATOM     22  N   UNL     1       1.379  13.871  21.465  0.00  0.00    +0.000 N 
ATOM     23  C   UNL     1       0.167  13.149  21.434  0.00  0.00    +0.000 C 
ATOM     24  O   UNL     1      -0.878  13.664  21.785  0.00  0.00    +0.000 OA
ATOM     25  C   UNL     1       2.477  13.601  20.528  0.00  0.00    +0.000 C 
ATOM     26  C   UNL     1       3.822  13.986  21.147  0.00  0.00    +0.000 C 
ENDBRANCH  12  23
ENDBRANCH   1  14
BRANCH   8  27
ATOM     27  C   UNL     1       4.537   5.401  16.718  0.00  0.00    +0.000 C 
ATOM     28  C   UNL     1       4.915   3.950  16.395  0.00  0.00    +0.000 C 
ATOM     29  C   UNL     1       5.349   4.011  14.919  0.00  0.00    +0.000 C 
ATOM     30  C   UNL     1       6.202   5.263  14.872  0.00  0.00    +0.000 C 
ATOM     31  C   UNL     1       5.414   6.252  15.728  0.00  0.00    +0.000 C 
ENDBRANCH   8  27
BRANCH   7  32
ATOM     32  C   UNL     1       6.796   5.304  18.772  0.00  0.00    +0.000 C 
ATOM     33  N   UNL     1       7.942   5.221  18.618  0.00  0.00    +0.000 NA
ENDBRANCH   7  32
TORSDOF 4
ENDMDL
