MODEL 1
REMARK VINA RESULT:      -7.7      0.000      0.000
REMARK  Name = 
REMARK  6 active torsions:
REMARK  status: ('A' for Active; 'I' for Inactive)
REMARK    1  A    between atoms: C_1  and  C_2
REMARK    2  A    between atoms: C_9  and  C_10
REMARK    3  A    between atoms: C_13  and  C_14
REMARK    4  A    between atoms: C_14  and  O_15
REMARK    5  A    between atoms: O_15  and  C_16
REMARK    6  A    between atoms: C_19  and  C_20
REMARK                            x       y       z     vdW  Elec       q    Type
REMARK                         _______ _______ _______ _____ _____    ______ ____
ROOT
ATOM      1  C   UNL     1       5.282   4.346  18.486  0.00  0.00    +0.000 A 
ATOM      2  N   UNL     1       5.150   3.443  19.471  0.00  0.00    +0.000 NA
ATOM      3  O   UNL     1       3.907   3.748  20.031  0.00  0.00    +0.000 OA
ATOM      4  C   UNL     1       3.410   4.796  19.314  0.00  0.00    +0.000 A 
ATOM      5  N   UNL     1       4.208   5.195  18.351  0.00  0.00    +0.000 NA
ENDROOT
BRANCH   1  14
ATOM      6  C   UNL     1       5.960   3.718  14.788  0.00  0.00    +0.000 C 
ATOM      7  C   UNL     1       6.078   5.165  15.197  0.00  0.00    +0.000 C 
ATOM      8  O   UNL     1       5.979   6.045  14.341  0.00  0.00    +0.000 OA
ATOM      9  N   UNL     1       6.305   5.445  16.535  0.00  0.00    +0.000 N 
ATOM     10  C   UNL     1       6.278   6.838  16.981  0.00  0.00    +0.000 C 
ATOM     11  C   UNL     1       7.537   7.194  17.766  0.00  0.00    +0.000 C 
ATOM     12  C   UNL     1       7.837   6.184  18.870  0.00  0.00    +0.000 C 
ATOM     13  C   UNL     1       7.804   4.747  18.338  0.00  0.00    +0.000 C 
ATOM     14  C   UNL     1       6.495   4.430  17.597  0.00  0.00    +0.000 C 
ENDBRANCH   1  14
BRANCH   4  15
ATOM     15  C   UNL     1       2.105   5.351  19.736  0.00  0.00    +0.000 C 
BRANCH  15  16
ATOM     16  O   UNL     1       2.383   6.530  20.490  0.00  0.00    +0.000 OA
BRANCH  16  17
ATOM     17  C   UNL     1       1.867   7.688  19.977  0.00  0.00    +0.000 A 
ATOM     18  C   UNL     1       2.029   8.129  18.663  0.00  0.00    +0.000 A 
ATOM     19  C   UNL     1       1.447   9.329  18.252  0.00  0.00    +0.000 A 
ATOM     20  C   UNL     1       0.695  10.099  19.141  0.00  0.00    +0.000 A 
ATOM     21  C   UNL     1       0.083  11.398  18.708  0.00  0.00    +0.000 C 
ATOM     22  C   UNL     1       0.513   9.639  20.451  0.00  0.00    +0.000 A 
ATOM     23  C   UNL     1       1.091   8.438  20.860  0.00  0.00    +0.000 A 
ENDBRANCH  16  17
ENDBRANCH  15  16
ENDBRANCH   4  15
TORSDOF 4
ENDMDL
MODEL 2
REMARK VINA RESULT:      -7.5      0.414      1.084
REMARK  Name = 
REMARK  6 active torsions:
REMARK  status: ('A' for Active; 'I' for Inactive)
REMARK    1  A    between atoms: C_1  and  C_2
REMARK    2  A    between atoms: C_9  and  C_10
REMARK    3  A    between atoms: C_13  and  C_14
REMARK    4  A    between atoms: C_14  and  O_15
REMARK    5  A    between atoms: O_15  and  C_16
REMARK    6  A    between atoms: C_19  and  C_20
REMARK                            x       y       z     vdW  Elec       q    Type
REMARK                         _______ _______ _______ _____ _____    ______ ____
ROOT
ATOM      1  C   UNL     1       5.159   4.297  18.396  0.00  0.00    +0.000 A 
ATOM      2  N   UNL     1       5.212   3.506  19.480  0.00  0.00    +0.000 NA
ATOM      3  O   UNL     1       3.972   3.704  20.092  0.00  0.00    +0.000 OA
ATOM      4  C   UNL     1       3.292   4.585  19.305  0.00  0.00    +0.000 A 
ATOM      5  N   UNL     1       3.970   4.973  18.249  0.00  0.00    +0.000 NA
ENDROOT
BRANCH   1  14
ATOM      6  C   UNL     1       5.500   4.032  14.609  0.00  0.00    +0.000 C 
ATOM      7  C   UNL     1       5.704   5.426  15.147  0.00  0.00    +0.000 C 
ATOM      8  O   UNL     1       5.563   6.392  14.396  0.00  0.00    +0.000 OA
ATOM      9  N   UNL     1       6.051   5.562  16.482  0.00  0.00    +0.000 N 
ATOM     10  C   UNL     1       6.112   6.903  17.064  0.00  0.00    +0.000 C 
ATOM     11  C   UNL     1       7.444   7.144  17.768  0.00  0.00    +0.000 C 
ATOM     12  C   UNL     1       7.800   6.018  18.737  0.00  0.00    +0.000 C 
ATOM     13  C   UNL     1       7.672   4.645  18.069  0.00  0.00    +0.000 C 
ATOM     14  C   UNL     1       6.295   4.439  17.417  0.00  0.00    +0.000 C 
ENDBRANCH   1  14
BRANCH   4  15
ATOM     15  C   UNL     1       1.948   5.006  19.759  0.00  0.00    +0.000 C 
BRANCH  15  16
ATOM     16  O   UNL     1       2.143   6.025  20.738  0.00  0.00    +0.000 OA
BRANCH  16  17
ATOM     17  C   UNL     1       1.722   7.274  20.374  0.00  0.00    +0.000 A 
ATOM     18  C   UNL     1       0.997   8.148  21.186  0.00  0.00    +0.000 A 
ATOM     19  C   UNL     1       0.628   9.405  20.705  0.00  0.00    +0.000 A 
ATOM     20  C   UNL     1       0.980   9.807  19.415  0.00  0.00    +0.000 A 
ATOM     21  C   UNL     1       0.569  11.150  18.888  0.00  0.00    +0.000 C 
ATOM     22  C   UNL     1       1.730   8.938  18.614  0.00  0.00    +0.000 A 
ATOM     23  C   UNL     1       2.103   7.684  19.096  0.00  0.00    +0.000 A 
ENDBRANCH  16  17
ENDBRANCH  15  16
ENDBRANCH   4  15
TORSDOF 4
ENDMDL
MODEL 3
REMARK VINA RESULT:      -7.5      2.934      6.144
REMARK  Name = 
REMARK  6 active torsions:
REMARK  status: ('A' for Active; 'I' for Inactive)
REMARK    1  A    between atoms: C_1  and  C_2
REMARK    2  A    between atoms: C_9  and  C_10
REMARK    3  A    between atoms: C_13  and  C_14
REMARK    4  A    between atoms: C_14  and  O_15
REMARK    5  A    between atoms: O_15  and  C_16
REMARK    6  A    between atoms: C_19  and  C_20
REMARK                            x       y       z     vdW  Elec       q    Type
REMARK                         _______ _______ _______ _____ _____    ______ ____
ROOT
ATOM      1  C   UNL     1       4.850   5.263  18.439  0.00  0.00    +0.000 A 
ATOM      2  N   UNL     1       5.608   4.438  19.180  0.00  0.00    +0.000 NA
ATOM      3  O   UNL     1       6.872   5.035  19.145  0.00  0.00    +0.000 OA
ATOM      4  C   UNL     1       6.741   6.168  18.398  0.00  0.00    +0.000 A 
ATOM      5  N   UNL     1       5.521   6.360  17.950  0.00  0.00    +0.000 NA
ENDROOT
BRANCH   1  14
ATOM      6  C   UNL     1       2.731   2.198  17.636  0.00  0.00    +0.000 C 
ATOM      7  C   UNL     1       2.444   2.806  18.986  0.00  0.00    +0.000 C 
ATOM      8  O   UNL     1       1.905   2.121  19.856  0.00  0.00    +0.000 OA
ATOM      9  N   UNL     1       2.797   4.131  19.189  0.00  0.00    +0.000 N 
ATOM     10  C   UNL     1       2.664   4.700  20.530  0.00  0.00    +0.000 C 
ATOM     11  C   UNL     1       1.866   6.001  20.506  0.00  0.00    +0.000 C 
ATOM     12  C   UNL     1       2.384   6.979  19.453  0.00  0.00    +0.000 C 
ATOM     13  C   UNL     1       2.538   6.301  18.088  0.00  0.00    +0.000 C 
ATOM     14  C   UNL     1       3.389   5.022  18.164  0.00  0.00    +0.000 C 
ENDBRANCH   1  14
BRANCH   4  15
ATOM     15  C   UNL     1       7.959   6.973  18.164  0.00  0.00    +0.000 C 
BRANCH  15  16
ATOM     16  O   UNL     1       7.544   8.169  17.506  0.00  0.00    +0.000 OA
BRANCH  16  17
ATOM     17  C   UNL     1       8.146   9.316  17.942  0.00  0.00    +0.000 A 
ATOM     18  C   UNL     1       7.996  10.576  17.360  0.00  0.00    +0.000 A 
ATOM     19  C   UNL     1       8.658  11.679  17.901  0.00  0.00    +0.000 A 
ATOM     20  C   UNL     1       9.472  11.541  19.027  0.00  0.00    +0.000 A 
ATOM     21  C   UNL     1      10.200  12.721  19.600  0.00  0.00    +0.000 C 
ATOM     22  C   UNL     1       9.598  10.281  19.623  0.00  0.00    +0.000 A 
ATOM     23  C   UNL     1       8.933   9.180  19.086  0.00  0.00    +0.000 A 
ENDBRANCH  16  17
ENDBRANCH  15  16
ENDBRANCH   4  15
TORSDOF 4
ENDMDL
MODEL 4
REMARK VINA RESULT:      -7.4      2.128      3.529
REMARK  Name = 
REMARK  6 active torsions:
REMARK  status: ('A' for Active; 'I' for Inactive)
REMARK    1  A    between atoms: C_1  and  C_2
REMARK    2  A    between atoms: C_9  and  C_10
REMARK    3  A    between atoms: C_13  and  C_14
REMARK    4  A    between atoms: C_14  and  O_15
REMARK    5  A    between atoms: O_15  and  C_16
REMARK    6  A    between atoms: C_19  and  C_20
REMARK                            x       y       z     vdW  Elec       q    Type
REMARK                         _______ _______ _______ _____ _____    ______ ____
ROOT
ATOM      1  C   UNL     1       3.799   6.178  17.388  0.00  0.00    +0.000 A 
ATOM      2  N   UNL     1       4.445   7.320  17.103  0.00  0.00    +0.000 NA
ATOM      3  O   UNL     1       3.624   8.307  17.654  0.00  0.00    +0.000 OA
ATOM      4  C   UNL     1       2.574   7.656  18.229  0.00  0.00    +0.000 A 
ATOM      5  N   UNL     1       2.636   6.350  18.103  0.00  0.00    +0.000 NA
ENDROOT
BRANCH   1  14
ATOM      6  C   UNL     1       6.701   4.905  15.269  0.00  0.00    +0.000 C 
ATOM      7  C   UNL     1       6.817   4.569  16.735  0.00  0.00    +0.000 C 
ATOM      8  O   UNL     1       7.922   4.302  17.209  0.00  0.00    +0.000 OA
ATOM      9  N   UNL     1       5.658   4.568  17.494  0.00  0.00    +0.000 N 
ATOM     10  C   UNL     1       5.761   4.389  18.943  0.00  0.00    +0.000 C 
ATOM     11  C   UNL     1       4.844   3.272  19.432  0.00  0.00    +0.000 C 
ATOM     12  C   UNL     1       3.416   3.426  18.915  0.00  0.00    +0.000 C 
ATOM     13  C   UNL     1       3.391   3.652  17.400  0.00  0.00    +0.000 C 
ATOM     14  C   UNL     1       4.296   4.818  16.969  0.00  0.00    +0.000 C 
ENDBRANCH   1  14
BRANCH   4  15
ATOM     15  C   UNL     1       1.519   8.484  18.854  0.00  0.00    +0.000 C 
BRANCH  15  16
ATOM     16  O   UNL     1       1.639   8.309  20.265  0.00  0.00    +0.000 OA
BRANCH  16  17
ATOM     17  C   UNL     1       0.827   9.106  21.024  0.00  0.00    +0.000 A 
ATOM     18  C   UNL     1       0.601   8.954  22.393  0.00  0.00    +0.000 A 
ATOM     19  C   UNL     1      -0.246   9.838  23.064  0.00  0.00    +0.000 A 
ATOM     20  C   UNL     1      -0.872  10.883  22.381  0.00  0.00    +0.000 A 
ATOM     21  C   UNL     1      -1.797  11.822  23.095  0.00  0.00    +0.000 C 
ATOM     22  C   UNL     1      -0.621  11.047  21.014  0.00  0.00    +0.000 A 
ATOM     23  C   UNL     1       0.229  10.167  20.345  0.00  0.00    +0.000 A 
ENDBRANCH  16  17
ENDBRANCH  15  16
ENDBRANCH   4  15
TORSDOF 4
ENDMDL
MODEL 5
REMARK VINA RESULT:      -7.4      1.849      2.828
REMARK  Name = 
REMARK  6 active torsions:
REMARK  status: ('A' for Active; 'I' for Inactive)
REMARK    1  A    between atoms: C_1  and  C_2
REMARK    2  A    between atoms: C_9  and  C_10
REMARK    3  A    between atoms: C_13  and  C_14
REMARK    4  A    between atoms: C_14  and  O_15
REMARK    5  A    between atoms: O_15  and  C_16
REMARK    6  A    between atoms: C_19  and  C_20
REMARK                            x       y       z     vdW  Elec       q    Type
REMARK                         _______ _______ _______ _____ _____    ______ ____
ROOT
ATOM      1  C   UNL     1       4.231   6.250  17.605  0.00  0.00    +0.000 A 
ATOM      2  N   UNL     1       4.269   7.345  16.828  0.00  0.00    +0.000 NA
ATOM      3  O   UNL     1       3.221   8.130  17.316  0.00  0.00    +0.000 OA
ATOM      4  C   UNL     1       2.669   7.433  18.349  0.00  0.00    +0.000 A 
ATOM      5  N   UNL     1       3.255   6.279  18.574  0.00  0.00    +0.000 NA
ENDROOT
BRANCH   1  14
ATOM      6  C   UNL     1       5.581   4.271  14.640  0.00  0.00    +0.000 C 
ATOM      7  C   UNL     1       6.622   5.099  15.350  0.00  0.00    +0.000 C 
ATOM      8  O   UNL     1       7.658   5.406  14.759  0.00  0.00    +0.000 OA
ATOM      9  N   UNL     1       6.368   5.477  16.659  0.00  0.00    +0.000 N 
ATOM     10  C   UNL     1       7.291   6.399  17.321  0.00  0.00    +0.000 C 
ATOM     11  C   UNL     1       7.757   5.850  18.666  0.00  0.00    +0.000 C 
ATOM     12  C   UNL     1       6.591   5.389  19.539  0.00  0.00    +0.000 C 
ATOM     13  C   UNL     1       5.646   4.463  18.766  0.00  0.00    +0.000 C 
ATOM     14  C   UNL     1       5.173   5.085  17.442  0.00  0.00    +0.000 C 
ENDBRANCH   1  14
BRANCH   4  15
ATOM     15  C   UNL     1       1.494   8.030  19.021  0.00  0.00    +0.000 C 
BRANCH  15  16
ATOM     16  O   UNL     1       1.861   8.239  20.384  0.00  0.00    +0.000 OA
BRANCH  16  17
ATOM     17  C   UNL     1       1.005   9.023  21.107  0.00  0.00    +0.000 A 
ATOM     18  C   UNL     1       0.800   8.934  22.484  0.00  0.00    +0.000 A 
ATOM     19  C   UNL     1      -0.099   9.797  23.115  0.00  0.00    +0.000 A 
ATOM     20  C   UNL     1      -0.798  10.758  22.382  0.00  0.00    +0.000 A 
ATOM     21  C   UNL     1      -1.777  11.674  23.053  0.00  0.00    +0.000 C 
ATOM     22  C   UNL     1      -0.568  10.861  21.005  0.00  0.00    +0.000 A 
ATOM     23  C   UNL     1       0.332  10.002  20.376  0.00  0.00    +0.000 A 
ENDBRANCH  16  17
ENDBRANCH  15  16
ENDBRANCH   4  15
TORSDOF 4
ENDMDL
MODEL 6
REMARK VINA RESULT:      -7.4      1.732      2.292
REMARK  Name = 
REMARK  6 active torsions:
REMARK  status: ('A' for Active; 'I' for Inactive)
REMARK    1  A    between atoms: C_1  and  C_2
REMARK    2  A    between atoms: C_9  and  C_10
REMARK    3  A    between atoms: C_13  and  C_14
REMARK    4  A    between atoms: C_14  and  O_15
REMARK    5  A    between atoms: O_15  and  C_16
REMARK    6  A    between atoms: C_19  and  C_20
REMARK                            x       y       z     vdW  Elec       q    Type
REMARK                         _______ _______ _______ _____ _____    ______ ____
ROOT
ATOM      1  C   UNL     1       4.206   5.623  17.617  0.00  0.00    +0.000 A 
ATOM      2  N   UNL     1       2.990   5.143  17.927  0.00  0.00    +0.000 NA
ATOM      3  O   UNL     1       2.198   6.291  18.016  0.00  0.00    +0.000 OA
ATOM      4  C   UNL     1       3.016   7.344  17.735  0.00  0.00    +0.000 A 
ATOM      5  N   UNL     1       4.253   6.991  17.474  0.00  0.00    +0.000 NA
ENDROOT
BRANCH   1  14
ATOM      6  C   UNL     1       5.913   3.973  14.635  0.00  0.00    +0.000 C 
ATOM      7  C   UNL     1       6.721   5.075  15.272  0.00  0.00    +0.000 C 
ATOM      8  O   UNL     1       7.609   5.628  14.622  0.00  0.00    +0.000 OA
ATOM      9  N   UNL     1       6.430   5.418  16.583  0.00  0.00    +0.000 N 
ATOM     10  C   UNL     1       7.097   6.578  17.175  0.00  0.00    +0.000 C 
ATOM     11  C   UNL     1       7.750   6.223  18.508  0.00  0.00    +0.000 C 
ATOM     12  C   UNL     1       6.790   5.498  19.449  0.00  0.00    +0.000 C 
ATOM     13  C   UNL     1       6.098   4.326  18.747  0.00  0.00    +0.000 C 
ATOM     14  C   UNL     1       5.420   4.749  17.434  0.00  0.00    +0.000 C 
ENDBRANCH   1  14
BRANCH   4  15
ATOM     15  C   UNL     1       2.427   8.700  17.806  0.00  0.00    +0.000 C 
BRANCH  15  16
ATOM     16  O   UNL     1       1.798   8.810  19.082  0.00  0.00    +0.000 OA
BRANCH  16  17
ATOM     17  C   UNL     1       0.714   9.642  19.129  0.00  0.00    +0.000 A 
ATOM     18  C   UNL     1      -0.146   9.905  18.062  0.00  0.00    +0.000 A 
ATOM     19  C   UNL     1      -1.229  10.770  18.234  0.00  0.00    +0.000 A 
ATOM     20  C   UNL     1      -1.469  11.377  19.469  0.00  0.00    +0.000 A 
ATOM     21  C   UNL     1      -2.620  12.320  19.652  0.00  0.00    +0.000 C 
ATOM     22  C   UNL     1      -0.619  11.087  20.543  0.00  0.00    +0.000 A 
ATOM     23  C   UNL     1       0.459  10.221  20.373  0.00  0.00    +0.000 A 
ENDBRANCH  16  17
ENDBRANCH  15  16
ENDBRANCH   4  15
TORSDOF 4
ENDMDL
MODEL 7
REMARK VINA RESULT:      -7.4      2.638      4.827
REMARK  Name = 
REMARK  6 active torsions:
REMARK  status: ('A' for Active; 'I' for Inactive)
REMARK    1  A    between atoms: C_1  and  C_2
REMARK    2  A    between atoms: C_9  and  C_10
REMARK    3  A    between atoms: C_13  and  C_14
REMARK    4  A    between atoms: C_14  and  O_15
REMARK    5  A    between atoms: O_15  and  C_16
REMARK    6  A    between atoms: C_19  and  C_20
REMARK                            x       y       z     vdW  Elec       q    Type
REMARK                         _______ _______ _______ _____ _____    ______ ____
ROOT
ATOM      1  C   UNL     1       2.742   6.633  19.255  0.00  0.00    +0.000 A 
ATOM      2  N   UNL     1       2.996   7.273  18.102  0.00  0.00    +0.000 NA
ATOM      3  O   UNL     1       2.283   8.468  18.227  0.00  0.00    +0.000 OA
ATOM      4  C   UNL     1       1.685   8.432  19.451  0.00  0.00    +0.000 A 
ATOM      5  N   UNL     1       1.940   7.335  20.125  0.00  0.00    +0.000 NA
ENDROOT
BRANCH   1  14
ATOM      6  C   UNL     1       1.422   3.584  21.124  0.00  0.00    +0.000 C 
ATOM      7  C   UNL     1       1.590   3.370  19.640  0.00  0.00    +0.000 C 
ATOM      8  O   UNL     1       0.964   2.466  19.084  0.00  0.00    +0.000 OA
ATOM      9  N   UNL     1       2.460   4.206  18.958  0.00  0.00    +0.000 N 
ATOM     10  C   UNL     1       2.531   4.115  17.500  0.00  0.00    +0.000 C 
ATOM     11  C   UNL     1       3.971   3.945  17.023  0.00  0.00    +0.000 C 
ATOM     12  C   UNL     1       4.911   4.980  17.637  0.00  0.00    +0.000 C 
ATOM     13  C   UNL     1       4.748   5.049  19.159  0.00  0.00    +0.000 C 
ATOM     14  C   UNL     1       3.286   5.266  19.581  0.00  0.00    +0.000 C 
ENDBRANCH   1  14
BRANCH   4  15
ATOM     15  C   UNL     1       0.820   9.575  19.820  0.00  0.00    +0.000 C 
BRANCH  15  16
ATOM     16  O   UNL     1       0.575  10.311  18.622  0.00  0.00    +0.000 OA
BRANCH  16  17
ATOM     17  C   UNL     1      -0.742  10.500  18.311  0.00  0.00    +0.000 A 
ATOM     18  C   UNL     1      -1.450   9.788  17.340  0.00  0.00    +0.000 A 
ATOM     19  C   UNL     1      -2.800  10.067  17.116  0.00  0.00    +0.000 A 
ATOM     20  C   UNL     1      -3.459  11.050  17.857  0.00  0.00    +0.000 A 
ATOM     21  C   UNL     1      -4.903  11.364  17.606  0.00  0.00    +0.000 C 
ATOM     22  C   UNL     1      -2.751  11.741  18.847  0.00  0.00    +0.000 A 
ATOM     23  C   UNL     1      -1.404  11.460  19.074  0.00  0.00    +0.000 A 
ENDBRANCH  16  17
ENDBRANCH  15  16
ENDBRANCH   4  15
TORSDOF 4
ENDMDL
MODEL 8
REMARK VINA RESULT:      -7.3      2.622      4.859
REMARK  Name = 
REMARK  6 active torsions:
REMARK  status: ('A' for Active; 'I' for Inactive)
REMARK    1  A    between atoms: C_1  and  C_2
REMARK    2  A    between atoms: C_9  and  C_10
REMARK    3  A    between atoms: C_13  and  C_14
REMARK    4  A    between atoms: C_14  and  O_15
REMARK    5  A    between atoms: O_15  and  C_16
REMARK    6  A    between atoms: C_19  and  C_20
REMARK                            x       y       z     vdW  Elec       q    Type
REMARK                         _______ _______ _______ _____ _____    ______ ____
ROOT
ATOM      1  C   UNL     1       3.068   6.646  18.928  0.00  0.00    +0.000 A 
ATOM      2  N   UNL     1       3.424   7.229  17.771  0.00  0.00    +0.000 NA
ATOM      3  O   UNL     1       2.668   8.403  17.749  0.00  0.00    +0.000 OA
ATOM      4  C   UNL     1       1.944   8.415  18.904  0.00  0.00    +0.000 A 
ATOM      5  N   UNL     1       2.158   7.367  19.666  0.00  0.00    +0.000 NA
ENDROOT
BRANCH   1  14
ATOM      6  C   UNL     1       1.823   3.878  21.233  0.00  0.00    +0.000 C 
ATOM      7  C   UNL     1       1.901   3.479  19.781  0.00  0.00    +0.000 C 
ATOM      8  O   UNL     1       1.232   2.525  19.378  0.00  0.00    +0.000 OA
ATOM      9  N   UNL     1       2.739   4.207  18.952  0.00  0.00    +0.000 N 
ATOM     10  C   UNL     1       2.723   3.935  17.515  0.00  0.00    +0.000 C 
ATOM     11  C   UNL     1       4.130   3.680  16.982  0.00  0.00    +0.000 C 
ATOM     12  C   UNL     1       5.117   4.764  17.408  0.00  0.00    +0.000 C 
ATOM     13  C   UNL     1       5.045   5.024  18.916  0.00  0.00    +0.000 C 
ATOM     14  C   UNL     1       3.613   5.320  19.390  0.00  0.00    +0.000 C 
ENDBRANCH   1  14
BRANCH   4  15
ATOM     15  C   UNL     1       1.013   9.546  19.111  0.00  0.00    +0.000 C 
BRANCH  15  16
ATOM     16  O   UNL     1       0.289   9.714  17.893  0.00  0.00    +0.000 OA
BRANCH  16  17
ATOM     17  C   UNL     1      -0.946  10.287  18.020  0.00  0.00    +0.000 A 
ATOM     18  C   UNL     1      -1.287  11.265  18.955  0.00  0.00    +0.000 A 
ATOM     19  C   UNL     1      -2.584  11.782  18.983  0.00  0.00    +0.000 A 
ATOM     20  C   UNL     1      -3.550  11.335  18.080  0.00  0.00    +0.000 A 
ATOM     21  C   UNL     1      -4.949  11.875  18.120  0.00  0.00    +0.000 C 
ATOM     22  C   UNL     1      -3.195  10.374  17.127  0.00  0.00    +0.000 A 
ATOM     23  C   UNL     1      -1.899   9.860  17.095  0.00  0.00    +0.000 A 
ENDBRANCH  16  17
ENDBRANCH  15  16
ENDBRANCH   4  15
TORSDOF 4
ENDMDL
MODEL 9
REMARK VINA RESULT:      -7.3      2.846      4.818
REMARK  Name = 
REMARK  6 active torsions:
REMARK  status: ('A' for Active; 'I' for Inactive)
REMARK    1  A    between atoms: C_1  and  C_2
REMARK    2  A    between atoms: C_9  and  C_10
REMARK    3  A    between atoms: C_13  and  C_14
REMARK    4  A    between atoms: C_14  and  O_15
REMARK    5  A    between atoms: O_15  and  C_16
REMARK    6  A    between atoms: C_19  and  C_20
REMARK                            x       y       z     vdW  Elec       q    Type
REMARK                         _______ _______ _______ _____ _____    ______ ____
ROOT
ATOM      1  C   UNL     1       2.613   6.501  19.684  0.00  0.00    +0.000 A 
ATOM      2  N   UNL     1       1.822   6.953  20.671  0.00  0.00    +0.000 NA
ATOM      3  O   UNL     1       1.326   8.158  20.166  0.00  0.00    +0.000 OA
ATOM      4  C   UNL     1       1.857   8.299  18.919  0.00  0.00    +0.000 A 
ATOM      5  N   UNL     1       2.645   7.308  18.571  0.00  0.00    +0.000 NA
ENDROOT
BRANCH   1  14
ATOM      6  C   UNL     1       2.201   3.216  21.574  0.00  0.00    +0.000 C 
ATOM      7  C   UNL     1       2.040   3.089  20.080  0.00  0.00    +0.000 C 
ATOM      8  O   UNL     1       1.428   2.125  19.617  0.00  0.00    +0.000 OA
ATOM      9  N   UNL     1       2.601   4.072  19.281  0.00  0.00    +0.000 N 
ATOM     10  C   UNL     1       2.335   4.051  17.842  0.00  0.00    +0.000 C 
ATOM     11  C   UNL     1       3.630   4.118  17.037  0.00  0.00    +0.000 C 
ATOM     12  C   UNL     1       4.540   5.256  17.495  0.00  0.00    +0.000 C 
ATOM     13  C   UNL     1       4.735   5.239  19.014  0.00  0.00    +0.000 C 
ATOM     14  C   UNL     1       3.399   5.218  19.775  0.00  0.00    +0.000 C 
ENDBRANCH   1  14
BRANCH   4  15
ATOM     15  C   UNL     1       1.522   9.532  18.172  0.00  0.00    +0.000 C 
BRANCH  15  16
ATOM     16  O   UNL     1       0.615  10.274  18.986  0.00  0.00    +0.000 OA
BRANCH  16  17
ATOM     17  C   UNL     1      -0.628  10.468  18.451  0.00  0.00    +0.000 A 
ATOM     18  C   UNL     1      -1.174   9.733  17.397  0.00  0.00    +0.000 A 
ATOM     19  C   UNL     1      -2.462  10.020  16.940  0.00  0.00    +0.000 A 
ATOM     20  C   UNL     1      -3.219  11.035  17.529  0.00  0.00    +0.000 A 
ATOM     21  C   UNL     1      -4.595  11.357  17.028  0.00  0.00    +0.000 C 
ATOM     22  C   UNL     1      -2.677  11.750  18.603  0.00  0.00    +0.000 A 
ATOM     23  C   UNL     1      -1.393  11.461  19.063  0.00  0.00    +0.000 A 
ENDBRANCH  16  17
ENDBRANCH  15  16
ENDBRANCH   4  15
TORSDOF 4
ENDMDL
