MODEL 1
REMARK VINA RESULT:      -7.4      0.000      0.000
REMARK  Name = 
REMARK  11 active torsions:
REMARK  status: ('A' for Active; 'I' for Inactive)
REMARK    1  A    between atoms: C_1  and  C_2
REMARK    2  A    between atoms: C_2  and  O_3
REMARK    3  A    between atoms: O_3  and  C_4
REMARK    4  A    between atoms: C_6  and  C_7
REMARK    5  A    between atoms: N_8  and  N_9
REMARK    6  A    between atoms: N_16  and  C_17
REMARK    7  A    between atoms: N_20  and  C_21
REMARK    8  A    between atoms: N_22  and  C_23
REMARK    9  A    between atoms: C_23  and  C_24
REMARK   10  A    between atoms: C_29  and  N_30
REMARK   11  A    between atoms: C_35  and  O_36
REMARK                            x       y       z     vdW  Elec       q    Type
REMARK                         _______ _______ _______ _____ _____    ______ ____
ROOT
ATOM      1  N   UNL     1       0.890  12.095  18.064  0.00  0.00    +0.000 N 
ATOM      2  C   UNL     1       1.603  13.082  18.659  0.00  0.00    +0.000 A 
ATOM      3  N   UNL     1       2.128  14.110  18.019  0.00  0.00    +0.000 NA
ATOM      4  C   UNL     1       2.706  14.869  18.984  0.00  0.00    +0.000 A 
ATOM      5  C   UNL     1       2.536  14.343  20.226  0.00  0.00    +0.000 A 
ATOM      6  C   UNL     1       3.034  14.973  21.401  0.00  0.00    +0.000 A 
ATOM      7  O   UNL     1       2.866  14.516  22.528  0.00  0.00    +0.000 OA
ATOM      8  N   UNL     1       3.730  16.159  21.132  0.00  0.00    +0.000 N 
ATOM      9  C   UNL     1       4.316  16.882  22.244  0.00  0.00    +0.000 C 
ATOM     10  C   UNL     1       3.923  16.734  19.858  0.00  0.00    +0.000 A 
ATOM     11  O   UNL     1       4.540  17.790  19.720  0.00  0.00    +0.000 OA
ATOM     12  N   UNL     1       3.382  16.047  18.771  0.00  0.00    +0.000 N 
ATOM     13  C   UNL     1       3.527  16.567  17.423  0.00  0.00    +0.000 C 
ATOM     14  N   UNL     1       1.831  13.174  20.025  0.00  0.00    +0.000 N 
ATOM     15  H   UNL     1       0.921  12.172  17.046  0.00  0.00    +0.000 HD
ENDROOT
BRANCH   1  17
ATOM     16  C   UNL     1      -0.274  10.172  18.428  0.00  0.00    +0.000 C 
ATOM     17  N   UNL     1       0.851  10.821  18.526  0.00  0.00    +0.000 NA
BRANCH  16  20
ATOM     18  C   UNL     1      -3.405  10.405  16.385  0.00  0.00    +0.000 A 
ATOM     19  C   UNL     1      -2.084  10.173  16.784  0.00  0.00    +0.000 A 
ATOM     20  C   UNL     1      -1.624  10.628  18.024  0.00  0.00    +0.000 A 
ATOM     21  C   UNL     1      -2.479  11.347  18.860  0.00  0.00    +0.000 A 
ATOM     22  C   UNL     1      -3.776  11.655  18.434  0.00  0.00    +0.000 A 
ATOM     23  C   UNL     1      -4.231  11.187  17.200  0.00  0.00    +0.000 A 
BRANCH  23  24
ATOM     24  O   UNL     1      -5.512  11.454  16.800  0.00  0.00    +0.000 OA
ATOM     25  H   UNL     1      -5.559  11.418  15.832  0.00  0.00    +0.000 HD
ENDBRANCH  23  24
BRANCH  18  26
ATOM     26  O   UNL     1      -3.949   9.869  15.242  0.00  0.00    +0.000 OA
BRANCH  26  28
ATOM     27  C   UNL     1      -4.051   9.794  12.827  0.00  0.00    +0.000 C 
ATOM     28  C   UNL     1      -3.234  10.187  14.043  0.00  0.00    +0.000 C 
ENDBRANCH  26  28
ENDBRANCH  18  26
ENDBRANCH  16  20
ENDBRANCH   1  17
BRANCH  14  29
ATOM     29  C   UNL     1       1.317  12.283  21.068  0.00  0.00    +0.000 C 
BRANCH  29  30
ATOM     30  C   UNL     1      -0.100  12.566  21.551  0.00  0.00    +0.000 A 
ATOM     31  C   UNL     1      -0.692  13.832  21.354  0.00  0.00    +0.000 A 
ATOM     32  C   UNL     1      -2.006  14.109  21.751  0.00  0.00    +0.000 A 
ATOM     33  C   UNL     1      -2.775  13.130  22.361  0.00  0.00    +0.000 A 
ATOM     34  C   UNL     1      -2.224  11.874  22.597  0.00  0.00    +0.000 A 
ATOM     35  C   UNL     1      -0.895  11.587  22.208  0.00  0.00    +0.000 A 
BRANCH  35  36
ATOM     36  N   UNL     1      -0.392  10.236  22.554  0.00  0.00    +0.000 N 
ATOM     37  O   UNL     1      -0.521   9.323  21.728  0.00  0.00    +0.000 OA
ATOM     38  O   UNL     1       0.158  10.090  23.656  0.00  0.00    +0.000 OA
ENDBRANCH  35  36
ENDBRANCH  29  30
ENDBRANCH  14  29
TORSDOF 8
ENDMDL
MODEL 2
REMARK VINA RESULT:      -7.0      1.108      2.389
REMARK  Name = 
REMARK  11 active torsions:
REMARK  status: ('A' for Active; 'I' for Inactive)
REMARK    1  A    between atoms: C_1  and  C_2
REMARK    2  A    between atoms: C_2  and  O_3
REMARK    3  A    between atoms: O_3  and  C_4
REMARK    4  A    between atoms: C_6  and  C_7
REMARK    5  A    between atoms: N_8  and  N_9
REMARK    6  A    between atoms: N_16  and  C_17
REMARK    7  A    between atoms: N_20  and  C_21
REMARK    8  A    between atoms: N_22  and  C_23
REMARK    9  A    between atoms: C_23  and  C_24
REMARK   10  A    between atoms: C_29  and  N_30
REMARK   11  A    between atoms: C_35  and  O_36
REMARK                            x       y       z     vdW  Elec       q    Type
REMARK                         _______ _______ _______ _____ _____    ______ ____
ROOT
ATOM      1  N   UNL     1       0.058  12.418  18.220  0.00  0.00    +0.000 N 
ATOM      2  C   UNL     1       0.842  13.372  18.779  0.00  0.00    +0.000 A 
ATOM      3  N   UNL     1       1.174  14.504  18.187  0.00  0.00    +0.000 NA
ATOM      4  C   UNL     1       1.916  15.177  19.101  0.00  0.00    +0.000 A 
ATOM      5  C   UNL     1       2.041  14.493  20.270  0.00  0.00    +0.000 A 
ATOM      6  C   UNL     1       2.756  15.007  21.388  0.00  0.00    +0.000 A 
ATOM      7  O   UNL     1       2.856  14.406  22.454  0.00  0.00    +0.000 OA
ATOM      8  N   UNL     1       3.328  16.262  21.140  0.00  0.00    +0.000 N 
ATOM      9  C   UNL     1       4.111  16.883  22.190  0.00  0.00    +0.000 C 
ATOM     10  C   UNL     1       3.216  17.000  19.942  0.00  0.00    +0.000 A 
ATOM     11  O   UNL     1       3.745  18.105  19.821  0.00  0.00    +0.000 OA
ATOM     12  N   UNL     1       2.481  16.416  18.912  0.00  0.00    +0.000 N 
ATOM     13  C   UNL     1       2.308  17.105  17.645  0.00  0.00    +0.000 C 
ATOM     14  N   UNL     1       1.358  13.312  20.067  0.00  0.00    +0.000 N 
ATOM     15  H   UNL     1      -0.136  12.620  17.238  0.00  0.00    +0.000 HD
ENDROOT
BRANCH   1  17
ATOM     16  C   UNL     1      -0.831  10.322  18.209  0.00  0.00    +0.000 C 
ATOM     17  N   UNL     1       0.172  11.098  18.506  0.00  0.00    +0.000 NA
BRANCH  16  20
ATOM     18  C   UNL     1      -4.359  11.571  18.333  0.00  0.00    +0.000 A 
ATOM     19  C   UNL     1      -3.101  11.083  18.702  0.00  0.00    +0.000 A 
ATOM     20  C   UNL     1      -2.195  10.642  17.732  0.00  0.00    +0.000 A 
ATOM     21  C   UNL     1      -2.560  10.657  16.385  0.00  0.00    +0.000 A 
ATOM     22  C   UNL     1      -3.846  11.065  16.014  0.00  0.00    +0.000 A 
ATOM     23  C   UNL     1      -4.739  11.516  16.988  0.00  0.00    +0.000 A 
BRANCH  23  24
ATOM     24  O   UNL     1      -5.984  11.951  16.622  0.00  0.00    +0.000 OA
ATOM     25  H   UNL     1      -5.897  12.755  16.086  0.00  0.00    +0.000 HD
ENDBRANCH  23  24
BRANCH  18  26
ATOM     26  O   UNL     1      -5.236  12.139  19.228  0.00  0.00    +0.000 OA
BRANCH  26  28
ATOM     27  C   UNL     1      -5.558  13.313  21.317  0.00  0.00    +0.000 C 
ATOM     28  C   UNL     1      -4.630  13.057  20.144  0.00  0.00    +0.000 C 
ENDBRANCH  26  28
ENDBRANCH  18  26
ENDBRANCH  16  20
ENDBRANCH   1  17
BRANCH  14  29
ATOM     29  C   UNL     1       1.120  12.267  21.065  0.00  0.00    +0.000 C 
BRANCH  29  30
ATOM     30  C   UNL     1      -0.158  12.403  21.885  0.00  0.00    +0.000 A 
ATOM     31  C   UNL     1      -0.828  13.643  21.979  0.00  0.00    +0.000 A 
ATOM     32  C   UNL     1      -2.024  13.790  22.691  0.00  0.00    +0.000 A 
ATOM     33  C   UNL     1      -2.594  12.702  23.336  0.00  0.00    +0.000 A 
ATOM     34  C   UNL     1      -1.955  11.467  23.290  0.00  0.00    +0.000 A 
ATOM     35  C   UNL     1      -0.742  11.310  22.581  0.00  0.00    +0.000 A 
BRANCH  35  36
ATOM     36  N   UNL     1      -0.122   9.965  22.640  0.00  0.00    +0.000 N 
ATOM     37  O   UNL     1       0.498   9.639  23.661  0.00  0.00    +0.000 OA
ATOM     38  O   UNL     1      -0.276   9.215  21.664  0.00  0.00    +0.000 OA
ENDBRANCH  35  36
ENDBRANCH  29  30
ENDBRANCH  14  29
TORSDOF 8
ENDMDL
MODEL 3
REMARK VINA RESULT:      -6.8      3.753      5.655
REMARK  Name = 
REMARK  11 active torsions:
REMARK  status: ('A' for Active; 'I' for Inactive)
REMARK    1  A    between atoms: C_1  and  C_2
REMARK    2  A    between atoms: C_2  and  O_3
REMARK    3  A    between atoms: O_3  and  C_4
REMARK    4  A    between atoms: C_6  and  C_7
REMARK    5  A    between atoms: N_8  and  N_9
REMARK    6  A    between atoms: N_16  and  C_17
REMARK    7  A    between atoms: N_20  and  C_21
REMARK    8  A    between atoms: N_22  and  C_23
REMARK    9  A    between atoms: C_23  and  C_24
REMARK   10  A    between atoms: C_29  and  N_30
REMARK   11  A    between atoms: C_35  and  O_36
REMARK                            x       y       z     vdW  Elec       q    Type
REMARK                         _______ _______ _______ _____ _____    ______ ____
ROOT
ATOM      1  N   UNL     1       1.188  10.781  19.510  0.00  0.00    +0.000 N 
ATOM      2  C   UNL     1       1.141  12.131  19.387  0.00  0.00    +0.000 A 
ATOM      3  N   UNL     1       2.074  12.857  18.801  0.00  0.00    +0.000 NA
ATOM      4  C   UNL     1       1.615  14.132  18.855  0.00  0.00    +0.000 A 
ATOM      5  C   UNL     1       0.396  14.218  19.451  0.00  0.00    +0.000 A 
ATOM      6  C   UNL     1      -0.300  15.450  19.604  0.00  0.00    +0.000 A 
ATOM      7  O   UNL     1      -1.410  15.533  20.121  0.00  0.00    +0.000 OA
ATOM      8  N   UNL     1       0.415  16.547  19.104  0.00  0.00    +0.000 N 
ATOM      9  C   UNL     1      -0.171  17.866  19.227  0.00  0.00    +0.000 C 
ATOM     10  C   UNL     1       1.679  16.494  18.478  0.00  0.00    +0.000 A 
ATOM     11  O   UNL     1       2.226  17.513  18.057  0.00  0.00    +0.000 OA
ATOM     12  N   UNL     1       2.270  15.236  18.363  0.00  0.00    +0.000 N 
ATOM     13  C   UNL     1       3.568  15.086  17.728  0.00  0.00    +0.000 C 
ATOM     14  N   UNL     1       0.084  12.923  19.813  0.00  0.00    +0.000 N 
ATOM     15  H   UNL     1       2.092  10.409  19.213  0.00  0.00    +0.000 HD
ENDROOT
BRANCH   1  17
ATOM     16  C   UNL     1       0.960   8.862  20.713  0.00  0.00    +0.000 C 
ATOM     17  N   UNL     1       0.617  10.106  20.537  0.00  0.00    +0.000 NA
BRANCH  16  20
ATOM     18  C   UNL     1       2.664   5.704  19.642  0.00  0.00    +0.000 A 
ATOM     19  C   UNL     1       2.045   6.691  20.416  0.00  0.00    +0.000 A 
ATOM     20  C   UNL     1       1.781   7.956  19.879  0.00  0.00    +0.000 A 
ATOM     21  C   UNL     1       2.167   8.248  18.570  0.00  0.00    +0.000 A 
ATOM     22  C   UNL     1       2.861   7.295  17.817  0.00  0.00    +0.000 A 
ATOM     23  C   UNL     1       3.109   6.030  18.356  0.00  0.00    +0.000 A 
BRANCH  23  24
ATOM     24  O   UNL     1       3.753   5.085  17.607  0.00  0.00    +0.000 OA
ATOM     25  H   UNL     1       3.744   5.353  16.675  0.00  0.00    +0.000 HD
ENDBRANCH  23  24
BRANCH  18  26
ATOM     26  O   UNL     1       2.827   4.407  20.070  0.00  0.00    +0.000 OA
BRANCH  26  28
ATOM     27  C   UNL     1       1.312   2.823  21.092  0.00  0.00    +0.000 C 
ATOM     28  C   UNL     1       2.124   4.092  21.276  0.00  0.00    +0.000 C 
ENDBRANCH  26  28
ENDBRANCH  18  26
ENDBRANCH  16  20
ENDBRANCH   1  17
BRANCH  14  29
ATOM     29  C   UNL     1      -1.174  12.470  20.410  0.00  0.00    +0.000 C 
BRANCH  29  30
ATOM     30  C   UNL     1      -2.307  12.171  19.435  0.00  0.00    +0.000 A 
ATOM     31  C   UNL     1      -2.038  11.644  18.153  0.00  0.00    +0.000 A 
ATOM     32  C   UNL     1      -3.059  11.322  17.251  0.00  0.00    +0.000 A 
ATOM     33  C   UNL     1      -4.387  11.515  17.599  0.00  0.00    +0.000 A 
ATOM     34  C   UNL     1      -4.699  12.054  18.844  0.00  0.00    +0.000 A 
ATOM     35  C   UNL     1      -3.674  12.392  19.758  0.00  0.00    +0.000 A 
BRANCH  35  36
ATOM     36  N   UNL     1      -4.115  13.006  21.033  0.00  0.00    +0.000 N 
ATOM     37  O   UNL     1      -4.246  12.283  22.029  0.00  0.00    +0.000 OA
ATOM     38  O   UNL     1      -4.311  14.230  21.046  0.00  0.00    +0.000 OA
ENDBRANCH  35  36
ENDBRANCH  29  30
ENDBRANCH  14  29
TORSDOF 8
ENDMDL
MODEL 4
REMARK VINA RESULT:      -6.7      2.477      4.215
REMARK  Name = 
REMARK  11 active torsions:
REMARK  status: ('A' for Active; 'I' for Inactive)
REMARK    1  A    between atoms: C_1  and  C_2
REMARK    2  A    between atoms: C_2  and  O_3
REMARK    3  A    between atoms: O_3  and  C_4
REMARK    4  A    between atoms: C_6  and  C_7
REMARK    5  A    between atoms: N_8  and  N_9
REMARK    6  A    between atoms: N_16  and  C_17
REMARK    7  A    between atoms: N_20  and  C_21
REMARK    8  A    between atoms: N_22  and  C_23
REMARK    9  A    between atoms: C_23  and  C_24
REMARK   10  A    between atoms: C_29  and  N_30
REMARK   11  A    between atoms: C_35  and  O_36
REMARK                            x       y       z     vdW  Elec       q    Type
REMARK                         _______ _______ _______ _____ _____    ______ ____
ROOT
ATOM      1  N   UNL     1      -1.773  12.659  17.895  0.00  0.00    +0.000 N 
ATOM      2  C   UNL     1      -0.637  13.152  18.446  0.00  0.00    +0.000 A 
ATOM      3  N   UNL     1      -0.119  14.330  18.155  0.00  0.00    +0.000 NA
ATOM      4  C   UNL     1       0.972  14.443  18.954  0.00  0.00    +0.000 A 
ATOM      5  C   UNL     1       1.138  13.360  19.759  0.00  0.00    +0.000 A 
ATOM      6  C   UNL     1       2.200  13.259  20.701  0.00  0.00    +0.000 A 
ATOM      7  O   UNL     1       2.345  12.295  21.446  0.00  0.00    +0.000 OA
ATOM      8  N   UNL     1       3.054  14.370  20.683  0.00  0.00    +0.000 N 
ATOM      9  C   UNL     1       4.196  14.376  21.575  0.00  0.00    +0.000 C 
ATOM     10  C   UNL     1       2.910  15.511  19.864  0.00  0.00    +0.000 A 
ATOM     11  O   UNL     1       3.706  16.447  19.927  0.00  0.00    +0.000 OA
ATOM     12  N   UNL     1       1.827  15.520  18.985  0.00  0.00    +0.000 N 
ATOM     13  C   UNL     1       1.597  16.654  18.108  0.00  0.00    +0.000 C 
ATOM     14  N   UNL     1       0.105  12.508  19.428  0.00  0.00    +0.000 N 
ATOM     15  H   UNL     1      -2.107  13.251  17.133  0.00  0.00    +0.000 HD
ENDROOT
BRANCH   1  17
ATOM     16  C   UNL     1      -3.238  10.934  17.649  0.00  0.00    +0.000 C 
ATOM     17  N   UNL     1      -2.001  11.336  17.715  0.00  0.00    +0.000 NA
BRANCH  16  20
ATOM     18  C   UNL     1      -5.833  12.878  19.524  0.00  0.00    +0.000 A 
ATOM     19  C   UNL     1      -4.753  12.045  19.215  0.00  0.00    +0.000 A 
ATOM     20  C   UNL     1      -4.506  11.658  17.893  0.00  0.00    +0.000 A 
ATOM     21  C   UNL     1      -5.364  12.080  16.876  0.00  0.00    +0.000 A 
ATOM     22  C   UNL     1      -6.494  12.844  17.187  0.00  0.00    +0.000 A 
ATOM     23  C   UNL     1      -6.725  13.236  18.507  0.00  0.00    +0.000 A 
BRANCH  23  24
ATOM     24  O   UNL     1      -7.809  14.015  18.807  0.00  0.00    +0.000 OA
ATOM     25  H   UNL     1      -7.828  14.184  19.762  0.00  0.00    +0.000 HD
ENDBRANCH  23  24
BRANCH  18  26
ATOM     26  O   UNL     1      -6.045  13.397  20.780  0.00  0.00    +0.000 OA
BRANCH  26  28
ATOM     27  C   UNL     1      -7.914  12.636  22.113  0.00  0.00    +0.000 C 
ATOM     28  C   UNL     1      -6.454  12.432  21.755  0.00  0.00    +0.000 C 
ENDBRANCH  26  28
ENDBRANCH  18  26
ENDBRANCH  16  20
ENDBRANCH   1  17
BRANCH  14  29
ATOM     29  C   UNL     1      -0.212  11.237  20.082  0.00  0.00    +0.000 C 
BRANCH  29  30
ATOM     30  C   UNL     1       0.634  10.040  19.664  0.00  0.00    +0.000 A 
ATOM     31  C   UNL     1       1.147   9.940  18.352  0.00  0.00    +0.000 A 
ATOM     32  C   UNL     1       1.960   8.873  17.951  0.00  0.00    +0.000 A 
ATOM     33  C   UNL     1       2.289   7.867  18.847  0.00  0.00    +0.000 A 
ATOM     34  C   UNL     1       1.785   7.912  20.143  0.00  0.00    +0.000 A 
ATOM     35  C   UNL     1       0.956   8.981  20.556  0.00  0.00    +0.000 A 
BRANCH  35  36
ATOM     36  N   UNL     1       0.435   8.903  21.941  0.00  0.00    +0.000 N 
ATOM     37  O   UNL     1       1.079   9.439  22.852  0.00  0.00    +0.000 OA
ATOM     38  O   UNL     1      -0.644   8.318  22.119  0.00  0.00    +0.000 OA
ENDBRANCH  35  36
ENDBRANCH  29  30
ENDBRANCH  14  29
TORSDOF 8
ENDMDL
MODEL 5
REMARK VINA RESULT:      -6.6      3.780      7.007
REMARK  Name = 
REMARK  11 active torsions:
REMARK  status: ('A' for Active; 'I' for Inactive)
REMARK    1  A    between atoms: C_1  and  C_2
REMARK    2  A    between atoms: C_2  and  O_3
REMARK    3  A    between atoms: O_3  and  C_4
REMARK    4  A    between atoms: C_6  and  C_7
REMARK    5  A    between atoms: N_8  and  N_9
REMARK    6  A    between atoms: N_16  and  C_17
REMARK    7  A    between atoms: N_20  and  C_21
REMARK    8  A    between atoms: N_22  and  C_23
REMARK    9  A    between atoms: C_23  and  C_24
REMARK   10  A    between atoms: C_29  and  N_30
REMARK   11  A    between atoms: C_35  and  O_36
REMARK                            x       y       z     vdW  Elec       q    Type
REMARK                         _______ _______ _______ _____ _____    ______ ____
ROOT
ATOM      1  N   UNL     1       0.461   9.482  17.701  0.00  0.00    +0.000 N 
ATOM      2  C   UNL     1      -0.733  10.116  17.799  0.00  0.00    +0.000 A 
ATOM      3  N   UNL     1      -1.667  10.092  16.867  0.00  0.00    +0.000 NA
ATOM      4  C   UNL     1      -2.699  10.805  17.383  0.00  0.00    +0.000 A 
ATOM      5  C   UNL     1      -2.436  11.264  18.635  0.00  0.00    +0.000 A 
ATOM      6  C   UNL     1      -3.377  12.018  19.391  0.00  0.00    +0.000 A 
ATOM      7  O   UNL     1      -3.155  12.418  20.530  0.00  0.00    +0.000 OA
ATOM      8  N   UNL     1      -4.571  12.253  18.697  0.00  0.00    +0.000 N 
ATOM      9  C   UNL     1      -5.602  13.040  19.346  0.00  0.00    +0.000 C 
ATOM     10  C   UNL     1      -4.879  11.791  17.400  0.00  0.00    +0.000 A 
ATOM     11  O   UNL     1      -5.964  12.038  16.875  0.00  0.00    +0.000 OA
ATOM     12  N   UNL     1      -3.896  11.046  16.750  0.00  0.00    +0.000 N 
ATOM     13  C   UNL     1      -4.127  10.525  15.414  0.00  0.00    +0.000 C 
ATOM     14  N   UNL     1      -1.154  10.833  18.911  0.00  0.00    +0.000 N 
ATOM     15  H   UNL     1       0.603   9.093  16.767  0.00  0.00    +0.000 HD
ENDROOT
BRANCH   1  17
ATOM     16  C   UNL     1       2.378   9.046  18.849  0.00  0.00    +0.000 C 
ATOM     17  N   UNL     1       1.593   9.927  18.298  0.00  0.00    +0.000 NA
BRANCH  16  20
ATOM     18  C   UNL     1       2.658   5.355  18.278  0.00  0.00    +0.000 A 
ATOM     19  C   UNL     1       2.633   6.740  18.079  0.00  0.00    +0.000 A 
ATOM     20  C   UNL     1       2.190   7.598  19.091  0.00  0.00    +0.000 A 
ATOM     21  C   UNL     1       1.738   7.068  20.300  0.00  0.00    +0.000 A 
ATOM     22  C   UNL     1       1.680   5.681  20.478  0.00  0.00    +0.000 A 
ATOM     23  C   UNL     1       2.137   4.833  19.467  0.00  0.00    +0.000 A 
BRANCH  23  24
ATOM     24  O   UNL     1       2.117   3.478  19.654  0.00  0.00    +0.000 OA
ATOM     25  H   UNL     1       2.218   3.284  20.599  0.00  0.00    +0.000 HD
ENDBRANCH  23  24
BRANCH  18  26
ATOM     26  O   UNL     1       3.206   4.476  17.374  0.00  0.00    +0.000 OA
BRANCH  26  28
ATOM     27  C   UNL     1       5.167   4.851  16.009  0.00  0.00    +0.000 C 
ATOM     28  C   UNL     1       4.637   4.447  17.372  0.00  0.00    +0.000 C 
ENDBRANCH  26  28
ENDBRANCH  18  26
ENDBRANCH  16  20
ENDBRANCH   1  17
BRANCH  14  29
ATOM     29  C   UNL     1      -0.441  10.994  20.180  0.00  0.00    +0.000 C 
BRANCH  29  30
ATOM     30  C   UNL     1       0.131  12.379  20.455  0.00  0.00    +0.000 A 
ATOM     31  C   UNL     1       0.889  13.057  19.474  0.00  0.00    +0.000 A 
ATOM     32  C   UNL     1       1.393  14.346  19.683  0.00  0.00    +0.000 A 
ATOM     33  C   UNL     1       1.159  15.004  20.881  0.00  0.00    +0.000 A 
ATOM     34  C   UNL     1       0.437  14.365  21.885  0.00  0.00    +0.000 A 
ATOM     35  C   UNL     1      -0.069  13.059  21.687  0.00  0.00    +0.000 A 
BRANCH  35  36
ATOM     36  N   UNL     1      -0.777  12.454  22.840  0.00  0.00    +0.000 N 
ATOM     37  O   UNL     1      -0.453  11.319  23.210  0.00  0.00    +0.000 OA
ATOM     38  O   UNL     1      -1.655  13.131  23.397  0.00  0.00    +0.000 OA
ENDBRANCH  35  36
ENDBRANCH  29  30
ENDBRANCH  14  29
TORSDOF 8
ENDMDL
MODEL 6
REMARK VINA RESULT:      -6.6      2.007      3.139
REMARK  Name = 
REMARK  11 active torsions:
REMARK  status: ('A' for Active; 'I' for Inactive)
REMARK    1  A    between atoms: C_1  and  C_2
REMARK    2  A    between atoms: C_2  and  O_3
REMARK    3  A    between atoms: O_3  and  C_4
REMARK    4  A    between atoms: C_6  and  C_7
REMARK    5  A    between atoms: N_8  and  N_9
REMARK    6  A    between atoms: N_16  and  C_17
REMARK    7  A    between atoms: N_20  and  C_21
REMARK    8  A    between atoms: N_22  and  C_23
REMARK    9  A    between atoms: C_23  and  C_24
REMARK   10  A    between atoms: C_29  and  N_30
REMARK   11  A    between atoms: C_35  and  O_36
REMARK                            x       y       z     vdW  Elec       q    Type
REMARK                         _______ _______ _______ _____ _____    ______ ____
ROOT
ATOM      1  N   UNL     1      -1.209  13.066  18.107  0.00  0.00    +0.000 N 
ATOM      2  C   UNL     1      -0.151  13.768  18.582  0.00  0.00    +0.000 A 
ATOM      3  N   UNL     1       0.126  15.015  18.249  0.00  0.00    +0.000 NA
ATOM      4  C   UNL     1       1.223  15.340  18.977  0.00  0.00    +0.000 A 
ATOM      5  C   UNL     1       1.631  14.322  19.781  0.00  0.00    +0.000 A 
ATOM      6  C   UNL     1       2.747  14.434  20.656  0.00  0.00    +0.000 A 
ATOM      7  O   UNL     1       3.110  13.528  21.400  0.00  0.00    +0.000 OA
ATOM      8  N   UNL     1       3.382  15.681  20.575  0.00  0.00    +0.000 N 
ATOM      9  C   UNL     1       4.554  15.913  21.395  0.00  0.00    +0.000 C 
ATOM     10  C   UNL     1       2.984  16.760  19.756  0.00  0.00    +0.000 A 
ATOM     11  O   UNL     1       3.598  17.827  19.762  0.00  0.00    +0.000 OA
ATOM     12  N   UNL     1       1.867  16.554  18.946  0.00  0.00    +0.000 N 
ATOM     13  C   UNL     1       1.382  17.610  18.075  0.00  0.00    +0.000 C 
ATOM     14  N   UNL     1       0.753  13.290  19.522  0.00  0.00    +0.000 N 
ATOM     15  H   UNL     1      -1.689  13.572  17.361  0.00  0.00    +0.000 HD
ENDROOT
BRANCH   1  17
ATOM     16  C   UNL     1      -2.349  11.112  17.849  0.00  0.00    +0.000 C 
ATOM     17  N   UNL     1      -1.201  11.720  17.953  0.00  0.00    +0.000 NA
BRANCH  16  20
ATOM     18  C   UNL     1      -5.258  12.803  19.493  0.00  0.00    +0.000 A 
ATOM     19  C   UNL     1      -4.040  12.149  19.278  0.00  0.00    +0.000 A 
ATOM     20  C   UNL     1      -3.730  11.615  18.022  0.00  0.00    +0.000 A 
ATOM     21  C   UNL     1      -4.657  11.705  16.982  0.00  0.00    +0.000 A 
ATOM     22  C   UNL     1      -5.910  12.283  17.212  0.00  0.00    +0.000 A 
ATOM     23  C   UNL     1      -6.207  12.825  18.464  0.00  0.00    +0.000 A 
BRANCH  23  24
ATOM     24  O   UNL     1      -7.417  13.424  18.678  0.00  0.00    +0.000 OA
ATOM     25  H   UNL     1      -7.478  13.703  19.605  0.00  0.00    +0.000 HD
ENDBRANCH  23  24
BRANCH  18  26
ATOM     26  O   UNL     1      -5.561  13.461  20.662  0.00  0.00    +0.000 OA
BRANCH  26  28
ATOM     27  C   UNL     1      -7.202  12.325  22.027  0.00  0.00    +0.000 C 
ATOM     28  C   UNL     1      -5.728  12.603  21.795  0.00  0.00    +0.000 C 
ENDBRANCH  26  28
ENDBRANCH  18  26
ENDBRANCH  16  20
ENDBRANCH   1  17
BRANCH  14  29
ATOM     29  C   UNL     1       0.712  11.995  20.206  0.00  0.00    +0.000 C 
BRANCH  29  30
ATOM     30  C   UNL     1      -0.281  11.877  21.356  0.00  0.00    +0.000 A 
ATOM     31  C   UNL     1      -1.184  12.924  21.642  0.00  0.00    +0.000 A 
ATOM     32  C   UNL     1      -2.134  12.828  22.666  0.00  0.00    +0.000 A 
ATOM     33  C   UNL     1      -2.215  11.681  23.441  0.00  0.00    +0.000 A 
ATOM     34  C   UNL     1      -1.329  10.634  23.210  0.00  0.00    +0.000 A 
ATOM     35  C   UNL     1      -0.359  10.724  22.184  0.00  0.00    +0.000 A 
BRANCH  35  36
ATOM     36  N   UNL     1       0.566   9.573  22.059  0.00  0.00    +0.000 N 
ATOM     37  O   UNL     1       0.274   8.656  21.281  0.00  0.00    +0.000 OA
ATOM     38  O   UNL     1       1.609   9.596  22.730  0.00  0.00    +0.000 OA
ENDBRANCH  35  36
ENDBRANCH  29  30
ENDBRANCH  14  29
TORSDOF 8
ENDMDL
MODEL 7
REMARK VINA RESULT:      -6.5      4.017      7.206
REMARK  Name = 
REMARK  11 active torsions:
REMARK  status: ('A' for Active; 'I' for Inactive)
REMARK    1  A    between atoms: C_1  and  C_2
REMARK    2  A    between atoms: C_2  and  O_3
REMARK    3  A    between atoms: O_3  and  C_4
REMARK    4  A    between atoms: C_6  and  C_7
REMARK    5  A    between atoms: N_8  and  N_9
REMARK    6  A    between atoms: N_16  and  C_17
REMARK    7  A    between atoms: N_20  and  C_21
REMARK    8  A    between atoms: N_22  and  C_23
REMARK    9  A    between atoms: C_23  and  C_24
REMARK   10  A    between atoms: C_29  and  N_30
REMARK   11  A    between atoms: C_35  and  O_36
REMARK                            x       y       z     vdW  Elec       q    Type
REMARK                         _______ _______ _______ _____ _____    ______ ____
ROOT
ATOM      1  N   UNL     1       0.457   9.688  17.504  0.00  0.00    +0.000 N 
ATOM      2  C   UNL     1      -0.757  10.278  17.631  0.00  0.00    +0.000 A 
ATOM      3  N   UNL     1      -1.776  10.067  16.818  0.00  0.00    +0.000 NA
ATOM      4  C   UNL     1      -2.793  10.807  17.327  0.00  0.00    +0.000 A 
ATOM      5  C   UNL     1      -2.435  11.468  18.460  0.00  0.00    +0.000 A 
ATOM      6  C   UNL     1      -3.340  12.290  19.189  0.00  0.00    +0.000 A 
ATOM      7  O   UNL     1      -3.031  12.873  20.224  0.00  0.00    +0.000 OA
ATOM      8  N   UNL     1      -4.609  12.361  18.598  0.00  0.00    +0.000 N 
ATOM      9  C   UNL     1      -5.615  13.194  19.226  0.00  0.00    +0.000 C 
ATOM     10  C   UNL     1      -5.015  11.688  17.426  0.00  0.00    +0.000 A 
ATOM     11  O   UNL     1      -6.159  11.802  16.988  0.00  0.00    +0.000 OA
ATOM     12  N   UNL     1      -4.058  10.894  16.795  0.00  0.00    +0.000 N 
ATOM     13  C   UNL     1      -4.388  10.160  15.586  0.00  0.00    +0.000 C 
ATOM     14  N   UNL     1      -1.109  11.141  18.660  0.00  0.00    +0.000 N 
ATOM     15  H   UNL     1       0.529   9.164  16.630  0.00  0.00    +0.000 HD
ENDROOT
BRANCH   1  17
ATOM     16  C   UNL     1       2.602   9.492  18.239  0.00  0.00    +0.000 C 
ATOM     17  N   UNL     1       1.614  10.270  17.902  0.00  0.00    +0.000 NA
BRANCH  16  20
ATOM     18  C   UNL     1       3.613   5.943  17.601  0.00  0.00    +0.000 A 
ATOM     19  C   UNL     1       3.353   7.308  17.437  0.00  0.00    +0.000 A 
ATOM     20  C   UNL     1       2.662   8.024  18.420  0.00  0.00    +0.000 A 
ATOM     21  C   UNL     1       2.197   7.367  19.560  0.00  0.00    +0.000 A 
ATOM     22  C   UNL     1       2.380   5.986  19.692  0.00  0.00    +0.000 A 
ATOM     23  C   UNL     1       3.082   5.281  18.713  0.00  0.00    +0.000 A 
BRANCH  23  24
ATOM     24  O   UNL     1       3.294   3.937  18.861  0.00  0.00    +0.000 OA
ATOM     25  H   UNL     1       2.653   3.579  19.494  0.00  0.00    +0.000 HD
ENDBRANCH  23  24
BRANCH  18  26
ATOM     26  O   UNL     1       4.400   5.220  16.735  0.00  0.00    +0.000 OA
BRANCH  26  28
ATOM     27  C   UNL     1       6.353   5.042  15.320  0.00  0.00    +0.000 C 
ATOM     28  C   UNL     1       5.592   5.894  16.319  0.00  0.00    +0.000 C 
ENDBRANCH  26  28
ENDBRANCH  18  26
ENDBRANCH  16  20
ENDBRANCH   1  17
BRANCH  14  29
ATOM     29  C   UNL     1      -0.285  11.530  19.806  0.00  0.00    +0.000 C 
BRANCH  29  30
ATOM     30  C   UNL     1      -0.383  10.634  21.036  0.00  0.00    +0.000 A 
ATOM     31  C   UNL     1      -0.294   9.229  20.915  0.00  0.00    +0.000 A 
ATOM     32  C   UNL     1      -0.341   8.383  22.030  0.00  0.00    +0.000 A 
ATOM     33  C   UNL     1      -0.479   8.911  23.305  0.00  0.00    +0.000 A 
ATOM     34  C   UNL     1      -0.594  10.288  23.468  0.00  0.00    +0.000 A 
ATOM     35  C   UNL     1      -0.557  11.151  22.348  0.00  0.00    +0.000 A 
BRANCH  35  36
ATOM     36  N   UNL     1      -0.740  12.594  22.632  0.00  0.00    +0.000 N 
ATOM     37  O   UNL     1       0.129  13.390  22.255  0.00  0.00    +0.000 OA
ATOM     38  O   UNL     1      -1.777  12.939  23.219  0.00  0.00    +0.000 OA
ENDBRANCH  35  36
ENDBRANCH  29  30
ENDBRANCH  14  29
TORSDOF 8
ENDMDL
MODEL 8
REMARK VINA RESULT:      -6.5      3.125      5.148
REMARK  Name = 
REMARK  11 active torsions:
REMARK  status: ('A' for Active; 'I' for Inactive)
REMARK    1  A    between atoms: C_1  and  C_2
REMARK    2  A    between atoms: C_2  and  O_3
REMARK    3  A    between atoms: O_3  and  C_4
REMARK    4  A    between atoms: C_6  and  C_7
REMARK    5  A    between atoms: N_8  and  N_9
REMARK    6  A    between atoms: N_16  and  C_17
REMARK    7  A    between atoms: N_20  and  C_21
REMARK    8  A    between atoms: N_22  and  C_23
REMARK    9  A    between atoms: C_23  and  C_24
REMARK   10  A    between atoms: C_29  and  N_30
REMARK   11  A    between atoms: C_35  and  O_36
REMARK                            x       y       z     vdW  Elec       q    Type
REMARK                         _______ _______ _______ _____ _____    ______ ____
ROOT
ATOM      1  N   UNL     1       1.335  11.545  21.084  0.00  0.00    +0.000 N 
ATOM      2  C   UNL     1       1.424  12.857  20.756  0.00  0.00    +0.000 A 
ATOM      3  N   UNL     1       2.353  13.677  21.210  0.00  0.00    +0.000 NA
ATOM      4  C   UNL     1       2.103  14.864  20.604  0.00  0.00    +0.000 A 
ATOM      5  C   UNL     1       1.041  14.800  19.758  0.00  0.00    +0.000 A 
ATOM      6  C   UNL     1       0.602  15.914  18.990  0.00  0.00    +0.000 A 
ATOM      7  O   UNL     1      -0.343  15.859  18.208  0.00  0.00    +0.000 OA
ATOM      8  N   UNL     1       1.358  17.070  19.223  0.00  0.00    +0.000 N 
ATOM      9  C   UNL     1       0.992  18.287  18.524  0.00  0.00    +0.000 C 
ATOM     10  C   UNL     1       2.467  17.172  20.090  0.00  0.00    +0.000 A 
ATOM     11  O   UNL     1       3.081  18.231  20.221  0.00  0.00    +0.000 OA
ATOM     12  N   UNL     1       2.828  16.018  20.785  0.00  0.00    +0.000 N 
ATOM     13  C   UNL     1       3.960  16.028  21.696  0.00  0.00    +0.000 C 
ATOM     14  N   UNL     1       0.583  13.502  19.859  0.00  0.00    +0.000 N 
ATOM     15  H   UNL     1       1.993  11.299  21.826  0.00  0.00    +0.000 HD
ENDROOT
BRANCH   1  17
ATOM     16  C   UNL     1       0.126   9.679  20.591  0.00  0.00    +0.000 C 
ATOM     17  N   UNL     1       0.164  10.865  21.130  0.00  0.00    +0.000 NA
BRANCH  16  20
ATOM     18  C   UNL     1       2.448   6.931  19.552  0.00  0.00    +0.000 A 
ATOM     19  C   UNL     1       1.633   7.774  20.314  0.00  0.00    +0.000 A 
ATOM     20  C   UNL     1       1.123   8.957  19.769  0.00  0.00    +0.000 A 
ATOM     21  C   UNL     1       1.455   9.317  18.462  0.00  0.00    +0.000 A 
ATOM     22  C   UNL     1       2.336   8.522  17.721  0.00  0.00    +0.000 A 
ATOM     23  C   UNL     1       2.830   7.337  18.268  0.00  0.00    +0.000 A 
BRANCH  23  24
ATOM     24  O   UNL     1       3.661   6.540  17.530  0.00  0.00    +0.000 OA
ATOM     25  H   UNL     1       3.134   5.869  17.068  0.00  0.00    +0.000 HD
ENDBRANCH  23  24
BRANCH  18  26
ATOM     26  O   UNL     1       2.867   5.696  19.988  0.00  0.00    +0.000 OA
BRANCH  26  28
ATOM     27  C   UNL     1       1.412   3.772  20.167  0.00  0.00    +0.000 C 
ATOM     28  C   UNL     1       1.936   5.025  20.844  0.00  0.00    +0.000 C 
ENDBRANCH  26  28
ENDBRANCH  18  26
ENDBRANCH  16  20
ENDBRANCH   1  17
BRANCH  14  29
ATOM     29  C   UNL     1      -0.496  12.901  19.072  0.00  0.00    +0.000 C 
BRANCH  29  30
ATOM     30  C   UNL     1      -1.885  12.943  19.699  0.00  0.00    +0.000 A 
ATOM     31  C   UNL     1      -2.148  13.761  20.819  0.00  0.00    +0.000 A 
ATOM     32  C   UNL     1      -3.423  13.851  21.391  0.00  0.00    +0.000 A 
ATOM     33  C   UNL     1      -4.480  13.125  20.865  0.00  0.00    +0.000 A 
ATOM     34  C   UNL     1      -4.261  12.287  19.776  0.00  0.00    +0.000 A 
ATOM     35  C   UNL     1      -2.975  12.182  19.195  0.00  0.00    +0.000 A 
BRANCH  35  36
ATOM     36  N   UNL     1      -2.844  11.223  18.074  0.00  0.00    +0.000 N 
ATOM     37  O   UNL     1      -2.316  10.124  18.288  0.00  0.00    +0.000 OA
ATOM     38  O   UNL     1      -3.293  11.562  16.969  0.00  0.00    +0.000 OA
ENDBRANCH  35  36
ENDBRANCH  29  30
ENDBRANCH  14  29
TORSDOF 8
ENDMDL
MODEL 9
REMARK VINA RESULT:      -6.5      4.107      7.172
REMARK  Name = 
REMARK  11 active torsions:
REMARK  status: ('A' for Active; 'I' for Inactive)
REMARK    1  A    between atoms: C_1  and  C_2
REMARK    2  A    between atoms: C_2  and  O_3
REMARK    3  A    between atoms: O_3  and  C_4
REMARK    4  A    between atoms: C_6  and  C_7
REMARK    5  A    between atoms: N_8  and  N_9
REMARK    6  A    between atoms: N_16  and  C_17
REMARK    7  A    between atoms: N_20  and  C_21
REMARK    8  A    between atoms: N_22  and  C_23
REMARK    9  A    between atoms: C_23  and  C_24
REMARK   10  A    between atoms: C_29  and  N_30
REMARK   11  A    between atoms: C_35  and  O_36
REMARK                            x       y       z     vdW  Elec       q    Type
REMARK                         _______ _______ _______ _____ _____    ______ ____
ROOT
ATOM      1  N   UNL     1       0.579   9.383  17.662  0.00  0.00    +0.000 N 
ATOM      2  C   UNL     1      -0.615  10.017  17.757  0.00  0.00    +0.000 A 
ATOM      3  N   UNL     1      -1.546   9.997  16.822  0.00  0.00    +0.000 NA
ATOM      4  C   UNL     1      -2.580  10.708  17.337  0.00  0.00    +0.000 A 
ATOM      5  C   UNL     1      -2.322  11.161  18.593  0.00  0.00    +0.000 A 
ATOM      6  C   UNL     1      -3.265  11.912  19.349  0.00  0.00    +0.000 A 
ATOM      7  O   UNL     1      -3.048  12.306  20.490  0.00  0.00    +0.000 OA
ATOM      8  N   UNL     1      -4.457  12.150  18.651  0.00  0.00    +0.000 N 
ATOM      9  C   UNL     1      -5.490  12.933  19.299  0.00  0.00    +0.000 C 
ATOM     10  C   UNL     1      -4.760  11.693  17.350  0.00  0.00    +0.000 A 
ATOM     11  O   UNL     1      -5.843  11.942  16.822  0.00  0.00    +0.000 OA
ATOM     12  N   UNL     1      -3.774  10.951  16.701  0.00  0.00    +0.000 N 
ATOM     13  C   UNL     1      -4.000  10.436  15.362  0.00  0.00    +0.000 C 
ATOM     14  N   UNL     1      -1.041  10.729  18.871  0.00  0.00    +0.000 N 
ATOM     15  H   UNL     1       0.725   8.998  16.726  0.00  0.00    +0.000 HD
ENDROOT
BRANCH   1  17
ATOM     16  C   UNL     1       2.701   8.991  18.388  0.00  0.00    +0.000 C 
ATOM     17  N   UNL     1       1.709   9.826  18.265  0.00  0.00    +0.000 NA
BRANCH  16  20
ATOM     18  C   UNL     1       4.165   5.741  17.239  0.00  0.00    +0.000 A 
ATOM     19  C   UNL     1       3.905   7.106  17.401  0.00  0.00    +0.000 A 
ATOM     20  C   UNL     1       2.783   7.538  18.116  0.00  0.00    +0.000 A 
ATOM     21  C   UNL     1       1.896   6.600  18.647  0.00  0.00    +0.000 A 
ATOM     22  C   UNL     1       2.103   5.236  18.418  0.00  0.00    +0.000 A 
ATOM     23  C   UNL     1       3.232   4.813  17.714  0.00  0.00    +0.000 A 
BRANCH  23  24
ATOM     24  O   UNL     1       3.455   3.476  17.524  0.00  0.00    +0.000 OA
ATOM     25  H   UNL     1       2.673   2.978  17.805  0.00  0.00    +0.000 HD
ENDBRANCH  23  24
BRANCH  18  26
ATOM     26  O   UNL     1       5.317   5.259  16.663  0.00  0.00    +0.000 OA
BRANCH  26  28
ATOM     27  C   UNL     1       5.998   4.512  14.466  0.00  0.00    +0.000 C 
ATOM     28  C   UNL     1       5.521   5.680  15.310  0.00  0.00    +0.000 C 
ENDBRANCH  26  28
ENDBRANCH  18  26
ENDBRANCH  16  20
ENDBRANCH   1  17
BRANCH  14  29
ATOM     29  C   UNL     1      -0.332  10.884  20.143  0.00  0.00    +0.000 C 
BRANCH  29  30
ATOM     30  C   UNL     1       0.208  12.277  20.443  0.00  0.00    +0.000 A 
ATOM     31  C   UNL     1       0.966  12.981  19.482  0.00  0.00    +0.000 A 
ATOM     32  C   UNL     1       1.441  14.277  19.714  0.00  0.00    +0.000 A 
ATOM     33  C   UNL     1       1.176  14.916  20.915  0.00  0.00    +0.000 A 
ATOM     34  C   UNL     1       0.453  14.251  21.901  0.00  0.00    +0.000 A 
ATOM     35  C   UNL     1      -0.024  12.938  21.680  0.00  0.00    +0.000 A 
BRANCH  35  36
ATOM     36  N   UNL     1      -0.738  12.306  22.815  0.00  0.00    +0.000 N 
ATOM     37  O   UNL     1      -0.398  11.171  23.174  0.00  0.00    +0.000 OA
ATOM     38  O   UNL     1      -1.634  12.959  23.369  0.00  0.00    +0.000 OA
ENDBRANCH  35  36
ENDBRANCH  29  30
ENDBRANCH  14  29
TORSDOF 8
ENDMDL
