MODEL 1
REMARK VINA RESULT:      -9.3      0.000      0.000
REMARK  Name = 
REMARK  4 active torsions:
REMARK  status: ('A' for Active; 'I' for Inactive)
REMARK    1  A    between atoms: C_1  and  C_2
REMARK    2  A    between atoms: C_6  and  C_7
REMARK    3  A    between atoms: N_9  and  C_10
REMARK    4  A    between atoms: C_14  and  C_15
REMARK                            x       y       z     vdW  Elec       q    Type
REMARK                         _______ _______ _______ _____ _____    ______ ____
ROOT
ATOM      1  C   UNL     1       4.147   4.453  17.578  0.00  0.00    +0.000 A 
ATOM      2  C   UNL     1       4.262   3.551  18.639  0.00  0.00    +0.000 A 
ATOM      3  C   UNL     1       3.642   3.810  19.854  0.00  0.00    +0.000 A 
ATOM      4  C   UNL     1       2.935   4.996  20.036  0.00  0.00    +0.000 A 
ATOM      5  C   UNL     1       2.855   5.962  19.016  0.00  0.00    +0.000 A 
ATOM      6  C   UNL     1       3.431   5.641  17.771  0.00  0.00    +0.000 A 
ENDROOT
BRANCH   5   7
ATOM      7  C   UNL     1       2.288   7.306  19.255  0.00  0.00    +0.000 A 
ATOM      8  C   UNL     1       2.118   8.232  18.231  0.00  0.00    +0.000 A 
ATOM      9  N   UNL     1       1.509   9.427  18.391  0.00  0.00    +0.000 NA
ATOM     10  C   UNL     1       0.989   9.661  19.603  0.00  0.00    +0.000 A 
ATOM     11  C   UNL     1       0.274  10.831  19.799  0.00  0.00    +0.000 A 
ATOM     12  C   UNL     1      -0.390  11.078  20.998  0.00  0.00    +0.000 A 
ATOM     13  C   UNL     1      -0.306  10.148  22.027  0.00  0.00    +0.000 A 
ATOM     14  C   UNL     1       0.464   8.994  21.859  0.00  0.00    +0.000 A 
ATOM     15  C   UNL     1       1.111   8.723  20.658  0.00  0.00    +0.000 A 
ATOM     16  N   UNL     1       1.790   7.565  20.494  0.00  0.00    +0.000 NA
ENDBRANCH   5   7
BRANCH   1  19
ATOM     17  C   UNL     1       5.969   4.791  15.915  0.00  0.00    +0.000 C 
ATOM     18  O   UNL     1       6.750   5.440  16.601  0.00  0.00    +0.000 OA
ATOM     19  N   UNL     1       4.761   4.256  16.321  0.00  0.00    +0.000 N 
ATOM     20  H   UNL     1       4.307   3.602  15.697  0.00  0.00    +0.000 HD
BRANCH  17  26
ATOM     21  C   UNL     1       5.292   2.489  11.477  0.00  0.00    +0.000 C 
ATOM     22  C   UNL     1       6.049   3.435  12.362  0.00  0.00    +0.000 A 
ATOM     23  C   UNL     1       7.118   4.185  11.851  0.00  0.00    +0.000 A 
ATOM     24  C   UNL     1       7.807   5.085  12.661  0.00  0.00    +0.000 A 
ATOM     25  C   UNL     1       7.431   5.247  13.990  0.00  0.00    +0.000 A 
ATOM     26  C   UNL     1       6.369   4.505  14.518  0.00  0.00    +0.000 A 
ATOM     27  C   UNL     1       5.677   3.596  13.706  0.00  0.00    +0.000 A 
ENDBRANCH  17  26
ENDBRANCH   1  19
TORSDOF 3
ENDMDL
MODEL 2
REMARK VINA RESULT:      -8.9      1.414      8.880
REMARK  Name = 
REMARK  4 active torsions:
REMARK  status: ('A' for Active; 'I' for Inactive)
REMARK    1  A    between atoms: C_1  and  C_2
REMARK    2  A    between atoms: C_6  and  C_7
REMARK    3  A    between atoms: N_9  and  C_10
REMARK    4  A    between atoms: C_14  and  C_15
REMARK                            x       y       z     vdW  Elec       q    Type
REMARK                         _______ _______ _______ _____ _____    ______ ____
ROOT
ATOM      1  C   UNL     1       3.211   5.558  19.554  0.00  0.00    +0.000 A 
ATOM      2  C   UNL     1       3.175   4.294  20.149  0.00  0.00    +0.000 A 
ATOM      3  C   UNL     1       3.983   3.269  19.674  0.00  0.00    +0.000 A 
ATOM      4  C   UNL     1       4.806   3.484  18.572  0.00  0.00    +0.000 A 
ATOM      5  C   UNL     1       4.819   4.722  17.901  0.00  0.00    +0.000 A 
ATOM      6  C   UNL     1       4.044   5.764  18.447  0.00  0.00    +0.000 A 
ENDROOT
BRANCH   5   7
ATOM      7  C   UNL     1       5.525   4.907  16.616  0.00  0.00    +0.000 A 
ATOM      8  C   UNL     1       6.747   5.566  16.529  0.00  0.00    +0.000 A 
ATOM      9  N   UNL     1       7.471   5.663  15.393  0.00  0.00    +0.000 NA
ATOM     10  C   UNL     1       6.981   5.009  14.331  0.00  0.00    +0.000 A 
ATOM     11  C   UNL     1       7.727   4.997  13.164  0.00  0.00    +0.000 A 
ATOM     12  C   UNL     1       7.332   4.240  12.064  0.00  0.00    +0.000 A 
ATOM     13  C   UNL     1       6.153   3.508  12.128  0.00  0.00    +0.000 A 
ATOM     14  C   UNL     1       5.363   3.564  13.280  0.00  0.00    +0.000 A 
ATOM     15  C   UNL     1       5.758   4.296  14.395  0.00  0.00    +0.000 A 
ATOM     16  N   UNL     1       5.016   4.275  15.524  0.00  0.00    +0.000 NA
ENDBRANCH   5   7
BRANCH   1  19
ATOM     17  C   UNL     1       2.112   7.769  19.240  0.00  0.00    +0.000 C 
ATOM     18  O   UNL     1       2.410   7.979  18.070  0.00  0.00    +0.000 OA
ATOM     19  N   UNL     1       2.409   6.639  19.979  0.00  0.00    +0.000 N 
ATOM     20  H   UNL     1       1.952   6.535  20.876  0.00  0.00    +0.000 HD
BRANCH  17  26
ATOM     21  C   UNL     1      -0.168   9.630  23.339  0.00  0.00    +0.000 C 
ATOM     22  C   UNL     1       0.234   9.740  21.898  0.00  0.00    +0.000 A 
ATOM     23  C   UNL     1      -0.042  10.907  21.171  0.00  0.00    +0.000 A 
ATOM     24  C   UNL     1       0.352  11.026  19.840  0.00  0.00    +0.000 A 
ATOM     25  C   UNL     1       1.031   9.980  19.224  0.00  0.00    +0.000 A 
ATOM     26  C   UNL     1       1.312   8.806  19.932  0.00  0.00    +0.000 A 
ATOM     27  C   UNL     1       0.913   8.683  21.271  0.00  0.00    +0.000 A 
ENDBRANCH  17  26
ENDBRANCH   1  19
TORSDOF 3
ENDMDL
MODEL 3
REMARK VINA RESULT:      -8.8      4.438      6.829
REMARK  Name = 
REMARK  4 active torsions:
REMARK  status: ('A' for Active; 'I' for Inactive)
REMARK    1  A    between atoms: C_1  and  C_2
REMARK    2  A    between atoms: C_6  and  C_7
REMARK    3  A    between atoms: N_9  and  C_10
REMARK    4  A    between atoms: C_14  and  C_15
REMARK                            x       y       z     vdW  Elec       q    Type
REMARK                         _______ _______ _______ _____ _____    ______ ____
ROOT
ATOM      1  C   UNL     1       6.831   6.574  16.514  0.00  0.00    +0.000 A 
ATOM      2  C   UNL     1       7.483   5.724  15.616  0.00  0.00    +0.000 A 
ATOM      3  C   UNL     1       6.920   4.505  15.265  0.00  0.00    +0.000 A 
ATOM      4  C   UNL     1       5.717   4.102  15.840  0.00  0.00    +0.000 A 
ATOM      5  C   UNL     1       5.065   4.897  16.801  0.00  0.00    +0.000 A 
ATOM      6  C   UNL     1       5.621   6.160  17.084  0.00  0.00    +0.000 A 
ENDROOT
BRANCH   5   7
ATOM      7  C   UNL     1       3.905   4.400  17.570  0.00  0.00    +0.000 A 
ATOM      8  C   UNL     1       2.946   3.562  17.008  0.00  0.00    +0.000 A 
ATOM      9  N   UNL     1       1.933   3.005  17.704  0.00  0.00    +0.000 NA
ATOM     10  C   UNL     1       1.931   3.240  19.023  0.00  0.00    +0.000 A 
ATOM     11  C   UNL     1       0.968   2.619  19.802  0.00  0.00    +0.000 A 
ATOM     12  C   UNL     1       0.983   2.728  21.190  0.00  0.00    +0.000 A 
ATOM     13  C   UNL     1       1.964   3.499  21.802  0.00  0.00    +0.000 A 
ATOM     14  C   UNL     1       2.902   4.178  21.020  0.00  0.00    +0.000 A 
ATOM     15  C   UNL     1       2.913   4.057  19.634  0.00  0.00    +0.000 A 
ATOM     16  N   UNL     1       3.876   4.664  18.904  0.00  0.00    +0.000 NA
ENDBRANCH   5   7
BRANCH   1  19
ATOM     17  C   UNL     1       8.074   8.061  18.076  0.00  0.00    +0.000 C 
ATOM     18  O   UNL     1       8.461   7.225  18.885  0.00  0.00    +0.000 OA
ATOM     19  N   UNL     1       7.353   7.821  16.921  0.00  0.00    +0.000 N 
ATOM     20  H   UNL     1       7.253   8.587  16.267  0.00  0.00    +0.000 HD
BRANCH  17  26
ATOM     21  C   UNL     1      10.777  11.588  20.467  0.00  0.00    +0.000 C 
ATOM     22  C   UNL     1       9.760  11.187  19.438  0.00  0.00    +0.000 A 
ATOM     23  C   UNL     1       9.202  12.146  18.580  0.00  0.00    +0.000 A 
ATOM     24  C   UNL     1       8.278  11.775  17.605  0.00  0.00    +0.000 A 
ATOM     25  C   UNL     1       7.906  10.441  17.476  0.00  0.00    +0.000 A 
ATOM     26  C   UNL     1       8.449   9.472  18.327  0.00  0.00    +0.000 A 
ATOM     27  C   UNL     1       9.376   9.843  19.310  0.00  0.00    +0.000 A 
ENDBRANCH  17  26
ENDBRANCH   1  19
TORSDOF 3
ENDMDL
MODEL 4
REMARK VINA RESULT:      -8.8      1.488      8.863
REMARK  Name = 
REMARK  4 active torsions:
REMARK  status: ('A' for Active; 'I' for Inactive)
REMARK    1  A    between atoms: C_1  and  C_2
REMARK    2  A    between atoms: C_6  and  C_7
REMARK    3  A    between atoms: N_9  and  C_10
REMARK    4  A    between atoms: C_14  and  C_15
REMARK                            x       y       z     vdW  Elec       q    Type
REMARK                         _______ _______ _______ _____ _____    ______ ____
ROOT
ATOM      1  C   UNL     1       3.137   5.428  19.706  0.00  0.00    +0.000 A 
ATOM      2  C   UNL     1       3.012   4.125  20.196  0.00  0.00    +0.000 A 
ATOM      3  C   UNL     1       3.759   3.092  19.646  0.00  0.00    +0.000 A 
ATOM      4  C   UNL     1       4.608   3.341  18.571  0.00  0.00    +0.000 A 
ATOM      5  C   UNL     1       4.708   4.625  18.003  0.00  0.00    +0.000 A 
ATOM      6  C   UNL     1       3.995   5.668  18.626  0.00  0.00    +0.000 A 
ENDROOT
BRANCH   5   7
ATOM      7  C   UNL     1       5.440   4.867  16.742  0.00  0.00    +0.000 A 
ATOM      8  C   UNL     1       6.633   5.582  16.702  0.00  0.00    +0.000 A 
ATOM      9  N   UNL     1       7.383   5.734  15.589  0.00  0.00    +0.000 NA
ATOM     10  C   UNL     1       6.954   5.079  14.502  0.00  0.00    +0.000 A 
ATOM     11  C   UNL     1       7.732   5.124  13.357  0.00  0.00    +0.000 A 
ATOM     12  C   UNL     1       7.403   4.371  12.232  0.00  0.00    +0.000 A 
ATOM     13  C   UNL     1       6.257   3.585  12.249  0.00  0.00    +0.000 A 
ATOM     14  C   UNL     1       5.434   3.583  13.379  0.00  0.00    +0.000 A 
ATOM     15  C   UNL     1       5.764   4.310  14.518  0.00  0.00    +0.000 A 
ATOM     16  N   UNL     1       4.991   4.234  15.625  0.00  0.00    +0.000 NA
ENDBRANCH   5   7
BRANCH   1  19
ATOM     17  C   UNL     1       2.033   7.650  19.503  0.00  0.00    +0.000 C 
ATOM     18  O   UNL     1       2.196   7.848  18.305  0.00  0.00    +0.000 OA
ATOM     19  N   UNL     1       2.400   6.521  20.212  0.00  0.00    +0.000 N 
ATOM     20  H   UNL     1       2.049   6.429  21.156  0.00  0.00    +0.000 HD
BRANCH  17  26
ATOM     21  C   UNL     1      -0.814  11.806  19.785  0.00  0.00    +0.000 C 
ATOM     22  C   UNL     1      -0.068  10.680  20.439  0.00  0.00    +0.000 A 
ATOM     23  C   UNL     1      -0.109  10.514  21.831  0.00  0.00    +0.000 A 
ATOM     24  C   UNL     1       0.560   9.455  22.441  0.00  0.00    +0.000 A 
ATOM     25  C   UNL     1       1.273   8.548  21.664  0.00  0.00    +0.000 A 
ATOM     26  C   UNL     1       1.328   8.700  20.274  0.00  0.00    +0.000 A 
ATOM     27  C   UNL     1       0.659   9.767  19.659  0.00  0.00    +0.000 A 
ENDBRANCH  17  26
ENDBRANCH   1  19
TORSDOF 3
ENDMDL
MODEL 5
REMARK VINA RESULT:      -8.8      4.261      6.644
REMARK  Name = 
REMARK  4 active torsions:
REMARK  status: ('A' for Active; 'I' for Inactive)
REMARK    1  A    between atoms: C_1  and  C_2
REMARK    2  A    between atoms: C_6  and  C_7
REMARK    3  A    between atoms: N_9  and  C_10
REMARK    4  A    between atoms: C_14  and  C_15
REMARK                            x       y       z     vdW  Elec       q    Type
REMARK                         _______ _______ _______ _____ _____    ______ ____
ROOT
ATOM      1  C   UNL     1       6.731   6.520  16.482  0.00  0.00    +0.000 A 
ATOM      2  C   UNL     1       7.335   5.653  15.567  0.00  0.00    +0.000 A 
ATOM      3  C   UNL     1       6.726   4.451  15.229  0.00  0.00    +0.000 A 
ATOM      4  C   UNL     1       5.527   4.083  15.834  0.00  0.00    +0.000 A 
ATOM      5  C   UNL     1       4.923   4.895  16.812  0.00  0.00    +0.000 A 
ATOM      6  C   UNL     1       5.524   6.140  17.083  0.00  0.00    +0.000 A 
ENDROOT
BRANCH   5   7
ATOM      7  C   UNL     1       3.769   4.430  17.609  0.00  0.00    +0.000 A 
ATOM      8  C   UNL     1       2.712   3.724  17.043  0.00  0.00    +0.000 A 
ATOM      9  N   UNL     1       1.694   3.194  17.754  0.00  0.00    +0.000 NA
ATOM     10  C   UNL     1       1.786   3.316  19.085  0.00  0.00    +0.000 A 
ATOM     11  C   UNL     1       0.817   2.713  19.870  0.00  0.00    +0.000 A 
ATOM     12  C   UNL     1       0.918   2.702  21.259  0.00  0.00    +0.000 A 
ATOM     13  C   UNL     1       1.994   3.336  21.869  0.00  0.00    +0.000 A 
ATOM     14  C   UNL     1       2.943   4.000  21.086  0.00  0.00    +0.000 A 
ATOM     15  C   UNL     1       2.867   3.997  19.697  0.00  0.00    +0.000 A 
ATOM     16  N   UNL     1       3.837   4.582  18.959  0.00  0.00    +0.000 NA
ENDBRANCH   5   7
BRANCH   1  19
ATOM     17  C   UNL     1       8.037   7.970  18.027  0.00  0.00    +0.000 C 
ATOM     18  O   UNL     1       8.400   7.126  18.838  0.00  0.00    +0.000 OA
ATOM     19  N   UNL     1       7.300   7.750  16.878  0.00  0.00    +0.000 N 
ATOM     20  H   UNL     1       7.222   8.514  16.220  0.00  0.00    +0.000 HD
BRANCH  17  26
ATOM     21  C   UNL     1       7.751  12.926  17.121  0.00  0.00    +0.000 C 
ATOM     22  C   UNL     1       8.324  11.761  17.873  0.00  0.00    +0.000 A 
ATOM     23  C   UNL     1       9.220  11.970  18.931  0.00  0.00    +0.000 A 
ATOM     24  C   UNL     1       9.735  10.893  19.650  0.00  0.00    +0.000 A 
ATOM     25  C   UNL     1       9.354   9.596  19.321  0.00  0.00    +0.000 A 
ATOM     26  C   UNL     1       8.464   9.369  18.265  0.00  0.00    +0.000 A 
ATOM     27  C   UNL     1       7.948  10.450  17.538  0.00  0.00    +0.000 A 
ENDBRANCH  17  26
ENDBRANCH   1  19
TORSDOF 3
ENDMDL
MODEL 6
REMARK VINA RESULT:      -8.7      0.891      1.616
REMARK  Name = 
REMARK  4 active torsions:
REMARK  status: ('A' for Active; 'I' for Inactive)
REMARK    1  A    between atoms: C_1  and  C_2
REMARK    2  A    between atoms: C_6  and  C_7
REMARK    3  A    between atoms: N_9  and  C_10
REMARK    4  A    between atoms: C_14  and  C_15
REMARK                            x       y       z     vdW  Elec       q    Type
REMARK                         _______ _______ _______ _____ _____    ______ ____
ROOT
ATOM      1  C   UNL     1       4.079   4.101  17.646  0.00  0.00    +0.000 A 
ATOM      2  C   UNL     1       4.256   3.152  18.657  0.00  0.00    +0.000 A 
ATOM      3  C   UNL     1       3.636   3.313  19.890  0.00  0.00    +0.000 A 
ATOM      4  C   UNL     1       2.868   4.447  20.140  0.00  0.00    +0.000 A 
ATOM      5  C   UNL     1       2.724   5.460  19.173  0.00  0.00    +0.000 A 
ATOM      6  C   UNL     1       3.303   5.236  17.908  0.00  0.00    +0.000 A 
ENDROOT
BRANCH   5   7
ATOM      7  C   UNL     1       2.088   6.756  19.488  0.00  0.00    +0.000 A 
ATOM      8  C   UNL     1       1.560   7.038  20.743  0.00  0.00    +0.000 A 
ATOM      9  N   UNL     1       1.067   8.244  21.099  0.00  0.00    +0.000 NA
ATOM     10  C   UNL     1       1.179   9.214  20.183  0.00  0.00    +0.000 A 
ATOM     11  C   UNL     1       0.773  10.494  20.526  0.00  0.00    +0.000 A 
ATOM     12  C   UNL     1       0.972  11.569  19.663  0.00  0.00    +0.000 A 
ATOM     13  C   UNL     1       1.560  11.347  18.423  0.00  0.00    +0.000 A 
ATOM     14  C   UNL     1       1.916  10.050  18.045  0.00  0.00    +0.000 A 
ATOM     15  C   UNL     1       1.746   8.972  18.907  0.00  0.00    +0.000 A 
ATOM     16  N   UNL     1       2.166   7.737  18.549  0.00  0.00    +0.000 NA
ENDBRANCH   5   7
BRANCH   1  19
ATOM     17  C   UNL     1       5.950   4.461  16.044  0.00  0.00    +0.000 C 
ATOM     18  O   UNL     1       6.783   4.934  16.808  0.00  0.00    +0.000 OA
ATOM     19  N   UNL     1       4.688   4.004  16.376  0.00  0.00    +0.000 N 
ATOM     20  H   UNL     1       4.180   3.485  15.672  0.00  0.00    +0.000 HD
BRANCH  17  26
ATOM     21  C   UNL     1       5.266   2.575  11.413  0.00  0.00    +0.000 C 
ATOM     22  C   UNL     1       6.015   3.448  12.377  0.00  0.00    +0.000 A 
ATOM     23  C   UNL     1       7.065   4.263  11.929  0.00  0.00    +0.000 A 
ATOM     24  C   UNL     1       7.747   5.095  12.815  0.00  0.00    +0.000 A 
ATOM     25  C   UNL     1       7.383   5.124  14.156  0.00  0.00    +0.000 A 
ATOM     26  C   UNL     1       6.340   4.315  14.622  0.00  0.00    +0.000 A 
ATOM     27  C   UNL     1       5.655   3.474  13.734  0.00  0.00    +0.000 A 
ENDBRANCH  17  26
ENDBRANCH   1  19
TORSDOF 3
ENDMDL
MODEL 7
REMARK VINA RESULT:      -8.4      4.532      7.069
REMARK  Name = 
REMARK  4 active torsions:
REMARK  status: ('A' for Active; 'I' for Inactive)
REMARK    1  A    between atoms: C_1  and  C_2
REMARK    2  A    between atoms: C_6  and  C_7
REMARK    3  A    between atoms: N_9  and  C_10
REMARK    4  A    between atoms: C_14  and  C_15
REMARK                            x       y       z     vdW  Elec       q    Type
REMARK                         _______ _______ _______ _____ _____    ______ ____
ROOT
ATOM      1  C   UNL     1       6.955   6.643  16.642  0.00  0.00    +0.000 A 
ATOM      2  C   UNL     1       7.376   5.970  15.492  0.00  0.00    +0.000 A 
ATOM      3  C   UNL     1       6.855   4.722  15.177  0.00  0.00    +0.000 A 
ATOM      4  C   UNL     1       5.939   4.113  16.031  0.00  0.00    +0.000 A 
ATOM      5  C   UNL     1       5.543   4.727  17.235  0.00  0.00    +0.000 A 
ATOM      6  C   UNL     1       6.032   6.024  17.493  0.00  0.00    +0.000 A 
ENDROOT
BRANCH   5   7
ATOM      7  C   UNL     1       4.737   4.015  18.247  0.00  0.00    +0.000 A 
ATOM      8  C   UNL     1       5.317   3.276  19.272  0.00  0.00    +0.000 A 
ATOM      9  N   UNL     1       4.618   2.699  20.274  0.00  0.00    +0.000 NA
ATOM     10  C   UNL     1       3.301   2.940  20.281  0.00  0.00    +0.000 A 
ATOM     11  C   UNL     1       2.547   2.450  21.335  0.00  0.00    +0.000 A 
ATOM     12  C   UNL     1       1.196   2.765  21.463  0.00  0.00    +0.000 A 
ATOM     13  C   UNL     1       0.587   3.559  20.499  0.00  0.00    +0.000 A 
ATOM     14  C   UNL     1       1.326   4.006  19.400  0.00  0.00    +0.000 A 
ATOM     15  C   UNL     1       2.681   3.720  19.273  0.00  0.00    +0.000 A 
ATOM     16  N   UNL     1       3.393   4.226  18.240  0.00  0.00    +0.000 NA
ENDBRANCH   5   7
BRANCH   1  19
ATOM     17  C   UNL     1       8.190   8.179  18.163  0.00  0.00    +0.000 C 
ATOM     18  O   UNL     1       8.617   7.363  18.972  0.00  0.00    +0.000 OA
ATOM     19  N   UNL     1       7.452   7.908  17.026  0.00  0.00    +0.000 N 
ATOM     20  H   UNL     1       7.317   8.664  16.367  0.00  0.00    +0.000 HD
BRANCH  17  26
ATOM     21  C   UNL     1      10.706  11.814  20.595  0.00  0.00    +0.000 C 
ATOM     22  C   UNL     1       9.755  11.368  19.524  0.00  0.00    +0.000 A 
ATOM     23  C   UNL     1       9.234  12.293  18.607  0.00  0.00    +0.000 A 
ATOM     24  C   UNL     1       8.371  11.880  17.594  0.00  0.00    +0.000 A 
ATOM     25  C   UNL     1       8.025  10.538  17.484  0.00  0.00    +0.000 A 
ATOM     26  C   UNL     1       8.532   9.602  18.392  0.00  0.00    +0.000 A 
ATOM     27  C   UNL     1       9.397  10.015  19.415  0.00  0.00    +0.000 A 
ENDBRANCH  17  26
ENDBRANCH   1  19
TORSDOF 3
ENDMDL
MODEL 8
REMARK VINA RESULT:      -8.4      1.283      1.782
REMARK  Name = 
REMARK  4 active torsions:
REMARK  status: ('A' for Active; 'I' for Inactive)
REMARK    1  A    between atoms: C_1  and  C_2
REMARK    2  A    between atoms: C_6  and  C_7
REMARK    3  A    between atoms: N_9  and  C_10
REMARK    4  A    between atoms: C_14  and  C_15
REMARK                            x       y       z     vdW  Elec       q    Type
REMARK                         _______ _______ _______ _____ _____    ______ ____
ROOT
ATOM      1  C   UNL     1       3.355   5.379  18.659  0.00  0.00    +0.000 A 
ATOM      2  C   UNL     1       3.187   4.350  19.589  0.00  0.00    +0.000 A 
ATOM      3  C   UNL     1       2.364   4.527  20.693  0.00  0.00    +0.000 A 
ATOM      4  C   UNL     1       1.732   5.750  20.903  0.00  0.00    +0.000 A 
ATOM      5  C   UNL     1       1.932   6.834  20.027  0.00  0.00    +0.000 A 
ATOM      6  C   UNL     1       2.714   6.604  18.878  0.00  0.00    +0.000 A 
ENDROOT
BRANCH   5   7
ATOM      7  C   UNL     1       1.439   8.191  20.340  0.00  0.00    +0.000 A 
ATOM      8  C   UNL     1       1.396   9.203  19.386  0.00  0.00    +0.000 A 
ATOM      9  N   UNL     1       0.857  10.422  19.604  0.00  0.00    +0.000 NA
ATOM     10  C   UNL     1       0.276  10.598  20.799  0.00  0.00    +0.000 A 
ATOM     11  C   UNL     1      -0.373  11.797  21.045  0.00  0.00    +0.000 A 
ATOM     12  C   UNL     1      -1.095  11.997  22.219  0.00  0.00    +0.000 A 
ATOM     13  C   UNL     1      -1.139  10.988  23.173  0.00  0.00    +0.000 A 
ATOM     14  C   UNL     1      -0.435   9.799  22.959  0.00  0.00    +0.000 A 
ATOM     15  C   UNL     1       0.269   9.576  21.780  0.00  0.00    +0.000 A 
ATOM     16  N   UNL     1       0.880   8.390  21.563  0.00  0.00    +0.000 NA
ENDBRANCH   5   7
BRANCH   1  19
ATOM     17  C   UNL     1       4.572   4.091  16.911  0.00  0.00    +0.000 C 
ATOM     18  O   UNL     1       4.188   2.961  17.188  0.00  0.00    +0.000 OA
ATOM     19  N   UNL     1       4.185   5.269  17.522  0.00  0.00    +0.000 N 
ATOM     20  H   UNL     1       4.454   6.136  17.076  0.00  0.00    +0.000 HD
BRANCH  17  26
ATOM     21  C   UNL     1       5.914   3.253  12.119  0.00  0.00    +0.000 C 
ATOM     22  C   UNL     1       6.168   3.867  13.465  0.00  0.00    +0.000 A 
ATOM     23  C   UNL     1       7.275   4.705  13.665  0.00  0.00    +0.000 A 
ATOM     24  C   UNL     1       7.501   5.299  14.905  0.00  0.00    +0.000 A 
ATOM     25  C   UNL     1       6.621   5.064  15.956  0.00  0.00    +0.000 A 
ATOM     26  C   UNL     1       5.514   4.227  15.775  0.00  0.00    +0.000 A 
ATOM     27  C   UNL     1       5.286   3.626  14.529  0.00  0.00    +0.000 A 
ENDBRANCH  17  26
ENDBRANCH   1  19
TORSDOF 3
ENDMDL
MODEL 9
REMARK VINA RESULT:      -8.4      0.768      1.532
REMARK  Name = 
REMARK  4 active torsions:
REMARK  status: ('A' for Active; 'I' for Inactive)
REMARK    1  A    between atoms: C_1  and  C_2
REMARK    2  A    between atoms: C_6  and  C_7
REMARK    3  A    between atoms: N_9  and  C_10
REMARK    4  A    between atoms: C_14  and  C_15
REMARK                            x       y       z     vdW  Elec       q    Type
REMARK                         _______ _______ _______ _____ _____    ______ ____
ROOT
ATOM      1  C   UNL     1       3.656   4.676  17.928  0.00  0.00    +0.000 A 
ATOM      2  C   UNL     1       3.655   3.670  18.897  0.00  0.00    +0.000 A 
ATOM      3  C   UNL     1       3.003   3.860  20.109  0.00  0.00    +0.000 A 
ATOM      4  C   UNL     1       2.380   5.075  20.382  0.00  0.00    +0.000 A 
ATOM      5  C   UNL     1       2.419   6.138  19.460  0.00  0.00    +0.000 A 
ATOM      6  C   UNL     1       3.024   5.893  18.212  0.00  0.00    +0.000 A 
ENDROOT
BRANCH   5   7
ATOM      7  C   UNL     1       1.945   7.493  19.811  0.00  0.00    +0.000 A 
ATOM      8  C   UNL     1       1.843   8.511  18.868  0.00  0.00    +0.000 A 
ATOM      9  N   UNL     1       1.317   9.727  19.127  0.00  0.00    +0.000 NA
ATOM     10  C   UNL     1       0.811   9.895  20.356  0.00  0.00    +0.000 A 
ATOM     11  C   UNL     1       0.177  11.092  20.649  0.00  0.00    +0.000 A 
ATOM     12  C   UNL     1      -0.472  11.284  21.866  0.00  0.00    +0.000 A 
ATOM     13  C   UNL     1      -0.456  10.269  22.815  0.00  0.00    +0.000 A 
ATOM     14  C   UNL     1       0.234   9.082  22.550  0.00  0.00    +0.000 A 
ATOM     15  C   UNL     1       0.864   8.867  21.330  0.00  0.00    +0.000 A 
ATOM     16  N   UNL     1       1.462   7.683  21.068  0.00  0.00    +0.000 NA
ENDBRANCH   5   7
BRANCH   1  19
ATOM     17  C   UNL     1       5.650   4.779  16.442  0.00  0.00    +0.000 C 
ATOM     18  O   UNL     1       6.512   5.026  17.278  0.00  0.00    +0.000 OA
ATOM     19  N   UNL     1       4.308   4.553  16.681  0.00  0.00    +0.000 N 
ATOM     20  H   UNL     1       3.752   4.193  15.917  0.00  0.00    +0.000 HD
BRANCH  17  26
ATOM     21  C   UNL     1       8.804   5.866  12.656  0.00  0.00    +0.000 C 
ATOM     22  C   UNL     1       7.608   5.141  13.201  0.00  0.00    +0.000 A 
ATOM     23  C   UNL     1       6.915   4.217  12.405  0.00  0.00    +0.000 A 
ATOM     24  C   UNL     1       5.820   3.521  12.914  0.00  0.00    +0.000 A 
ATOM     25  C   UNL     1       5.410   3.740  14.225  0.00  0.00    +0.000 A 
ATOM     26  C   UNL     1       6.087   4.661  15.031  0.00  0.00    +0.000 A 
ATOM     27  C   UNL     1       7.187   5.365  14.521  0.00  0.00    +0.000 A 
ENDBRANCH  17  26
ENDBRANCH   1  19
TORSDOF 3
ENDMDL
