MODEL 1
REMARK VINA RESULT:      -6.2      0.000      0.000
REMARK  Name = 
REMARK  6 active torsions:
REMARK  status: ('A' for Active; 'I' for Inactive)
REMARK    1  A    between atoms: C_1  and  C_2
REMARK    2  A    between atoms: C_5  and  C_6
REMARK    3  A    between atoms: C_5  and  C_9
REMARK    4  A    between atoms: C_6  and  O_8
REMARK    5  A    between atoms: C_9  and  C_11
REMARK    6  A    between atoms: C_11  and  O_13
REMARK                            x       y       z     vdW  Elec       q    Type
REMARK                         _______ _______ _______ _____ _____    ______ ____
ROOT
ATOM      1  C   UNL     1       1.496   2.715  21.458  0.00  0.00    +0.000 C 
ATOM      2  C   UNL     1       1.098   3.581  20.258  0.00  0.00    +0.000 C 
ATOM      3  C   UNL     1       1.546   5.036  20.411  0.00  0.00    +0.000 C 
ATOM      4  C   UNL     1       3.055   5.228  20.252  0.00  0.00    +0.000 C 
ATOM      5  C   UNL     1       3.705   4.593  18.971  0.00  0.00    +0.000 C 
ATOM      6  C   UNL     1       3.170   3.131  18.862  0.00  0.00    +0.000 C 
ATOM      7  C   UNL     1       1.648   3.012  18.952  0.00  0.00    +0.000 C 
ENDROOT
BRANCH   5   8
ATOM      8  C   UNL     1       5.226   4.579  19.237  0.00  0.00    +0.000 C 
ATOM      9  O   UNL     1       5.833   5.528  19.715  0.00  0.00    +0.000 OA
BRANCH   8  10
ATOM     10  O   UNL     1       5.879   3.445  18.922  0.00  0.00    +0.000 OA
ATOM     11  H   UNL     1       6.358   3.439  18.061  0.00  0.00    +0.000 HD
ENDBRANCH   8  10
ENDBRANCH   5   8
BRANCH   5  12
ATOM     12  C   UNL     1       3.385   5.398  17.683  0.00  0.00    +0.000 C 
ATOM     13 BR   UNL     1       2.947   7.282  18.000  0.00  0.00    +0.000 Br
BRANCH  12  14
ATOM     14  C   UNL     1       4.502   5.410  16.635  0.00  0.00    +0.000 C 
ATOM     15  O   UNL     1       5.194   6.388  16.383  0.00  0.00    +0.000 OA
BRANCH  14  16
ATOM     16  O   UNL     1       4.712   4.222  16.030  0.00  0.00    +0.000 OA
ATOM     17  H   UNL     1       4.861   3.476  16.645  0.00  0.00    +0.000 HD
ENDBRANCH  14  16
ENDBRANCH  12  14
ENDBRANCH   5  12
TORSDOF 5
ENDMDL
MODEL 2
REMARK VINA RESULT:      -6.2      2.700      4.653
REMARK  Name = 
REMARK  6 active torsions:
REMARK  status: ('A' for Active; 'I' for Inactive)
REMARK    1  A    between atoms: C_1  and  C_2
REMARK    2  A    between atoms: C_5  and  C_6
REMARK    3  A    between atoms: C_5  and  C_9
REMARK    4  A    between atoms: C_6  and  O_8
REMARK    5  A    between atoms: C_9  and  C_11
REMARK    6  A    between atoms: C_11  and  O_13
REMARK                            x       y       z     vdW  Elec       q    Type
REMARK                         _______ _______ _______ _____ _____    ______ ____
ROOT
ATOM      1  C   UNL     1       5.547   5.214  16.390  0.00  0.00    +0.000 C 
ATOM      2  C   UNL     1       5.171   5.730  17.784  0.00  0.00    +0.000 C 
ATOM      3  C   UNL     1       3.704   6.154  17.875  0.00  0.00    +0.000 C 
ATOM      4  C   UNL     1       2.728   4.976  17.873  0.00  0.00    +0.000 C 
ATOM      5  C   UNL     1       3.024   3.826  18.901  0.00  0.00    +0.000 C 
ATOM      6  C   UNL     1       4.541   3.480  18.776  0.00  0.00    +0.000 C 
ATOM      7  C   UNL     1       5.470   4.692  18.863  0.00  0.00    +0.000 C 
ENDROOT
BRANCH   5   8
ATOM      8  C   UNL     1       2.170   2.625  18.442  0.00  0.00    +0.000 C 
ATOM      9  O   UNL     1       0.972   2.703  18.208  0.00  0.00    +0.000 OA
BRANCH   8  10
ATOM     10  O   UNL     1       2.814   1.452  18.296  0.00  0.00    +0.000 OA
ATOM     11  H   UNL     1       2.550   0.727  18.908  0.00  0.00    +0.000 HD
ENDBRANCH   8  10
ENDBRANCH   5   8
BRANCH   5  12
ATOM     12  C   UNL     1       2.665   4.226  20.357  0.00  0.00    +0.000 C 
ATOM     13 BR   UNL     1       1.263   5.589  20.493  0.00  0.00    +0.000 Br
BRANCH  12  14
ATOM     14  C   UNL     1       2.197   3.070  21.246  0.00  0.00    +0.000 C 
ATOM     15  O   UNL     1       2.947   2.378  21.923  0.00  0.00    +0.000 OA
BRANCH  14  16
ATOM     16  O   UNL     1       0.859   2.895  21.274  0.00  0.00    +0.000 OA
ATOM     17  H   UNL     1       0.366   3.440  20.628  0.00  0.00    +0.000 HD
ENDBRANCH  14  16
ENDBRANCH  12  14
ENDBRANCH   5  12
TORSDOF 5
ENDMDL
MODEL 3
REMARK VINA RESULT:      -6.1      1.586      1.943
REMARK  Name = 
REMARK  6 active torsions:
REMARK  status: ('A' for Active; 'I' for Inactive)
REMARK    1  A    between atoms: C_1  and  C_2
REMARK    2  A    between atoms: C_5  and  C_6
REMARK    3  A    between atoms: C_5  and  C_9
REMARK    4  A    between atoms: C_6  and  O_8
REMARK    5  A    between atoms: C_9  and  C_11
REMARK    6  A    between atoms: C_11  and  O_13
REMARK                            x       y       z     vdW  Elec       q    Type
REMARK                         _______ _______ _______ _____ _____    ______ ____
ROOT
ATOM      1  C   UNL     1       1.398   3.156  19.418  0.00  0.00    +0.000 C 
ATOM      2  C   UNL     1       1.618   3.655  17.985  0.00  0.00    +0.000 C 
ATOM      3  C   UNL     1       1.995   5.137  17.932  0.00  0.00    +0.000 C 
ATOM      4  C   UNL     1       3.416   5.421  18.420  0.00  0.00    +0.000 C 
ATOM      5  C   UNL     1       4.557   4.550  17.784  0.00  0.00    +0.000 C 
ATOM      6  C   UNL     1       4.083   3.064  17.838  0.00  0.00    +0.000 C 
ATOM      7  C   UNL     1       2.684   2.832  17.265  0.00  0.00    +0.000 C 
ENDROOT
BRANCH   5   8
ATOM      8  C   UNL     1       5.789   4.744  18.695  0.00  0.00    +0.000 C 
ATOM      9  O   UNL     1       5.835   5.572  19.595  0.00  0.00    +0.000 OA
BRANCH   8  10
ATOM     10  O   UNL     1       6.840   3.935  18.462  0.00  0.00    +0.000 OA
ATOM     11  H   UNL     1       6.852   3.080  18.950  0.00  0.00    +0.000 HD
ENDBRANCH   8  10
ENDBRANCH   5   8
BRANCH   5  12
ATOM     12  C   UNL     1       4.885   4.975  16.328  0.00  0.00    +0.000 C 
ATOM     13 BR   UNL     1       4.973   6.914  16.056  0.00  0.00    +0.000 Br
BRANCH  12  14
ATOM     14  C   UNL     1       6.205   4.427  15.778  0.00  0.00    +0.000 C 
ATOM     15  O   UNL     1       7.221   5.096  15.638  0.00  0.00    +0.000 OA
BRANCH  14  16
ATOM     16  O   UNL     1       6.188   3.106  15.500  0.00  0.00    +0.000 OA
ATOM     17  H   UNL     1       5.342   2.660  15.706  0.00  0.00    +0.000 HD
ENDBRANCH  14  16
ENDBRANCH  12  14
ENDBRANCH   5  12
TORSDOF 5
ENDMDL
MODEL 4
REMARK VINA RESULT:      -6.0      1.308      1.658
REMARK  Name = 
REMARK  6 active torsions:
REMARK  status: ('A' for Active; 'I' for Inactive)
REMARK    1  A    between atoms: C_1  and  C_2
REMARK    2  A    between atoms: C_5  and  C_6
REMARK    3  A    between atoms: C_5  and  C_9
REMARK    4  A    between atoms: C_6  and  O_8
REMARK    5  A    between atoms: C_9  and  C_11
REMARK    6  A    between atoms: C_11  and  O_13
REMARK                            x       y       z     vdW  Elec       q    Type
REMARK                         _______ _______ _______ _____ _____    ______ ____
ROOT
ATOM      1  C   UNL     1       1.945   2.021  19.276  0.00  0.00    +0.000 C 
ATOM      2  C   UNL     1       1.693   3.187  18.312  0.00  0.00    +0.000 C 
ATOM      3  C   UNL     1       1.856   4.550  18.986  0.00  0.00    +0.000 C 
ATOM      4  C   UNL     1       3.311   4.908  19.291  0.00  0.00    +0.000 C 
ATOM      5  C   UNL     1       4.327   4.768  18.101  0.00  0.00    +0.000 C 
ATOM      6  C   UNL     1       4.071   3.375  17.443  0.00  0.00    +0.000 C 
ATOM      7  C   UNL     1       2.607   3.108  17.091  0.00  0.00    +0.000 C 
ENDROOT
BRANCH   5   8
ATOM      8  C   UNL     1       5.730   4.798  18.744  0.00  0.00    +0.000 C 
ATOM      9  O   UNL     1       6.049   5.584  19.624  0.00  0.00    +0.000 OA
BRANCH   8  10
ATOM     10  O   UNL     1       6.616   3.891  18.290  0.00  0.00    +0.000 OA
ATOM     11  H   UNL     1       7.377   3.688  18.881  0.00  0.00    +0.000 HD
ENDBRANCH   8  10
ENDBRANCH   5   8
BRANCH   5  12
ATOM     12  C   UNL     1       4.180   5.909  17.059  0.00  0.00    +0.000 C 
ATOM     13 BR   UNL     1       3.451   7.576  17.790  0.00  0.00    +0.000 Br
BRANCH  12  14
ATOM     14  C   UNL     1       5.478   6.308  16.353  0.00  0.00    +0.000 C 
ATOM     15  O   UNL     1       5.854   5.832  15.288  0.00  0.00    +0.000 OA
BRANCH  14  16
ATOM     16  O   UNL     1       6.173   7.284  16.973  0.00  0.00    +0.000 OA
ATOM     17  H   UNL     1       6.181   7.218  17.948  0.00  0.00    +0.000 HD
ENDBRANCH  14  16
ENDBRANCH  12  14
ENDBRANCH   5  12
TORSDOF 5
ENDMDL
MODEL 5
REMARK VINA RESULT:      -5.9      2.753      4.668
REMARK  Name = 
REMARK  6 active torsions:
REMARK  status: ('A' for Active; 'I' for Inactive)
REMARK    1  A    between atoms: C_1  and  C_2
REMARK    2  A    between atoms: C_5  and  C_6
REMARK    3  A    between atoms: C_5  and  C_9
REMARK    4  A    between atoms: C_6  and  O_8
REMARK    5  A    between atoms: C_9  and  C_11
REMARK    6  A    between atoms: C_11  and  O_13
REMARK                            x       y       z     vdW  Elec       q    Type
REMARK                         _______ _______ _______ _____ _____    ______ ____
ROOT
ATOM      1  C   UNL     1       5.296   5.365  16.315  0.00  0.00    +0.000 C 
ATOM      2  C   UNL     1       4.751   5.856  17.661  0.00  0.00    +0.000 C 
ATOM      3  C   UNL     1       3.225   5.789  17.735  0.00  0.00    +0.000 C 
ATOM      4  C   UNL     1       2.683   4.364  17.854  0.00  0.00    +0.000 C 
ATOM      5  C   UNL     1       3.318   3.470  18.978  0.00  0.00    +0.000 C 
ATOM      6  C   UNL     1       4.868   3.622  18.863  0.00  0.00    +0.000 C 
ATOM      7  C   UNL     1       5.353   5.072  18.826  0.00  0.00    +0.000 C 
ENDROOT
BRANCH   5   8
ATOM      8  C   UNL     1       2.905   2.020  18.643  0.00  0.00    +0.000 C 
ATOM      9  O   UNL     1       3.698   1.090  18.594  0.00  0.00    +0.000 OA
BRANCH   8  10
ATOM     10  O   UNL     1       1.597   1.809  18.406  0.00  0.00    +0.000 OA
ATOM     11  H   UNL     1       0.966   2.189  19.061  0.00  0.00    +0.000 HD
ENDBRANCH   8  10
ENDBRANCH   5   8
BRANCH   5  12
ATOM     12  C   UNL     1       2.827   3.862  20.397  0.00  0.00    +0.000 C 
ATOM     13 BR   UNL     1       1.061   4.713  20.429  0.00  0.00    +0.000 Br
BRANCH  12  14
ATOM     14  C   UNL     1       2.738   2.702  21.392  0.00  0.00    +0.000 C 
ATOM     15  O   UNL     1       1.705   2.356  21.952  0.00  0.00    +0.000 OA
BRANCH  14  16
ATOM     16  O   UNL     1       3.896   2.034  21.575  0.00  0.00    +0.000 OA
ATOM     17  H   UNL     1       3.911   1.136  21.187  0.00  0.00    +0.000 HD
ENDBRANCH  14  16
ENDBRANCH  12  14
ENDBRANCH   5  12
TORSDOF 5
ENDMDL
MODEL 6
REMARK VINA RESULT:      -5.9      2.527      4.659
REMARK  Name = 
REMARK  6 active torsions:
REMARK  status: ('A' for Active; 'I' for Inactive)
REMARK    1  A    between atoms: C_1  and  C_2
REMARK    2  A    between atoms: C_5  and  C_6
REMARK    3  A    between atoms: C_5  and  C_9
REMARK    4  A    between atoms: C_6  and  O_8
REMARK    5  A    between atoms: C_9  and  C_11
REMARK    6  A    between atoms: C_11  and  O_13
REMARK                            x       y       z     vdW  Elec       q    Type
REMARK                         _______ _______ _______ _____ _____    ______ ____
ROOT
ATOM      1  C   UNL     1       5.443   5.909  15.362  0.00  0.00    +0.000 C 
ATOM      2  C   UNL     1       5.607   5.963  16.886  0.00  0.00    +0.000 C 
ATOM      3  C   UNL     1       4.414   6.622  17.580  0.00  0.00    +0.000 C 
ATOM      4  C   UNL     1       3.156   5.752  17.585  0.00  0.00    +0.000 C 
ATOM      5  C   UNL     1       3.333   4.277  18.096  0.00  0.00    +0.000 C 
ATOM      6  C   UNL     1       4.588   3.690  17.376  0.00  0.00    +0.000 C 
ATOM      7  C   UNL     1       5.834   4.571  17.472  0.00  0.00    +0.000 C 
ENDROOT
BRANCH   5   8
ATOM      8  C   UNL     1       2.064   3.522  17.643  0.00  0.00    +0.000 C 
ATOM      9  O   UNL     1       2.002   2.303  17.560  0.00  0.00    +0.000 OA
BRANCH   8  10
ATOM     10  O   UNL     1       0.992   4.279  17.342  0.00  0.00    +0.000 OA
ATOM     11  H   UNL     1       0.570   4.760  18.091  0.00  0.00    +0.000 HD
ENDBRANCH   8  10
ENDBRANCH   5   8
BRANCH   5  12
ATOM     12  C   UNL     1       3.492   4.199  19.638  0.00  0.00    +0.000 C 
ATOM     13 BR   UNL     1       1.941   4.856  20.641  0.00  0.00    +0.000 Br
BRANCH  12  14
ATOM     14  C   UNL     1       3.767   2.796  20.188  0.00  0.00    +0.000 C 
ATOM     15  O   UNL     1       4.873   2.270  20.203  0.00  0.00    +0.000 OA
BRANCH  14  16
ATOM     16  O   UNL     1       2.688   2.183  20.717  0.00  0.00    +0.000 OA
ATOM     17  H   UNL     1       2.031   1.880  20.058  0.00  0.00    +0.000 HD
ENDBRANCH  14  16
ENDBRANCH  12  14
ENDBRANCH   5  12
TORSDOF 5
ENDMDL
MODEL 7
REMARK VINA RESULT:      -5.9      2.539      4.576
REMARK  Name = 
REMARK  6 active torsions:
REMARK  status: ('A' for Active; 'I' for Inactive)
REMARK    1  A    between atoms: C_1  and  C_2
REMARK    2  A    between atoms: C_5  and  C_6
REMARK    3  A    between atoms: C_5  and  C_9
REMARK    4  A    between atoms: C_6  and  O_8
REMARK    5  A    between atoms: C_9  and  C_11
REMARK    6  A    between atoms: C_11  and  O_13
REMARK                            x       y       z     vdW  Elec       q    Type
REMARK                         _______ _______ _______ _____ _____    ______ ____
ROOT
ATOM      1  C   UNL     1       5.250   5.824  15.726  0.00  0.00    +0.000 C 
ATOM      2  C   UNL     1       5.206   6.091  17.235  0.00  0.00    +0.000 C 
ATOM      3  C   UNL     1       3.820   6.527  17.712  0.00  0.00    +0.000 C 
ATOM      4  C   UNL     1       2.795   5.391  17.721  0.00  0.00    +0.000 C 
ATOM      5  C   UNL     1       3.228   4.069  18.451  0.00  0.00    +0.000 C 
ATOM      6  C   UNL     1       4.661   3.715  17.943  0.00  0.00    +0.000 C 
ATOM      7  C   UNL     1       5.660   4.869  18.031  0.00  0.00    +0.000 C 
ENDROOT
BRANCH   5   8
ATOM      8  C   UNL     1       2.224   2.990  17.991  0.00  0.00    +0.000 C 
ATOM      9  O   UNL     1       1.027   3.201  17.855  0.00  0.00    +0.000 OA
BRANCH   8  10
ATOM     10  O   UNL     1       2.733   1.772  17.728  0.00  0.00    +0.000 OA
ATOM     11  H   UNL     1       3.646   1.748  17.360  0.00  0.00    +0.000 HD
ENDBRANCH   8  10
ENDBRANCH   5   8
BRANCH   5  12
ATOM     12  C   UNL     1       3.207   4.210  19.996  0.00  0.00    +0.000 C 
ATOM     13 BR   UNL     1       1.767   5.352  20.679  0.00  0.00    +0.000 Br
BRANCH  12  14
ATOM     14  C   UNL     1       3.078   2.891  20.762  0.00  0.00    +0.000 C 
ATOM     15  O   UNL     1       2.086   2.563  21.403  0.00  0.00    +0.000 OA
BRANCH  14  16
ATOM     16  O   UNL     1       4.140   2.068  20.637  0.00  0.00    +0.000 OA
ATOM     17  H   UNL     1       3.910   1.120  20.556  0.00  0.00    +0.000 HD
ENDBRANCH  14  16
ENDBRANCH  12  14
ENDBRANCH   5  12
TORSDOF 5
ENDMDL
MODEL 8
REMARK VINA RESULT:      -5.9      1.888      2.355
REMARK  Name = 
REMARK  6 active torsions:
REMARK  status: ('A' for Active; 'I' for Inactive)
REMARK    1  A    between atoms: C_1  and  C_2
REMARK    2  A    between atoms: C_5  and  C_6
REMARK    3  A    between atoms: C_5  and  C_9
REMARK    4  A    between atoms: C_6  and  O_8
REMARK    5  A    between atoms: C_9  and  C_11
REMARK    6  A    between atoms: C_11  and  O_13
REMARK                            x       y       z     vdW  Elec       q    Type
REMARK                         _______ _______ _______ _____ _____    ______ ____
ROOT
ATOM      1  C   UNL     1       1.928   3.534  19.079  0.00  0.00    +0.000 C 
ATOM      2  C   UNL     1       2.216   4.461  17.893  0.00  0.00    +0.000 C 
ATOM      3  C   UNL     1       2.745   5.827  18.333  0.00  0.00    +0.000 C 
ATOM      4  C   UNL     1       4.182   5.785  18.856  0.00  0.00    +0.000 C 
ATOM      5  C   UNL     1       5.235   5.067  17.937  0.00  0.00    +0.000 C 
ATOM      6  C   UNL     1       4.608   3.706  17.499  0.00  0.00    +0.000 C 
ATOM      7  C   UNL     1       3.200   3.825  16.913  0.00  0.00    +0.000 C 
ENDROOT
BRANCH   5   8
ATOM      8  C   UNL     1       6.468   4.816  18.832  0.00  0.00    +0.000 C 
ATOM      9  O   UNL     1       6.567   5.242  19.975  0.00  0.00    +0.000 OA
BRANCH   8  10
ATOM     10  O   UNL     1       7.458   4.079  18.294  0.00  0.00    +0.000 OA
ATOM     11  H   UNL     1       8.113   3.698  18.924  0.00  0.00    +0.000 HD
ENDBRANCH   8  10
ENDBRANCH   5   8
BRANCH   5  12
ATOM     12  C   UNL     1       5.624   5.922  16.701  0.00  0.00    +0.000 C 
ATOM     13 BR   UNL     1       6.843   7.404  17.101  0.00  0.00    +0.000 Br
BRANCH  12  14
ATOM     14  C   UNL     1       6.288   5.144  15.562  0.00  0.00    +0.000 C 
ATOM     15  O   UNL     1       7.450   4.755  15.583  0.00  0.00    +0.000 OA
BRANCH  14  16
ATOM     16  O   UNL     1       5.469   4.861  14.528  0.00  0.00    +0.000 OA
ATOM     17  H   UNL     1       4.730   5.492  14.413  0.00  0.00    +0.000 HD
ENDBRANCH  14  16
ENDBRANCH  12  14
ENDBRANCH   5  12
TORSDOF 5
ENDMDL
MODEL 9
REMARK VINA RESULT:      -5.9      2.593      4.383
REMARK  Name = 
REMARK  6 active torsions:
REMARK  status: ('A' for Active; 'I' for Inactive)
REMARK    1  A    between atoms: C_1  and  C_2
REMARK    2  A    between atoms: C_5  and  C_6
REMARK    3  A    between atoms: C_5  and  C_9
REMARK    4  A    between atoms: C_6  and  O_8
REMARK    5  A    between atoms: C_9  and  C_11
REMARK    6  A    between atoms: C_11  and  O_13
REMARK                            x       y       z     vdW  Elec       q    Type
REMARK                         _______ _______ _______ _____ _____    ______ ____
ROOT
ATOM      1  C   UNL     1       7.381   4.645  16.859  0.00  0.00    +0.000 C 
ATOM      2  C   UNL     1       6.041   5.389  16.833  0.00  0.00    +0.000 C 
ATOM      3  C   UNL     1       4.917   4.552  16.220  0.00  0.00    +0.000 C 
ATOM      4  C   UNL     1       4.448   3.409  17.123  0.00  0.00    +0.000 C 
ATOM      5  C   UNL     1       4.090   3.795  18.603  0.00  0.00    +0.000 C 
ATOM      6  C   UNL     1       5.259   4.678  19.142  0.00  0.00    +0.000 C 
ATOM      7  C   UNL     1       5.630   5.849  18.231  0.00  0.00    +0.000 C 
ENDROOT
BRANCH   5   8
ATOM      8  C   UNL     1       4.035   2.462  19.381  0.00  0.00    +0.000 C 
ATOM      9  O   UNL     1       3.990   2.399  20.602  0.00  0.00    +0.000 OA
BRANCH   8  10
ATOM     10  O   UNL     1       4.030   1.337  18.642  0.00  0.00    +0.000 OA
ATOM     11  H   UNL     1       3.984   1.453  17.665  0.00  0.00    +0.000 HD
ENDBRANCH   8  10
ENDBRANCH   5   8
BRANCH   5  12
ATOM     12  C   UNL     1       2.735   4.544  18.710  0.00  0.00    +0.000 C 
ATOM     13 BR   UNL     1       1.174   3.366  18.850  0.00  0.00    +0.000 Br
BRANCH  12  14
ATOM     14  C   UNL     1       2.623   5.511  19.892  0.00  0.00    +0.000 C 
ATOM     15  O   UNL     1       2.583   6.730  19.780  0.00  0.00    +0.000 OA
BRANCH  14  16
ATOM     16  O   UNL     1       2.517   4.909  21.095  0.00  0.00    +0.000 OA
ATOM     17  H   UNL     1       3.373   4.693  21.517  0.00  0.00    +0.000 HD
ENDBRANCH  14  16
ENDBRANCH  12  14
ENDBRANCH   5  12
TORSDOF 5
ENDMDL
