MODEL 1
REMARK VINA RESULT:      -7.1      0.000      0.000
REMARK  Name = 
REMARK  2 active torsions:
REMARK  status: ('A' for Active; 'I' for Inactive)
REMARK    1  A    between atoms: C_1  and  N_2
REMARK    2  A    between atoms: C_21  and  O_22
REMARK                            x       y       z     vdW  Elec       q    Type
REMARK                         _______ _______ _______ _____ _____    ______ ____
ROOT
ATOM      1  C   UNL     1      -1.234  12.646  18.279  0.00  0.00    +0.000 C 
ATOM      2  N   UNL     1       0.135  13.073  18.529  0.00  0.00    +0.000 N 
ATOM      3  C   UNL     1       0.381  14.352  19.102  0.00  0.00    +0.000 A 
ATOM      4  C   UNL     1      -0.501  15.440  19.039  0.00  0.00    +0.000 A 
ATOM      5  C   UNL     1      -0.208  16.661  19.695  0.00  0.00    +0.000 A 
ATOM      6  C   UNL     1       1.001  16.839  20.357  0.00  0.00    +0.000 A 
ATOM      7  F   UNL     1       1.262  17.988  20.990  0.00  0.00    +0.000 F 
ATOM      8  C   UNL     1       1.905  15.806  20.440  0.00  0.00    +0.000 A 
ATOM      9  C   UNL     1       1.553  14.581  19.875  0.00  0.00    +0.000 A 
ATOM     10  C   UNL     1       2.258  13.405  20.399  0.00  0.00    +0.000 C 
ATOM     11  O   UNL     1       3.196  13.482  21.176  0.00  0.00    +0.000 OA
ATOM     12  N   UNL     1       1.648  12.226  20.071  0.00  0.00    +0.000 N 
ATOM     13  C   UNL     1       0.652  11.694  21.044  0.00  0.00    +0.000 C 
ATOM     14  C   UNL     1       0.558  10.172  20.968  0.00  0.00    +0.000 C 
ATOM     15  C   UNL     1       0.959   9.700  19.609  0.00  0.00    +0.000 A 
ATOM     16  C   UNL     1       1.226  10.566  18.552  0.00  0.00    +0.000 A 
ATOM     17  N   UNL     1       2.020   9.839  17.667  0.00  0.00    +0.000 N 
ATOM     18  C   UNL     1       2.323   8.588  18.191  0.00  0.00    +0.000 A 
ATOM     19  C   UNL     1       3.250   7.601  17.797  0.00  0.00    +0.000 A 
ATOM     20  C   UNL     1       3.403   6.458  18.611  0.00  0.00    +0.000 A 
ATOM     21  C   UNL     1       2.652   6.311  19.769  0.00  0.00    +0.000 A 
ATOM     22  C   UNL     1       1.751   7.293  20.160  0.00  0.00    +0.000 A 
ATOM     23  C   UNL     1       1.581   8.447  19.364  0.00  0.00    +0.000 A 
ATOM     24  C   UNL     1       1.246  12.101  18.690  0.00  0.00    +0.000 C 
ATOM     25  H   UNL     1       2.524  10.242  16.889  0.00  0.00    +0.000 HD
ENDROOT
BRANCH  21  26
ATOM     26  O   UNL     1       2.790   5.233  20.596  0.00  0.00    +0.000 OA
ATOM     27  H   UNL     1       2.783   4.420  20.066  0.00  0.00    +0.000 HD
ENDBRANCH  21  26
TORSDOF 1
ENDMDL
MODEL 2
REMARK VINA RESULT:      -6.8      5.042      6.035
REMARK  Name = 
REMARK  2 active torsions:
REMARK  status: ('A' for Active; 'I' for Inactive)
REMARK    1  A    between atoms: C_1  and  N_2
REMARK    2  A    between atoms: C_21  and  O_22
REMARK                            x       y       z     vdW  Elec       q    Type
REMARK                         _______ _______ _______ _____ _____    ______ ____
ROOT
ATOM      1  C   UNL     1      -1.493  14.889  24.011  0.00  0.00    +0.000 C 
ATOM      2  N   UNL     1      -2.610  13.967  23.863  0.00  0.00    +0.000 N 
ATOM      3  C   UNL     1      -3.940  14.471  23.833  0.00  0.00    +0.000 A 
ATOM      4  C   UNL     1      -4.345  15.696  24.383  0.00  0.00    +0.000 A 
ATOM      5  C   UNL     1      -5.678  16.155  24.250  0.00  0.00    +0.000 A 
ATOM      6  C   UNL     1      -6.644  15.365  23.636  0.00  0.00    +0.000 A 
ATOM      7  F   UNL     1      -7.896  15.814  23.499  0.00  0.00    +0.000 F 
ATOM      8  C   UNL     1      -6.301  14.151  23.090  0.00  0.00    +0.000 A 
ATOM      9  C   UNL     1      -4.962  13.764  23.141  0.00  0.00    +0.000 A 
ATOM     10  C   UNL     1      -4.542  12.769  22.146  0.00  0.00    +0.000 C 
ATOM     11  O   UNL     1      -5.324  12.197  21.406  0.00  0.00    +0.000 OA
ATOM     12  N   UNL     1      -3.184  12.686  22.017  0.00  0.00    +0.000 N 
ATOM     13  C   UNL     1      -2.556  13.552  20.979  0.00  0.00    +0.000 C 
ATOM     14  C   UNL     1      -1.264  12.937  20.448  0.00  0.00    +0.000 C 
ATOM     15  C   UNL     1      -0.663  12.036  21.476  0.00  0.00    +0.000 A 
ATOM     16  C   UNL     1      -1.162  11.922  22.770  0.00  0.00    +0.000 A 
ATOM     17  N   UNL     1      -0.706  10.691  23.239  0.00  0.00    +0.000 N 
ATOM     18  C   UNL     1      -0.021  10.008  22.240  0.00  0.00    +0.000 A 
ATOM     19  C   UNL     1       0.423   8.673  22.147  0.00  0.00    +0.000 A 
ATOM     20  C   UNL     1       1.006   8.241  20.937  0.00  0.00    +0.000 A 
ATOM     21  C   UNL     1       1.143   9.116  19.867  0.00  0.00    +0.000 A 
ATOM     22  C   UNL     1       0.692  10.426  19.960  0.00  0.00    +0.000 A 
ATOM     23  C   UNL     1       0.102  10.882  21.159  0.00  0.00    +0.000 A 
ATOM     24  C   UNL     1      -2.446  12.623  23.256  0.00  0.00    +0.000 C 
ATOM     25  H   UNL     1      -1.041  10.239  24.078  0.00  0.00    +0.000 HD
ENDROOT
BRANCH  21  26
ATOM     26  O   UNL     1       1.679   8.728  18.672  0.00  0.00    +0.000 OA
ATOM     27  H   UNL     1       2.561   9.119  18.575  0.00  0.00    +0.000 HD
ENDBRANCH  21  26
TORSDOF 1
ENDMDL
MODEL 3
REMARK VINA RESULT:      -6.8      3.447      7.593
REMARK  Name = 
REMARK  2 active torsions:
REMARK  status: ('A' for Active; 'I' for Inactive)
REMARK    1  A    between atoms: C_1  and  N_2
REMARK    2  A    between atoms: C_21  and  O_22
REMARK                            x       y       z     vdW  Elec       q    Type
REMARK                         _______ _______ _______ _____ _____    ______ ____
ROOT
ATOM      1  C   UNL     1       0.151   8.931  22.022  0.00  0.00    +0.000 C 
ATOM      2  N   UNL     1       1.214   8.983  21.029  0.00  0.00    +0.000 N 
ATOM      3  C   UNL     1       1.605   7.794  20.353  0.00  0.00    +0.000 A 
ATOM      4  C   UNL     1       1.412   6.494  20.843  0.00  0.00    +0.000 A 
ATOM      5  C   UNL     1       1.771   5.360  20.074  0.00  0.00    +0.000 A 
ATOM      6  C   UNL     1       2.397   5.506  18.841  0.00  0.00    +0.000 A 
ATOM      7  F   UNL     1       2.715   4.429  18.114  0.00  0.00    +0.000 F 
ATOM      8  C   UNL     1       2.618   6.758  18.321  0.00  0.00    +0.000 A 
ATOM      9  C   UNL     1       2.165   7.859  19.046  0.00  0.00    +0.000 A 
ATOM     10  C   UNL     1       1.946   9.091  18.278  0.00  0.00    +0.000 C 
ATOM     11  O   UNL     1       2.267   9.211  17.107  0.00  0.00    +0.000 OA
ATOM     12  N   UNL     1       1.193  10.013  18.950  0.00  0.00    +0.000 N 
ATOM     13  C   UNL     1      -0.280   9.964  18.728  0.00  0.00    +0.000 C 
ATOM     14  C   UNL     1      -0.917  11.338  18.920  0.00  0.00    +0.000 C 
ATOM     15  C   UNL     1      -0.086  12.166  19.845  0.00  0.00    +0.000 A 
ATOM     16  C   UNL     1       1.018  11.663  20.527  0.00  0.00    +0.000 A 
ATOM     17  N   UNL     1       1.792  12.776  20.853  0.00  0.00    +0.000 N 
ATOM     18  C   UNL     1       1.242  13.933  20.312  0.00  0.00    +0.000 A 
ATOM     19  C   UNL     1       1.751  15.240  20.171  0.00  0.00    +0.000 A 
ATOM     20  C   UNL     1       0.979  16.190  19.469  0.00  0.00    +0.000 A 
ATOM     21  C   UNL     1      -0.255  15.843  18.937  0.00  0.00    +0.000 A 
ATOM     22  C   UNL     1      -0.745  14.550  19.067  0.00  0.00    +0.000 A 
ATOM     23  C   UNL     1       0.010  13.580  19.762  0.00  0.00    +0.000 A 
ATOM     24  C   UNL     1       1.573  10.239  20.324  0.00  0.00    +0.000 C 
ATOM     25  H   UNL     1       2.742  12.731  21.195  0.00  0.00    +0.000 HD
ENDROOT
BRANCH  21  26
ATOM     26  O   UNL     1      -1.019  16.727  18.230  0.00  0.00    +0.000 OA
ATOM     27  H   UNL     1      -0.471  17.480  17.960  0.00  0.00    +0.000 HD
ENDBRANCH  21  26
TORSDOF 1
ENDMDL
MODEL 4
REMARK VINA RESULT:      -6.8      2.028      2.224
REMARK  Name = 
REMARK  2 active torsions:
REMARK  status: ('A' for Active; 'I' for Inactive)
REMARK    1  A    between atoms: C_1  and  N_2
REMARK    2  A    between atoms: C_21  and  O_22
REMARK                            x       y       z     vdW  Elec       q    Type
REMARK                         _______ _______ _______ _____ _____    ______ ____
ROOT
ATOM      1  C   UNL     1      -3.128  12.678  20.183  0.00  0.00    +0.000 C 
ATOM      2  N   UNL     1      -1.868  13.406  20.175  0.00  0.00    +0.000 N 
ATOM      3  C   UNL     1      -1.759  14.635  20.883  0.00  0.00    +0.000 A 
ATOM      4  C   UNL     1      -2.839  15.466  21.215  0.00  0.00    +0.000 A 
ATOM      5  C   UNL     1      -2.651  16.641  21.983  0.00  0.00    +0.000 A 
ATOM      6  C   UNL     1      -1.376  17.045  22.365  0.00  0.00    +0.000 A 
ATOM      7  F   UNL     1      -1.210  18.146  23.106  0.00  0.00    +0.000 F 
ATOM      8  C   UNL     1      -0.283  16.271  22.056  0.00  0.00    +0.000 A 
ATOM      9  C   UNL     1      -0.500  15.066  21.388  0.00  0.00    +0.000 A 
ATOM     10  C   UNL     1       0.556  14.056  21.525  0.00  0.00    +0.000 C 
ATOM     11  O   UNL     1       1.628  14.281  22.062  0.00  0.00    +0.000 OA
ATOM     12  N   UNL     1       0.149  12.805  21.152  0.00  0.00    +0.000 N 
ATOM     13  C   UNL     1      -0.411  11.935  22.225  0.00  0.00    +0.000 C 
ATOM     14  C   UNL     1      -0.191  10.457  21.915  0.00  0.00    +0.000 C 
ATOM     15  C   UNL     1      -0.077  10.253  20.440  0.00  0.00    +0.000 A 
ATOM     16  C   UNL     1      -0.296  11.269  19.514  0.00  0.00    +0.000 A 
ATOM     17  N   UNL     1       0.369  10.868  18.357  0.00  0.00    +0.000 N 
ATOM     18  C   UNL     1       1.064   9.683  18.574  0.00  0.00    +0.000 A 
ATOM     19  C   UNL     1       2.042   9.012  17.812  0.00  0.00    +0.000 A 
ATOM     20  C   UNL     1       2.650   7.862  18.360  0.00  0.00    +0.000 A 
ATOM     21  C   UNL     1       2.287   7.404  19.619  0.00  0.00    +0.000 A 
ATOM     22  C   UNL     1       1.334   8.078  20.372  0.00  0.00    +0.000 A 
ATOM     23  C   UNL     1       0.712   9.232  19.847  0.00  0.00    +0.000 A 
ATOM     24  C   UNL     1      -0.572  12.735  19.903  0.00  0.00    +0.000 C 
ATOM     25  H   UNL     1       0.547  11.468  17.563  0.00  0.00    +0.000 HD
ENDROOT
BRANCH  21  26
ATOM     26  O   UNL     1       2.871   6.311  20.194  0.00  0.00    +0.000 OA
ATOM     27  H   UNL     1       3.377   5.828  19.523  0.00  0.00    +0.000 HD
ENDBRANCH  21  26
TORSDOF 1
ENDMDL
MODEL 5
REMARK VINA RESULT:      -6.7      4.183      7.484
REMARK  Name = 
REMARK  2 active torsions:
REMARK  status: ('A' for Active; 'I' for Inactive)
REMARK    1  A    between atoms: C_1  and  N_2
REMARK    2  A    between atoms: C_21  and  O_22
REMARK                            x       y       z     vdW  Elec       q    Type
REMARK                         _______ _______ _______ _____ _____    ______ ____
ROOT
ATOM      1  C   UNL     1      -0.957  12.022  18.377  0.00  0.00    +0.000 C 
ATOM      2  N   UNL     1      -0.734  10.988  19.377  0.00  0.00    +0.000 N 
ATOM      3  C   UNL     1       0.226   9.967  19.134  0.00  0.00    +0.000 A 
ATOM      4  C   UNL     1       0.663   9.566  17.863  0.00  0.00    +0.000 A 
ATOM      5  C   UNL     1       1.674   8.585  17.710  0.00  0.00    +0.000 A 
ATOM      6  C   UNL     1       2.209   7.938  18.818  0.00  0.00    +0.000 A 
ATOM      7  F   UNL     1       3.176   7.027  18.665  0.00  0.00    +0.000 F 
ATOM      8  C   UNL     1       1.808   8.287  20.085  0.00  0.00    +0.000 A 
ATOM      9  C   UNL     1       0.887   9.326  20.218  0.00  0.00    +0.000 A 
ATOM     10  C   UNL     1       0.867  10.006  21.519  0.00  0.00    +0.000 C 
ATOM     11  O   UNL     1       1.503   9.615  22.484  0.00  0.00    +0.000 OA
ATOM     12  N   UNL     1       0.212  11.205  21.485  0.00  0.00    +0.000 N 
ATOM     13  C   UNL     1       1.039  12.412  21.200  0.00  0.00    +0.000 C 
ATOM     14  C   UNL     1       0.434  13.663  21.831  0.00  0.00    +0.000 C 
ATOM     15  C   UNL     1      -1.041  13.494  21.994  0.00  0.00    +0.000 A 
ATOM     16  C   UNL     1      -1.740  12.401  21.491  0.00  0.00    +0.000 A 
ATOM     17  N   UNL     1      -2.914  12.333  22.239  0.00  0.00    +0.000 N 
ATOM     18  C   UNL     1      -2.913  13.294  23.244  0.00  0.00    +0.000 A 
ATOM     19  C   UNL     1      -3.742  13.480  24.370  0.00  0.00    +0.000 A 
ATOM     20  C   UNL     1      -3.416  14.506  25.282  0.00  0.00    +0.000 A 
ATOM     21  C   UNL     1      -2.308  15.314  25.070  0.00  0.00    +0.000 A 
ATOM     22  C   UNL     1      -1.488  15.118  23.967  0.00  0.00    +0.000 A 
ATOM     23  C   UNL     1      -1.790  14.096  23.040  0.00  0.00    +0.000 A 
ATOM     24  C   UNL     1      -1.064  11.194  20.810  0.00  0.00    +0.000 C 
ATOM     25  H   UNL     1      -3.549  11.547  22.236  0.00  0.00    +0.000 HD
ENDROOT
BRANCH  21  26
ATOM     26  O   UNL     1      -1.946  16.300  25.943  0.00  0.00    +0.000 OA
ATOM     27  H   UNL     1      -2.724  16.583  26.448  0.00  0.00    +0.000 HD
ENDBRANCH  21  26
TORSDOF 1
ENDMDL
MODEL 6
REMARK VINA RESULT:      -6.4      4.594      7.879
REMARK  Name = 
REMARK  2 active torsions:
REMARK  status: ('A' for Active; 'I' for Inactive)
REMARK    1  A    between atoms: C_1  and  N_2
REMARK    2  A    between atoms: C_21  and  O_22
REMARK                            x       y       z     vdW  Elec       q    Type
REMARK                         _______ _______ _______ _____ _____    ______ ____
ROOT
ATOM      1  C   UNL     1      -0.778  12.521  18.379  0.00  0.00    +0.000 C 
ATOM      2  N   UNL     1      -1.033  11.433  19.311  0.00  0.00    +0.000 N 
ATOM      3  C   UNL     1      -0.103  10.361  19.415  0.00  0.00    +0.000 A 
ATOM      4  C   UNL     1       0.802   9.986  18.411  0.00  0.00    +0.000 A 
ATOM      5  C   UNL     1       1.742   8.947  18.622  0.00  0.00    +0.000 A 
ATOM      6  C   UNL     1       1.743   8.219  19.806  0.00  0.00    +0.000 A 
ATOM      7  F   UNL     1       2.646   7.253  20.003  0.00  0.00    +0.000 F 
ATOM      8  C   UNL     1       0.870   8.540  20.818  0.00  0.00    +0.000 A 
ATOM      9  C   UNL     1       0.022   9.631  20.630  0.00  0.00    +0.000 A 
ATOM     10  C   UNL     1      -0.504  10.255  21.851  0.00  0.00    +0.000 C 
ATOM     11  O   UNL     1      -0.341   9.782  22.963  0.00  0.00    +0.000 OA
ATOM     12  N   UNL     1      -1.034  11.496  21.630  0.00  0.00    +0.000 N 
ATOM     13  C   UNL     1      -0.112  12.655  21.791  0.00  0.00    +0.000 C 
ATOM     14  C   UNL     1      -0.869  13.916  22.200  0.00  0.00    +0.000 C 
ATOM     15  C   UNL     1      -2.285  13.840  21.732  0.00  0.00    +0.000 A 
ATOM     16  C   UNL     1      -2.760  12.818  20.915  0.00  0.00    +0.000 A 
ATOM     17  N   UNL     1      -4.140  12.797  21.110  0.00  0.00    +0.000 N 
ATOM     18  C   UNL     1      -4.513  13.712  22.088  0.00  0.00    +0.000 A 
ATOM     19  C   UNL     1      -5.724  13.905  22.785  0.00  0.00    +0.000 A 
ATOM     20  C   UNL     1      -5.760  14.867  23.817  0.00  0.00    +0.000 A 
ATOM     21  C   UNL     1      -4.629  15.608  24.131  0.00  0.00    +0.000 A 
ATOM     22  C   UNL     1      -3.436  15.404  23.451  0.00  0.00    +0.000 A 
ATOM     23  C   UNL     1      -3.372  14.445  22.416  0.00  0.00    +0.000 A 
ATOM     24  C   UNL     1      -1.916  11.599  20.493  0.00  0.00    +0.000 C 
ATOM     25  H   UNL     1      -4.751  12.056  20.794  0.00  0.00    +0.000 HD
ENDROOT
BRANCH  21  26
ATOM     26  O   UNL     1      -4.617  16.529  25.140  0.00  0.00    +0.000 OA
ATOM     27  H   UNL     1      -4.613  16.069  25.993  0.00  0.00    +0.000 HD
ENDBRANCH  21  26
TORSDOF 1
ENDMDL
MODEL 7
REMARK VINA RESULT:      -6.4      4.804      8.468
REMARK  Name = 
REMARK  2 active torsions:
REMARK  status: ('A' for Active; 'I' for Inactive)
REMARK    1  A    between atoms: C_1  and  N_2
REMARK    2  A    between atoms: C_21  and  O_22
REMARK                            x       y       z     vdW  Elec       q    Type
REMARK                         _______ _______ _______ _____ _____    ______ ____
ROOT
ATOM      1  C   UNL     1       1.894   4.520  17.586  0.00  0.00    +0.000 C 
ATOM      2  N   UNL     1       3.161   5.074  18.038  0.00  0.00    +0.000 N 
ATOM      3  C   UNL     1       4.342   4.845  17.278  0.00  0.00    +0.000 A 
ATOM      4  C   UNL     1       4.528   3.774  16.392  0.00  0.00    +0.000 A 
ATOM      5  C   UNL     1       5.711   3.656  15.622  0.00  0.00    +0.000 A 
ATOM      6  C   UNL     1       6.755   4.560  15.780  0.00  0.00    +0.000 A 
ATOM      7  F   UNL     1       7.861   4.451  15.035  0.00  0.00    +0.000 F 
ATOM      8  C   UNL     1       6.627   5.622  16.643  0.00  0.00    +0.000 A 
ATOM      9  C   UNL     1       5.415   5.778  17.316  0.00  0.00    +0.000 A 
ATOM     10  C   UNL     1       5.119   7.131  17.802  0.00  0.00    +0.000 C 
ATOM     11  O   UNL     1       5.925   8.045  17.760  0.00  0.00    +0.000 OA
ATOM     12  N   UNL     1       3.804   7.301  18.137  0.00  0.00    +0.000 N 
ATOM     13  C   UNL     1       2.901   7.809  17.065  0.00  0.00    +0.000 C 
ATOM     14  C   UNL     1       1.724   8.585  17.650  0.00  0.00    +0.000 C 
ATOM     15  C   UNL     1       1.440   8.117  19.040  0.00  0.00    +0.000 A 
ATOM     16  C   UNL     1       2.083   7.026  19.620  0.00  0.00    +0.000 A 
ATOM     17  N   UNL     1       1.953   7.206  20.996  0.00  0.00    +0.000 N 
ATOM     18  C   UNL     1       1.331   8.417  21.277  0.00  0.00    +0.000 A 
ATOM     19  C   UNL     1       1.178   9.140  22.478  0.00  0.00    +0.000 A 
ATOM     20  C   UNL     1       0.580  10.417  22.423  0.00  0.00    +0.000 A 
ATOM     21  C   UNL     1       0.149  10.943  21.213  0.00  0.00    +0.000 A 
ATOM     22  C   UNL     1       0.315  10.233  20.031  0.00  0.00    +0.000 A 
ATOM     23  C   UNL     1       0.913   8.954  20.059  0.00  0.00    +0.000 A 
ATOM     24  C   UNL     1       3.229   6.250  18.941  0.00  0.00    +0.000 C 
ATOM     25  H   UNL     1       2.462   6.679  21.692  0.00  0.00    +0.000 HD
ENDROOT
BRANCH  21  26
ATOM     26  O   UNL     1      -0.411  12.185  21.115  0.00  0.00    +0.000 OA
ATOM     27  H   UNL     1      -1.155  12.153  20.493  0.00  0.00    +0.000 HD
ENDBRANCH  21  26
TORSDOF 1
ENDMDL
MODEL 8
REMARK VINA RESULT:      -6.4      1.503      1.732
REMARK  Name = 
REMARK  2 active torsions:
REMARK  status: ('A' for Active; 'I' for Inactive)
REMARK    1  A    between atoms: C_1  and  N_2
REMARK    2  A    between atoms: C_21  and  O_22
REMARK                            x       y       z     vdW  Elec       q    Type
REMARK                         _______ _______ _______ _____ _____    ______ ____
ROOT
ATOM      1  C   UNL     1      -1.900  10.699  18.953  0.00  0.00    +0.000 C 
ATOM      2  N   UNL     1      -0.709  11.528  19.069  0.00  0.00    +0.000 N 
ATOM      3  C   UNL     1      -0.778  12.767  19.766  0.00  0.00    +0.000 A 
ATOM      4  C   UNL     1      -1.951  13.509  19.965  0.00  0.00    +0.000 A 
ATOM      5  C   UNL     1      -1.944  14.702  20.729  0.00  0.00    +0.000 A 
ATOM      6  C   UNL     1      -0.755  15.211  21.240  0.00  0.00    +0.000 A 
ATOM      7  F   UNL     1      -0.761  16.327  21.977  0.00  0.00    +0.000 F 
ATOM      8  C   UNL     1       0.424  14.527  21.065  0.00  0.00    +0.000 A 
ATOM      9  C   UNL     1       0.379  13.303  20.397  0.00  0.00    +0.000 A 
ATOM     10  C   UNL     1       1.491  12.384  20.664  0.00  0.00    +0.000 C 
ATOM     11  O   UNL     1       2.476  12.700  21.310  0.00  0.00    +0.000 OA
ATOM     12  N   UNL     1       1.230  11.101  20.269  0.00  0.00    +0.000 N 
ATOM     13  C   UNL     1       0.628  10.197  21.290  0.00  0.00    +0.000 C 
ATOM     14  C   UNL     1       0.999   8.739  21.029  0.00  0.00    +0.000 C 
ATOM     15  C   UNL     1       1.290   8.534  19.579  0.00  0.00    +0.000 A 
ATOM     16  C   UNL     1       1.092   9.522  18.618  0.00  0.00    +0.000 A 
ATOM     17  N   UNL     1       1.910   9.168  17.547  0.00  0.00    +0.000 N 
ATOM     18  C   UNL     1       2.671   8.046  17.857  0.00  0.00    +0.000 A 
ATOM     19  C   UNL     1       3.777   7.451  17.216  0.00  0.00    +0.000 A 
ATOM     20  C   UNL     1       4.412   6.360  17.846  0.00  0.00    +0.000 A 
ATOM     21  C   UNL     1       3.951   5.883  19.065  0.00  0.00    +0.000 A 
ATOM     22  C   UNL     1       2.871   6.482  19.699  0.00  0.00    +0.000 A 
ATOM     23  C   UNL     1       2.219   7.577  19.091  0.00  0.00    +0.000 A 
ATOM     24  C   UNL     1       0.658  10.963  18.951  0.00  0.00    +0.000 C 
ATOM     25  H   UNL     1       2.126   9.775  16.767  0.00  0.00    +0.000 HD
ENDROOT
BRANCH  21  26
ATOM     26  O   UNL     1       4.555   4.846  19.718  0.00  0.00    +0.000 OA
ATOM     27  H   UNL     1       4.255   4.830  20.641  0.00  0.00    +0.000 HD
ENDBRANCH  21  26
TORSDOF 1
ENDMDL
MODEL 9
REMARK VINA RESULT:      -6.4      7.271      9.621
REMARK  Name = 
REMARK  2 active torsions:
REMARK  status: ('A' for Active; 'I' for Inactive)
REMARK    1  A    between atoms: C_1  and  N_2
REMARK    2  A    between atoms: C_21  and  O_22
REMARK                            x       y       z     vdW  Elec       q    Type
REMARK                         _______ _______ _______ _____ _____    ______ ____
ROOT
ATOM      1  C   UNL     1       6.172   3.957  16.130  0.00  0.00    +0.000 C 
ATOM      2  N   UNL     1       5.084   4.706  16.743  0.00  0.00    +0.000 N 
ATOM      3  C   UNL     1       3.957   4.012  17.265  0.00  0.00    +0.000 A 
ATOM      4  C   UNL     1       3.546   2.733  16.860  0.00  0.00    +0.000 A 
ATOM      5  C   UNL     1       2.450   2.085  17.480  0.00  0.00    +0.000 A 
ATOM      6  C   UNL     1       1.701   2.732  18.456  0.00  0.00    +0.000 A 
ATOM      7  F   UNL     1       0.679   2.104  19.049  0.00  0.00    +0.000 F 
ATOM      8  C   UNL     1       2.055   3.990  18.881  0.00  0.00    +0.000 A 
ATOM      9  C   UNL     1       3.199   4.569  18.332  0.00  0.00    +0.000 A 
ATOM     10  C   UNL     1       3.830   5.628  19.129  0.00  0.00    +0.000 C 
ATOM     11  O   UNL     1       3.328   6.088  20.141  0.00  0.00    +0.000 OA
ATOM     12  N   UNL     1       5.105   5.913  18.724  0.00  0.00    +0.000 N 
ATOM     13  C   UNL     1       6.204   5.162  19.394  0.00  0.00    +0.000 C 
ATOM     14  C   UNL     1       7.500   5.968  19.409  0.00  0.00    +0.000 C 
ATOM     15  C   UNL     1       7.517   6.935  18.270  0.00  0.00    +0.000 A 
ATOM     16  C   UNL     1       6.540   6.956  17.279  0.00  0.00    +0.000 A 
ATOM     17  N   UNL     1       6.599   8.235  16.727  0.00  0.00    +0.000 N 
ATOM     18  C   UNL     1       7.516   9.024  17.410  0.00  0.00    +0.000 A 
ATOM     19  C   UNL     1       7.768  10.412  17.385  0.00  0.00    +0.000 A 
ATOM     20  C   UNL     1       8.712  10.941  18.291  0.00  0.00    +0.000 A 
ATOM     21  C   UNL     1       9.378  10.110  19.181  0.00  0.00    +0.000 A 
ATOM     22  C   UNL     1       9.115   8.746  19.212  0.00  0.00    +0.000 A 
ATOM     23  C   UNL     1       8.174   8.193  18.317  0.00  0.00    +0.000 A 
ATOM     24  C   UNL     1       5.281   6.067  17.299  0.00  0.00    +0.000 C 
ATOM     25  H   UNL     1       5.901   8.622  16.105  0.00  0.00    +0.000 HD
ENDROOT
BRANCH  21  26
ATOM     26  O   UNL     1      10.278  10.587  20.091  0.00  0.00    +0.000 OA
ATOM     27  H   UNL     1      10.434   9.914  20.771  0.00  0.00    +0.000 HD
ENDBRANCH  21  26
TORSDOF 1
ENDMDL
