MODEL 1
REMARK VINA RESULT:      -9.0      0.000      0.000
REMARK  Name = 
REMARK  6 active torsions:
REMARK  status: ('A' for Active; 'I' for Inactive)
REMARK    1  A    between atoms: N_3  and  C_4
REMARK    2  A    between atoms: C_4  and  C_5
REMARK    3  A    between atoms: C_5  and  N_6
REMARK    4  A    between atoms: C_11  and  S_12
REMARK    5  A    between atoms: S_12  and  N_15
REMARK    6  A    between atoms: N_23  and  C_24
REMARK                            x       y       z     vdW  Elec       q    Type
REMARK                         _______ _______ _______ _____ _____    ______ ____
ROOT
ATOM      1  N   UNL     1       7.215   6.752  18.165  0.00  0.00    +0.000 N 
ATOM      2  N   UNL     1       8.046   6.141  19.027  0.00  0.00    +0.000 NA
ATOM      3  N   UNL     1       7.457   5.017  19.425  0.00  0.00    +0.000 NA
ATOM      4  C   UNL     1       6.227   4.941  18.825  0.00  0.00    +0.000 A 
ATOM      5  C   UNL     1       5.231   3.950  18.882  0.00  0.00    +0.000 A 
ATOM      6  C   UNL     1       4.051   4.159  18.143  0.00  0.00    +0.000 A 
ATOM      7  C   UNL     1       3.870   5.316  17.372  0.00  0.00    +0.000 A 
ATOM      8  C   UNL     1       4.868   6.298  17.297  0.00  0.00    +0.000 A 
ATOM      9  C   UNL     1       6.033   6.062  18.030  0.00  0.00    +0.000 A 
ENDROOT
BRANCH   6  10
ATOM     10  S   UNL     1       2.861   2.831  17.984  0.00  0.00    +0.000 S 
ATOM     11  O   UNL     1       1.936   3.217  16.936  0.00  0.00    +0.000 OA
ATOM     12  O   UNL     1       3.614   1.601  17.889  0.00  0.00    +0.000 OA
BRANCH  10  13
ATOM     13  N   UNL     1       2.009   2.809  19.438  0.00  0.00    +0.000 NA
ATOM     14  C   UNL     1       0.853   3.696  19.631  0.00  0.00    +0.000 C 
ATOM     15  C   UNL     1       1.365   4.731  20.614  0.00  0.00    +0.000 C 
ATOM     16  C   UNL     1       2.294   3.942  21.524  0.00  0.00    +0.000 C 
ATOM     17  C   UNL     1       2.751   2.734  20.709  0.00  0.00    +0.000 C 
ENDBRANCH  10  13
ENDBRANCH   6  10
BRANCH   1  18
ATOM     18  C   UNL     1       7.548   8.005  17.526  0.00  0.00    +0.000 C 
BRANCH  18  19
ATOM     19  C   UNL     1       8.402   8.968  18.359  0.00  0.00    +0.000 C 
BRANCH  19  22
ATOM     20  O   UNL     1      10.244  10.883  19.045  0.00  0.00    +0.000 OA
ATOM     21  C   UNL     1       9.397  11.206  18.223  0.00  0.00    +0.000 C 
ATOM     22  N   UNL     1       8.386  10.339  17.850  0.00  0.00    +0.000 N 
ATOM     23  N   UNL     1       9.283  12.425  17.597  0.00  0.00    +0.000 N 
ATOM     24  H   UNL     1       8.067  10.451  16.898  0.00  0.00    +0.000 HD
ATOM     25  H   UNL     1       8.452  12.568  17.042  0.00  0.00    +0.000 HD
BRANCH  23  26
ATOM     26  C   UNL     1      10.119  13.548  17.776  0.00  0.00    +0.000 A 
ATOM     27  C   UNL     1       9.830  14.598  18.654  0.00  0.00    +0.000 A 
ATOM     28  C   UNL     1      10.666  15.714  18.736  0.00  0.00    +0.000 A 
ATOM     29  C   UNL     1      11.814  15.784  17.954  0.00  0.00    +0.000 A 
ATOM     30  C   UNL     1      12.137  14.728  17.104  0.00  0.00    +0.000 A 
ATOM     31  C   UNL     1      11.293  13.616  17.016  0.00  0.00    +0.000 A 
ENDBRANCH  23  26
ENDBRANCH  19  22
ENDBRANCH  18  19
ENDBRANCH   1  18
TORSDOF 6
ENDMDL
MODEL 2
REMARK VINA RESULT:      -8.6      0.595      1.050
REMARK  Name = 
REMARK  6 active torsions:
REMARK  status: ('A' for Active; 'I' for Inactive)
REMARK    1  A    between atoms: N_3  and  C_4
REMARK    2  A    between atoms: C_4  and  C_5
REMARK    3  A    between atoms: C_5  and  N_6
REMARK    4  A    between atoms: C_11  and  S_12
REMARK    5  A    between atoms: S_12  and  N_15
REMARK    6  A    between atoms: N_23  and  C_24
REMARK                            x       y       z     vdW  Elec       q    Type
REMARK                         _______ _______ _______ _____ _____    ______ ____
ROOT
ATOM      1  N   UNL     1       7.113   6.731  18.194  0.00  0.00    +0.000 N 
ATOM      2  N   UNL     1       7.952   6.169  19.083  0.00  0.00    +0.000 NA
ATOM      3  N   UNL     1       7.392   5.039  19.504  0.00  0.00    +0.000 NA
ATOM      4  C   UNL     1       6.173   4.908  18.891  0.00  0.00    +0.000 A 
ATOM      5  C   UNL     1       5.207   3.888  18.963  0.00  0.00    +0.000 A 
ATOM      6  C   UNL     1       4.032   4.041  18.204  0.00  0.00    +0.000 A 
ATOM      7  C   UNL     1       3.825   5.170  17.400  0.00  0.00    +0.000 A 
ATOM      8  C   UNL     1       4.793   6.181  17.311  0.00  0.00    +0.000 A 
ATOM      9  C   UNL     1       5.955   6.001  18.064  0.00  0.00    +0.000 A 
ENDROOT
BRANCH   6  10
ATOM     10  S   UNL     1       2.886   2.672  18.066  0.00  0.00    +0.000 S 
ATOM     11  O   UNL     1       1.995   2.978  16.964  0.00  0.00    +0.000 OA
ATOM     12  O   UNL     1       3.675   1.462  18.065  0.00  0.00    +0.000 OA
BRANCH  10  13
ATOM     13  N   UNL     1       1.974   2.698  19.484  0.00  0.00    +0.000 NA
ATOM     14  C   UNL     1       0.860   3.645  19.629  0.00  0.00    +0.000 C 
ATOM     15  C   UNL     1       1.385   4.654  20.631  0.00  0.00    +0.000 C 
ATOM     16  C   UNL     1       2.233   3.821  21.579  0.00  0.00    +0.000 C 
ATOM     17  C   UNL     1       2.659   2.589  20.785  0.00  0.00    +0.000 C 
ENDBRANCH  10  13
ENDBRANCH   6  10
BRANCH   1  18
ATOM     18  C   UNL     1       7.415   7.977  17.527  0.00  0.00    +0.000 C 
BRANCH  18  19
ATOM     19  C   UNL     1       8.507   8.831  18.179  0.00  0.00    +0.000 C 
BRANCH  19  22
ATOM     20  O   UNL     1       9.742  10.893  19.506  0.00  0.00    +0.000 OA
ATOM     21  C   UNL     1       9.204  11.169  18.443  0.00  0.00    +0.000 C 
ATOM     22  N   UNL     1       8.503  10.220  17.720  0.00  0.00    +0.000 N 
ATOM     23  N   UNL     1       9.168  12.403  17.837  0.00  0.00    +0.000 N 
ATOM     24  H   UNL     1       8.526  10.353  16.719  0.00  0.00    +0.000 HD
ATOM     25  H   UNL     1       8.573  12.487  17.025  0.00  0.00    +0.000 HD
BRANCH  23  26
ATOM     26  C   UNL     1       9.743  13.599  18.319  0.00  0.00    +0.000 A 
ATOM     27  C   UNL     1      11.122  13.813  18.414  0.00  0.00    +0.000 A 
ATOM     28  C   UNL     1      11.627  14.994  18.962  0.00  0.00    +0.000 A 
ATOM     29  C   UNL     1      10.756  15.985  19.405  0.00  0.00    +0.000 A 
ATOM     30  C   UNL     1       9.381  15.803  19.282  0.00  0.00    +0.000 A 
ATOM     31  C   UNL     1       8.877  14.615  18.741  0.00  0.00    +0.000 A 
ENDBRANCH  23  26
ENDBRANCH  19  22
ENDBRANCH  18  19
ENDBRANCH   1  18
TORSDOF 6
ENDMDL
MODEL 3
REMARK VINA RESULT:      -8.6      1.725      2.296
REMARK  Name = 
REMARK  6 active torsions:
REMARK  status: ('A' for Active; 'I' for Inactive)
REMARK    1  A    between atoms: N_3  and  C_4
REMARK    2  A    between atoms: C_4  and  C_5
REMARK    3  A    between atoms: C_5  and  N_6
REMARK    4  A    between atoms: C_11  and  S_12
REMARK    5  A    between atoms: S_12  and  N_15
REMARK    6  A    between atoms: N_23  and  C_24
REMARK                            x       y       z     vdW  Elec       q    Type
REMARK                         _______ _______ _______ _____ _____    ______ ____
ROOT
ATOM      1  N   UNL     1       7.355   6.372  17.581  0.00  0.00    +0.000 N 
ATOM      2  N   UNL     1       7.422   6.462  16.241  0.00  0.00    +0.000 NA
ATOM      3  N   UNL     1       6.476   5.674  15.739  0.00  0.00    +0.000 NA
ATOM      4  C   UNL     1       5.830   5.060  16.780  0.00  0.00    +0.000 A 
ATOM      5  C   UNL     1       4.744   4.166  16.795  0.00  0.00    +0.000 A 
ATOM      6  C   UNL     1       4.296   3.697  18.043  0.00  0.00    +0.000 A 
ATOM      7  C   UNL     1       4.907   4.105  19.237  0.00  0.00    +0.000 A 
ATOM      8  C   UNL     1       5.978   5.010  19.228  0.00  0.00    +0.000 A 
ATOM      9  C   UNL     1       6.397   5.469  17.977  0.00  0.00    +0.000 A 
ENDROOT
BRANCH   6  10
ATOM     10  S   UNL     1       2.775   2.758  18.140  0.00  0.00    +0.000 S 
ATOM     11  O   UNL     1       2.371   2.468  16.778  0.00  0.00    +0.000 OA
ATOM     12  O   UNL     1       2.999   1.690  19.087  0.00  0.00    +0.000 OA
BRANCH  10  13
ATOM     13  N   UNL     1       1.633   3.808  18.799  0.00  0.00    +0.000 NA
ATOM     14  C   UNL     1       1.597   5.217  18.382  0.00  0.00    +0.000 C 
ATOM     15  C   UNL     1       2.129   5.956  19.594  0.00  0.00    +0.000 C 
ATOM     16  C   UNL     1       1.594   5.158  20.772  0.00  0.00    +0.000 C 
ATOM     17  C   UNL     1       1.346   3.747  20.244  0.00  0.00    +0.000 C 
ENDBRANCH  10  13
ENDBRANCH   6  10
BRANCH   1  18
ATOM     18  C   UNL     1       8.242   7.112  18.451  0.00  0.00    +0.000 C 
BRANCH  18  19
ATOM     19  C   UNL     1       8.313   8.622  18.195  0.00  0.00    +0.000 C 
BRANCH  19  22
ATOM     20  O   UNL     1       8.923  11.295  18.062  0.00  0.00    +0.000 OA
ATOM     21  C   UNL     1       9.254  10.707  19.083  0.00  0.00    +0.000 C 
ATOM     22  N   UNL     1       9.049   9.347  19.231  0.00  0.00    +0.000 N 
ATOM     23  N   UNL     1       9.886  11.251  20.175  0.00  0.00    +0.000 N 
ATOM     24  H   UNL     1       8.880   9.048  20.182  0.00  0.00    +0.000 HD
ATOM     25  H   UNL     1      10.203  10.600  20.881  0.00  0.00    +0.000 HD
BRANCH  23  26
ATOM     26  C   UNL     1      10.281  12.597  20.341  0.00  0.00    +0.000 A 
ATOM     27  C   UNL     1      11.274  13.213  19.573  0.00  0.00    +0.000 A 
ATOM     28  C   UNL     1      11.665  14.529  19.831  0.00  0.00    +0.000 A 
ATOM     29  C   UNL     1      11.051  15.252  20.849  0.00  0.00    +0.000 A 
ATOM     30  C   UNL     1      10.033  14.665  21.596  0.00  0.00    +0.000 A 
ATOM     31  C   UNL     1       9.650  13.343  21.343  0.00  0.00    +0.000 A 
ENDBRANCH  23  26
ENDBRANCH  19  22
ENDBRANCH  18  19
ENDBRANCH   1  18
TORSDOF 6
ENDMDL
MODEL 4
REMARK VINA RESULT:      -8.5      1.720      1.993
REMARK  Name = 
REMARK  6 active torsions:
REMARK  status: ('A' for Active; 'I' for Inactive)
REMARK    1  A    between atoms: N_3  and  C_4
REMARK    2  A    between atoms: C_4  and  C_5
REMARK    3  A    between atoms: C_5  and  N_6
REMARK    4  A    between atoms: C_11  and  S_12
REMARK    5  A    between atoms: S_12  and  N_15
REMARK    6  A    between atoms: N_23  and  C_24
REMARK                            x       y       z     vdW  Elec       q    Type
REMARK                         _______ _______ _______ _____ _____    ______ ____
ROOT
ATOM      1  N   UNL     1       6.747   6.613  17.732  0.00  0.00    +0.000 N 
ATOM      2  N   UNL     1       7.658   5.644  17.934  0.00  0.00    +0.000 NA
ATOM      3  N   UNL     1       6.997   4.504  18.112  0.00  0.00    +0.000 NA
ATOM      4  C   UNL     1       5.654   4.770  18.049  0.00  0.00    +0.000 A 
ATOM      5  C   UNL     1       4.539   3.919  18.139  0.00  0.00    +0.000 A 
ATOM      6  C   UNL     1       3.260   4.498  18.036  0.00  0.00    +0.000 A 
ATOM      7  C   UNL     1       3.098   5.877  17.850  0.00  0.00    +0.000 A 
ATOM      8  C   UNL     1       4.207   6.728  17.740  0.00  0.00    +0.000 A 
ATOM      9  C   UNL     1       5.465   6.128  17.834  0.00  0.00    +0.000 A 
ENDROOT
BRANCH   6  10
ATOM     10  S   UNL     1       1.821   3.442  17.899  0.00  0.00    +0.000 S 
ATOM     11  O   UNL     1       0.820   4.187  17.161  0.00  0.00    +0.000 OA
ATOM     12  O   UNL     1       2.285   2.158  17.426  0.00  0.00    +0.000 OA
BRANCH  10  13
ATOM     13  N   UNL     1       1.253   3.241  19.474  0.00  0.00    +0.000 NA
ATOM     14  C   UNL     1       1.068   4.408  20.347  0.00  0.00    +0.000 C 
ATOM     15  C   UNL     1       2.195   4.277  21.352  0.00  0.00    +0.000 C 
ATOM     16  C   UNL     1       2.328   2.776  21.558  0.00  0.00    +0.000 C 
ATOM     17  C   UNL     1       1.771   2.130  20.292  0.00  0.00    +0.000 C 
ENDBRANCH  10  13
ENDBRANCH   6  10
BRANCH   1  18
ATOM     18  C   UNL     1       7.122   7.989  17.493  0.00  0.00    +0.000 C 
BRANCH  18  19
ATOM     19  C   UNL     1       8.594   8.329  17.750  0.00  0.00    +0.000 C 
BRANCH  19  22
ATOM     20  O   UNL     1       9.408  10.936  18.028  0.00  0.00    +0.000 OA
ATOM     21  C   UNL     1       9.176  10.321  19.060  0.00  0.00    +0.000 C 
ATOM     22  N   UNL     1       8.816   8.985  19.039  0.00  0.00    +0.000 N 
ATOM     23  N   UNL     1       9.266  10.806  20.343  0.00  0.00    +0.000 N 
ATOM     24  H   UNL     1       8.199   8.704  19.788  0.00  0.00    +0.000 HD
ATOM     25  H   UNL     1       9.164  10.130  21.087  0.00  0.00    +0.000 HD
BRANCH  23  26
ATOM     26  C   UNL     1       9.645  12.110  20.729  0.00  0.00    +0.000 A 
ATOM     27  C   UNL     1       8.951  12.871  21.675  0.00  0.00    +0.000 A 
ATOM     28  C   UNL     1       9.339  14.182  21.964  0.00  0.00    +0.000 A 
ATOM     29  C   UNL     1      10.441  14.740  21.324  0.00  0.00    +0.000 A 
ATOM     30  C   UNL     1      11.166  13.981  20.409  0.00  0.00    +0.000 A 
ATOM     31  C   UNL     1      10.770  12.672  20.113  0.00  0.00    +0.000 A 
ENDBRANCH  23  26
ENDBRANCH  19  22
ENDBRANCH  18  19
ENDBRANCH   1  18
TORSDOF 6
ENDMDL
MODEL 5
REMARK VINA RESULT:      -8.5      1.061      1.114
REMARK  Name = 
REMARK  6 active torsions:
REMARK  status: ('A' for Active; 'I' for Inactive)
REMARK    1  A    between atoms: N_3  and  C_4
REMARK    2  A    between atoms: C_4  and  C_5
REMARK    3  A    between atoms: C_5  and  N_6
REMARK    4  A    between atoms: C_11  and  S_12
REMARK    5  A    between atoms: S_12  and  N_15
REMARK    6  A    between atoms: N_23  and  C_24
REMARK                            x       y       z     vdW  Elec       q    Type
REMARK                         _______ _______ _______ _____ _____    ______ ____
ROOT
ATOM      1  N   UNL     1       7.114   6.332  17.949  0.00  0.00    +0.000 N 
ATOM      2  N   UNL     1       7.834   5.503  18.726  0.00  0.00    +0.000 NA
ATOM      3  N   UNL     1       7.020   4.539  19.145  0.00  0.00    +0.000 NA
ATOM      4  C   UNL     1       5.767   4.786  18.647  0.00  0.00    +0.000 A 
ATOM      5  C   UNL     1       4.567   4.063  18.763  0.00  0.00    +0.000 A 
ATOM      6  C   UNL     1       3.422   4.581  18.128  0.00  0.00    +0.000 A 
ATOM      7  C   UNL     1       3.472   5.778  17.401  0.00  0.00    +0.000 A 
ATOM      8  C   UNL     1       4.670   6.493  17.266  0.00  0.00    +0.000 A 
ATOM      9  C   UNL     1       5.794   5.953  17.896  0.00  0.00    +0.000 A 
ENDROOT
BRANCH   6  10
ATOM     10  S   UNL     1       1.937   3.586  18.037  0.00  0.00    +0.000 S 
ATOM     11  O   UNL     1       1.019   4.279  17.155  0.00  0.00    +0.000 OA
ATOM     12  O   UNL     1       2.354   2.232  17.754  0.00  0.00    +0.000 OA
BRANCH  10  13
ATOM     13  N   UNL     1       1.276   3.613  19.588  0.00  0.00    +0.000 NA
ATOM     14  C   UNL     1       1.372   4.826  20.411  0.00  0.00    +0.000 C 
ATOM     15  C   UNL     1       2.386   4.450  21.474  0.00  0.00    +0.000 C 
ATOM     16  C   UNL     1       2.111   2.978  21.737  0.00  0.00    +0.000 C 
ATOM     17  C   UNL     1       1.452   2.443  20.468  0.00  0.00    +0.000 C 
ENDBRANCH  10  13
ENDBRANCH   6  10
BRANCH   1  18
ATOM     18  C   UNL     1       7.694   7.494  17.314  0.00  0.00    +0.000 C 
BRANCH  18  19
ATOM     19  C   UNL     1       7.528   8.816  18.070  0.00  0.00    +0.000 C 
BRANCH  19  22
ATOM     20  O   UNL     1       8.154  11.434  17.531  0.00  0.00    +0.000 OA
ATOM     21  C   UNL     1       8.988  10.786  18.148  0.00  0.00    +0.000 C 
ATOM     22  N   UNL     1       8.802   9.443  18.422  0.00  0.00    +0.000 N 
ATOM     23  N   UNL     1      10.201  11.239  18.612  0.00  0.00    +0.000 N 
ATOM     24  H   UNL     1       9.225   9.127  19.284  0.00  0.00    +0.000 HD
ATOM     25  H   UNL     1      10.826  10.541  18.990  0.00  0.00    +0.000 HD
BRANCH  23  26
ATOM     26  C   UNL     1      10.727  12.542  18.470  0.00  0.00    +0.000 A 
ATOM     27  C   UNL     1      10.228  13.658  19.149  0.00  0.00    +0.000 A 
ATOM     28  C   UNL     1      10.751  14.932  18.914  0.00  0.00    +0.000 A 
ATOM     29  C   UNL     1      11.795  15.100  18.011  0.00  0.00    +0.000 A 
ATOM     30  C   UNL     1      12.329  13.993  17.357  0.00  0.00    +0.000 A 
ATOM     31  C   UNL     1      11.797  12.719  17.585  0.00  0.00    +0.000 A 
ENDBRANCH  23  26
ENDBRANCH  19  22
ENDBRANCH  18  19
ENDBRANCH   1  18
TORSDOF 6
ENDMDL
MODEL 6
REMARK VINA RESULT:      -8.3      0.934      1.160
REMARK  Name = 
REMARK  6 active torsions:
REMARK  status: ('A' for Active; 'I' for Inactive)
REMARK    1  A    between atoms: N_3  and  C_4
REMARK    2  A    between atoms: C_4  and  C_5
REMARK    3  A    between atoms: C_5  and  N_6
REMARK    4  A    between atoms: C_11  and  S_12
REMARK    5  A    between atoms: S_12  and  N_15
REMARK    6  A    between atoms: N_23  and  C_24
REMARK                            x       y       z     vdW  Elec       q    Type
REMARK                         _______ _______ _______ _____ _____    ______ ____
ROOT
ATOM      1  N   UNL     1       7.190   6.980  18.148  0.00  0.00    +0.000 N 
ATOM      2  N   UNL     1       8.047   6.331  18.955  0.00  0.00    +0.000 NA
ATOM      3  N   UNL     1       7.460   5.202  19.339  0.00  0.00    +0.000 NA
ATOM      4  C   UNL     1       6.205   5.160  18.787  0.00  0.00    +0.000 A 
ATOM      5  C   UNL     1       5.200   4.180  18.852  0.00  0.00    +0.000 A 
ATOM      6  C   UNL     1       3.994   4.427  18.169  0.00  0.00    +0.000 A 
ATOM      7  C   UNL     1       3.798   5.611  17.444  0.00  0.00    +0.000 A 
ATOM      8  C   UNL     1       4.805   6.584  17.361  0.00  0.00    +0.000 A 
ATOM      9  C   UNL     1       5.995   6.309  18.039  0.00  0.00    +0.000 A 
ENDROOT
BRANCH   6  10
ATOM     10  S   UNL     1       2.782   3.120  18.014  0.00  0.00    +0.000 S 
ATOM     11  O   UNL     1       2.108   3.318  16.746  0.00  0.00    +0.000 OA
ATOM     12  O   UNL     1       3.463   1.878  18.303  0.00  0.00    +0.000 OA
BRANCH  10  13
ATOM     13  N   UNL     1       1.658   3.394  19.240  0.00  0.00    +0.000 NA
ATOM     14  C   UNL     1       1.760   4.596  20.081  0.00  0.00    +0.000 C 
ATOM     15  C   UNL     1       2.223   4.051  21.417  0.00  0.00    +0.000 C 
ATOM     16  C   UNL     1       1.524   2.705  21.526  0.00  0.00    +0.000 C 
ATOM     17  C   UNL     1       1.230   2.270  20.092  0.00  0.00    +0.000 C 
ENDBRANCH  10  13
ENDBRANCH   6  10
BRANCH   1  18
ATOM     18  C   UNL     1       7.514   8.251  17.538  0.00  0.00    +0.000 C 
BRANCH  18  19
ATOM     19  C   UNL     1       8.801   8.917  18.036  0.00  0.00    +0.000 C 
BRANCH  19  22
ATOM     20  O   UNL     1      10.472  11.078  17.777  0.00  0.00    +0.000 OA
ATOM     21  C   UNL     1       9.452  11.250  18.431  0.00  0.00    +0.000 C 
ATOM     22  N   UNL     1       8.569  10.213  18.674  0.00  0.00    +0.000 N 
ATOM     23  N   UNL     1       9.050  12.417  19.035  0.00  0.00    +0.000 N 
ATOM     24  H   UNL     1       7.602  10.496  18.758  0.00  0.00    +0.000 HD
ATOM     25  H   UNL     1       8.245  12.353  19.643  0.00  0.00    +0.000 HD
BRANCH  23  26
ATOM     26  C   UNL     1       9.732  13.653  19.024  0.00  0.00    +0.000 A 
ATOM     27  C   UNL     1       9.575  14.617  18.024  0.00  0.00    +0.000 A 
ATOM     28  C   UNL     1      10.330  15.792  18.037  0.00  0.00    +0.000 A 
ATOM     29  C   UNL     1      11.238  16.026  19.064  0.00  0.00    +0.000 A 
ATOM     30  C   UNL     1      11.377  15.094  20.090  0.00  0.00    +0.000 A 
ATOM     31  C   UNL     1      10.627  13.912  20.069  0.00  0.00    +0.000 A 
ENDBRANCH  23  26
ENDBRANCH  19  22
ENDBRANCH  18  19
ENDBRANCH   1  18
TORSDOF 6
ENDMDL
MODEL 7
REMARK VINA RESULT:      -8.3      1.664      2.038
REMARK  Name = 
REMARK  6 active torsions:
REMARK  status: ('A' for Active; 'I' for Inactive)
REMARK    1  A    between atoms: N_3  and  C_4
REMARK    2  A    between atoms: C_4  and  C_5
REMARK    3  A    between atoms: C_5  and  N_6
REMARK    4  A    between atoms: C_11  and  S_12
REMARK    5  A    between atoms: S_12  and  N_15
REMARK    6  A    between atoms: N_23  and  C_24
REMARK                            x       y       z     vdW  Elec       q    Type
REMARK                         _______ _______ _______ _____ _____    ______ ____
ROOT
ATOM      1  N   UNL     1       7.371   6.609  17.615  0.00  0.00    +0.000 N 
ATOM      2  N   UNL     1       7.644   6.504  16.303  0.00  0.00    +0.000 NA
ATOM      3  N   UNL     1       6.673   5.785  15.747  0.00  0.00    +0.000 NA
ATOM      4  C   UNL     1       5.796   5.412  16.733  0.00  0.00    +0.000 A 
ATOM      5  C   UNL     1       4.598   4.680  16.674  0.00  0.00    +0.000 A 
ATOM      6  C   UNL     1       3.906   4.451  17.878  0.00  0.00    +0.000 A 
ATOM      7  C   UNL     1       4.393   4.935  19.100  0.00  0.00    +0.000 A 
ATOM      8  C   UNL     1       5.578   5.682  19.162  0.00  0.00    +0.000 A 
ATOM      9  C   UNL     1       6.239   5.904  17.952  0.00  0.00    +0.000 A 
ENDROOT
BRANCH   6  10
ATOM     10  S   UNL     1       2.263   3.742  17.833  0.00  0.00    +0.000 S 
ATOM     11  O   UNL     1       1.338   4.800  18.189  0.00  0.00    +0.000 OA
ATOM     12  O   UNL     1       2.140   3.046  16.573  0.00  0.00    +0.000 OA
BRANCH  10  13
ATOM     13  N   UNL     1       2.229   2.594  19.067  0.00  0.00    +0.000 NA
ATOM     14  C   UNL     1       1.002   2.386  19.849  0.00  0.00    +0.000 C 
ATOM     15  C   UNL     1       1.341   2.984  21.200  0.00  0.00    +0.000 C 
ATOM     16  C   UNL     1       2.815   2.660  21.384  0.00  0.00    +0.000 C 
ATOM     17  C   UNL     1       3.382   2.479  19.978  0.00  0.00    +0.000 C 
ENDBRANCH  10  13
ENDBRANCH   6  10
BRANCH   1  18
ATOM     18  C   UNL     1       8.223   7.340  18.526  0.00  0.00    +0.000 C 
BRANCH  18  19
ATOM     19  C   UNL     1       8.378   8.836  18.234  0.00  0.00    +0.000 C 
BRANCH  19  22
ATOM     20  O   UNL     1       8.907  11.529  18.171  0.00  0.00    +0.000 OA
ATOM     21  C   UNL     1       9.390  10.897  19.101  0.00  0.00    +0.000 C 
ATOM     22  N   UNL     1       9.236   9.525  19.198  0.00  0.00    +0.000 N 
ATOM     23  N   UNL     1      10.157  11.399  20.125  0.00  0.00    +0.000 N 
ATOM     24  H   UNL     1       9.207   9.172  20.144  0.00  0.00    +0.000 HD
ATOM     25  H   UNL     1      10.583  10.721  20.741  0.00  0.00    +0.000 HD
BRANCH  23  26
ATOM     26  C   UNL     1      10.543  12.745  20.310  0.00  0.00    +0.000 A 
ATOM     27  C   UNL     1       9.922  13.612  21.215  0.00  0.00    +0.000 A 
ATOM     28  C   UNL     1      10.309  14.951  21.303  0.00  0.00    +0.000 A 
ATOM     29  C   UNL     1      11.337  15.434  20.500  0.00  0.00    +0.000 A 
ATOM     30  C   UNL     1      11.991  14.573  19.622  0.00  0.00    +0.000 A 
ATOM     31  C   UNL     1      11.596  13.235  19.528  0.00  0.00    +0.000 A 
ENDBRANCH  23  26
ENDBRANCH  19  22
ENDBRANCH  18  19
ENDBRANCH   1  18
TORSDOF 6
ENDMDL
MODEL 8
REMARK VINA RESULT:      -8.2      6.554      9.718
REMARK  Name = 
REMARK  6 active torsions:
REMARK  status: ('A' for Active; 'I' for Inactive)
REMARK    1  A    between atoms: N_3  and  C_4
REMARK    2  A    between atoms: C_4  and  C_5
REMARK    3  A    between atoms: C_5  and  N_6
REMARK    4  A    between atoms: C_11  and  S_12
REMARK    5  A    between atoms: S_12  and  N_15
REMARK    6  A    between atoms: N_23  and  C_24
REMARK                            x       y       z     vdW  Elec       q    Type
REMARK                         _______ _______ _______ _____ _____    ______ ____
ROOT
ATOM      1  N   UNL     1       1.336   9.007  19.646  0.00  0.00    +0.000 N 
ATOM      2  N   UNL     1       0.860   8.596  20.834  0.00  0.00    +0.000 NA
ATOM      3  N   UNL     1       1.357   7.386  21.068  0.00  0.00    +0.000 NA
ATOM      4  C   UNL     1       2.131   7.024  19.997  0.00  0.00    +0.000 A 
ATOM      5  C   UNL     1       2.898   5.870  19.760  0.00  0.00    +0.000 A 
ATOM      6  C   UNL     1       3.597   5.783  18.541  0.00  0.00    +0.000 A 
ATOM      7  C   UNL     1       3.534   6.812  17.591  0.00  0.00    +0.000 A 
ATOM      8  C   UNL     1       2.785   7.973  17.831  0.00  0.00    +0.000 A 
ATOM      9  C   UNL     1       2.110   8.039  19.052  0.00  0.00    +0.000 A 
ENDROOT
BRANCH   6  10
ATOM     10  S   UNL     1       4.776   4.460  18.290  0.00  0.00    +0.000 S 
ATOM     11  O   UNL     1       5.435   4.716  17.024  0.00  0.00    +0.000 OA
ATOM     12  O   UNL     1       5.541   4.341  19.511  0.00  0.00    +0.000 OA
BRANCH  10  13
ATOM     13  N   UNL     1       3.856   3.059  18.115  0.00  0.00    +0.000 NA
ATOM     14  C   UNL     1       2.665   3.059  17.253  0.00  0.00    +0.000 C 
ATOM     15  C   UNL     1       1.517   2.999  18.241  0.00  0.00    +0.000 C 
ATOM     16  C   UNL     1       2.045   2.119  19.363  0.00  0.00    +0.000 C 
ATOM     17  C   UNL     1       3.567   2.231  19.301  0.00  0.00    +0.000 C 
ENDBRANCH  10  13
ENDBRANCH   6  10
BRANCH   1  18
ATOM     18  C   UNL     1       1.001  10.296  19.082  0.00  0.00    +0.000 C 
BRANCH  18  19
ATOM     19  C   UNL     1       0.007  10.273  17.917  0.00  0.00    +0.000 C 
BRANCH  19  22
ATOM     20  O   UNL     1      -2.653   9.790  18.391  0.00  0.00    +0.000 OA
ATOM     21  C   UNL     1      -2.316  10.963  18.304  0.00  0.00    +0.000 C 
ATOM     22  N   UNL     1      -1.012  11.318  18.008  0.00  0.00    +0.000 N 
ATOM     23  N   UNL     1      -3.130  12.063  18.433  0.00  0.00    +0.000 N 
ATOM     24  H   UNL     1      -0.711  12.191  18.419  0.00  0.00    +0.000 HD
ATOM     25  H   UNL     1      -2.716  12.956  18.205  0.00  0.00    +0.000 HD
BRANCH  23  26
ATOM     26  C   UNL     1      -4.517  12.063  18.693  0.00  0.00    +0.000 A 
ATOM     27  C   UNL     1      -5.067  12.211  19.971  0.00  0.00    +0.000 A 
ATOM     28  C   UNL     1      -6.448  12.135  20.169  0.00  0.00    +0.000 A 
ATOM     29  C   UNL     1      -7.297  11.930  19.087  0.00  0.00    +0.000 A 
ATOM     30  C   UNL     1      -6.768  11.820  17.804  0.00  0.00    +0.000 A 
ATOM     31  C   UNL     1      -5.384  11.886  17.608  0.00  0.00    +0.000 A 
ENDBRANCH  23  26
ENDBRANCH  19  22
ENDBRANCH  18  19
ENDBRANCH   1  18
TORSDOF 6
ENDMDL
MODEL 9
REMARK VINA RESULT:      -8.2      6.517      8.654
REMARK  Name = 
REMARK  6 active torsions:
REMARK  status: ('A' for Active; 'I' for Inactive)
REMARK    1  A    between atoms: N_3  and  C_4
REMARK    2  A    between atoms: C_4  and  C_5
REMARK    3  A    between atoms: C_5  and  N_6
REMARK    4  A    between atoms: C_11  and  S_12
REMARK    5  A    between atoms: S_12  and  N_15
REMARK    6  A    between atoms: N_23  and  C_24
REMARK                            x       y       z     vdW  Elec       q    Type
REMARK                         _______ _______ _______ _____ _____    ______ ____
ROOT
ATOM      1  N   UNL     1       1.342   9.139  19.304  0.00  0.00    +0.000 N 
ATOM      2  N   UNL     1       0.888   8.818  20.528  0.00  0.00    +0.000 NA
ATOM      3  N   UNL     1       1.430   7.651  20.863  0.00  0.00    +0.000 NA
ATOM      4  C   UNL     1       2.210   7.223  19.820  0.00  0.00    +0.000 A 
ATOM      5  C   UNL     1       3.016   6.080  19.678  0.00  0.00    +0.000 A 
ATOM      6  C   UNL     1       3.709   5.911  18.465  0.00  0.00    +0.000 A 
ATOM      7  C   UNL     1       3.603   6.849  17.429  0.00  0.00    +0.000 A 
ATOM      8  C   UNL     1       2.815   7.999  17.573  0.00  0.00    +0.000 A 
ATOM      9  C   UNL     1       2.146   8.150  18.790  0.00  0.00    +0.000 A 
ENDROOT
BRANCH   6  10
ATOM     10  S   UNL     1       4.933   4.612  18.321  0.00  0.00    +0.000 S 
ATOM     11  O   UNL     1       5.690   4.879  17.113  0.00  0.00    +0.000 OA
ATOM     12  O   UNL     1       5.594   4.513  19.602  0.00  0.00    +0.000 OA
BRANCH  10  13
ATOM     13  N   UNL     1       4.060   3.191  18.075  0.00  0.00    +0.000 NA
ATOM     14  C   UNL     1       2.867   3.196  17.217  0.00  0.00    +0.000 C 
ATOM     15  C   UNL     1       1.725   3.044  18.204  0.00  0.00    +0.000 C 
ATOM     16  C   UNL     1       2.289   2.125  19.276  0.00  0.00    +0.000 C 
ATOM     17  C   UNL     1       3.805   2.293  19.216  0.00  0.00    +0.000 C 
ENDBRANCH  10  13
ENDBRANCH   6  10
BRANCH   1  18
ATOM     18  C   UNL     1       0.957  10.361  18.632  0.00  0.00    +0.000 C 
BRANCH  18  19
ATOM     19  C   UNL     1       1.380  11.660  19.326  0.00  0.00    +0.000 C 
BRANCH  19  22
ATOM     20  O   UNL     1      -0.894  12.885  20.253  0.00  0.00    +0.000 OA
ATOM     21  C   UNL     1      -0.203  12.312  21.084  0.00  0.00    +0.000 C 
ATOM     22  N   UNL     1       0.995  11.712  20.736  0.00  0.00    +0.000 N 
ATOM     23  N   UNL     1      -0.455  12.205  22.431  0.00  0.00    +0.000 N 
ATOM     24  H   UNL     1       1.234  10.900  21.288  0.00  0.00    +0.000 HD
ATOM     25  H   UNL     1       0.282  11.808  22.996  0.00  0.00    +0.000 HD
BRANCH  23  26
ATOM     26  C   UNL     1      -1.563  12.736  23.128  0.00  0.00    +0.000 A 
ATOM     27  C   UNL     1      -2.770  12.052  23.301  0.00  0.00    +0.000 A 
ATOM     28  C   UNL     1      -3.852  12.659  23.943  0.00  0.00    +0.000 A 
ATOM     29  C   UNL     1      -3.730  13.953  24.440  0.00  0.00    +0.000 A 
ATOM     30  C   UNL     1      -2.522  14.633  24.310  0.00  0.00    +0.000 A 
ATOM     31  C   UNL     1      -1.443  14.027  23.657  0.00  0.00    +0.000 A 
ENDBRANCH  23  26
ENDBRANCH  19  22
ENDBRANCH  18  19
ENDBRANCH   1  18
TORSDOF 6
ENDMDL
