MODEL 1
REMARK VINA RESULT:      -9.9      0.000      0.000
REMARK  Name = 
REMARK  3 active torsions:
REMARK  status: ('A' for Active; 'I' for Inactive)
REMARK    1  A    between atoms: C_2  and  C_3
REMARK    2  A    between atoms: C_16  and  O_17
REMARK    3  A    between atoms: C_16  and  C_18
REMARK                            x       y       z     vdW  Elec       q    Type
REMARK                         _______ _______ _______ _____ _____    ______ ____
ROOT
ATOM      1  O   UNL     1       1.655   4.421  19.018  0.00  0.00    +0.000 OA
ATOM      2  C   UNL     1       2.514   5.272  18.777  0.00  0.00    +0.000 C 
ATOM      3  N   UNL     1       3.797   4.932  18.318  0.00  0.00    +0.000 N 
ATOM      4  C   UNL     1       4.024   3.559  17.874  0.00  0.00    +0.000 C 
ATOM      5  C   UNL     1       4.523   3.541  16.431  0.00  0.00    +0.000 C 
ATOM      6  C   UNL     1       5.793   4.410  16.263  0.00  0.00    +0.000 C 
ATOM      7  C   UNL     1       5.504   5.850  16.792  0.00  0.00    +0.000 C 
ATOM      8  C   UNL     1       6.669   6.845  16.735  0.00  0.00    +0.000 C 
ATOM      9  C   UNL     1       7.832   6.459  17.627  0.00  0.00    +0.000 C 
ATOM     10  C   UNL     1       7.458   6.012  19.040  0.00  0.00    +0.000 C 
ATOM     11  C   UNL     1       6.023   5.544  19.316  0.00  0.00    +0.000 C 
ATOM     12  C   UNL     1       4.971   5.833  18.231  0.00  0.00    +0.000 C 
ENDROOT
BRANCH   2  13
ATOM     13  C   UNL     1       2.128   6.704  18.979  0.00  0.00    +0.000 A 
ATOM     14  C   UNL     1       2.148   7.572  17.895  0.00  0.00    +0.000 A 
ATOM     15  C   UNL     1       1.768   8.895  18.108  0.00  0.00    +0.000 A 
ATOM     16  C   UNL     1       1.371   9.299  19.395  0.00  0.00    +0.000 A 
ATOM     17  C   UNL     1       0.924  10.585  19.702  0.00  0.00    +0.000 A 
ATOM     18  N   UNL     1       0.513  10.965  20.932  0.00  0.00    +0.000 NA
ATOM     19  C   UNL     1       0.550  10.029  21.898  0.00  0.00    +0.000 A 
ATOM     20  C   UNL     1       0.989   8.734  21.694  0.00  0.00    +0.000 A 
ATOM     21  C   UNL     1       1.409   8.358  20.434  0.00  0.00    +0.000 A 
ATOM     22  N   UNL     1       1.816   7.099  20.241  0.00  0.00    +0.000 NA
ENDBRANCH   2  13
BRANCH   6  23
ATOM     23  C   UNL     1       6.246   4.410  14.797  0.00  0.00    +0.000 A 
ATOM     24  C   UNL     1       5.551   3.653  13.827  0.00  0.00    +0.000 A 
ATOM     25  C   UNL     1       5.970   3.629  12.496  0.00  0.00    +0.000 A 
ATOM     26  C   UNL     1       7.088   4.350  12.099  0.00  0.00    +0.000 A 
ATOM     27  C   UNL     1       7.778   5.121  13.029  0.00  0.00    +0.000 A 
ATOM     28  C   UNL     1       7.353   5.161  14.360  0.00  0.00    +0.000 A 
ENDBRANCH   6  23
BRANCH   6  29
ATOM     29  O   UNL     1       6.801   3.787  17.069  0.00  0.00    +0.000 OA
ATOM     30  H   UNL     1       7.666   4.012  16.679  0.00  0.00    +0.000 HD
ENDBRANCH   6  29
TORSDOF 3
ENDMDL
MODEL 2
REMARK VINA RESULT:      -9.6      0.858      1.562
REMARK  Name = 
REMARK  3 active torsions:
REMARK  status: ('A' for Active; 'I' for Inactive)
REMARK    1  A    between atoms: C_2  and  C_3
REMARK    2  A    between atoms: C_16  and  O_17
REMARK    3  A    between atoms: C_16  and  C_18
REMARK                            x       y       z     vdW  Elec       q    Type
REMARK                         _______ _______ _______ _____ _____    ______ ____
ROOT
ATOM      1  O   UNL     1       2.272   3.706  19.649  0.00  0.00    +0.000 OA
ATOM      2  C   UNL     1       2.952   4.679  19.312  0.00  0.00    +0.000 C 
ATOM      3  N   UNL     1       4.212   4.538  18.707  0.00  0.00    +0.000 N 
ATOM      4  C   UNL     1       4.601   3.211  18.236  0.00  0.00    +0.000 C 
ATOM      5  C   UNL     1       4.928   3.248  16.745  0.00  0.00    +0.000 C 
ATOM      6  C   UNL     1       6.016   4.305  16.433  0.00  0.00    +0.000 C 
ATOM      7  C   UNL     1       5.565   5.689  16.996  0.00  0.00    +0.000 C 
ATOM      8  C   UNL     1       6.542   6.855  16.806  0.00  0.00    +0.000 C 
ATOM      9  C   UNL     1       7.847   6.672  17.556  0.00  0.00    +0.000 C 
ATOM     10  C   UNL     1       7.713   6.194  19.002  0.00  0.00    +0.000 C 
ATOM     11  C   UNL     1       6.412   5.510  19.441  0.00  0.00    +0.000 C 
ATOM     12  C   UNL     1       5.210   5.611  18.486  0.00  0.00    +0.000 C 
ENDROOT
BRANCH   2  13
ATOM     13  C   UNL     1       2.369   6.035  19.560  0.00  0.00    +0.000 A 
ATOM     14  C   UNL     1       1.759   6.300  20.778  0.00  0.00    +0.000 A 
ATOM     15  C   UNL     1       1.240   7.575  20.987  0.00  0.00    +0.000 A 
ATOM     16  C   UNL     1       1.359   8.542  19.974  0.00  0.00    +0.000 A 
ATOM     17  C   UNL     1       0.920   9.861  20.103  0.00  0.00    +0.000 A 
ATOM     18  N   UNL     1       1.063  10.799  19.141  0.00  0.00    +0.000 NA
ATOM     19  C   UNL     1       1.666  10.411  18.002  0.00  0.00    +0.000 A 
ATOM     20  C   UNL     1       2.122   9.125  17.777  0.00  0.00    +0.000 A 
ATOM     21  C   UNL     1       1.968   8.174  18.766  0.00  0.00    +0.000 A 
ATOM     22  N   UNL     1       2.427   6.937  18.546  0.00  0.00    +0.000 NA
ENDBRANCH   2  13
BRANCH   6  23
ATOM     23  C   UNL     1       6.292   4.352  14.925  0.00  0.00    +0.000 A 
ATOM     24  C   UNL     1       5.442   3.684  14.014  0.00  0.00    +0.000 A 
ATOM     25  C   UNL     1       5.699   3.703  12.642  0.00  0.00    +0.000 A 
ATOM     26  C   UNL     1       6.805   4.379  12.145  0.00  0.00    +0.000 A 
ATOM     27  C   UNL     1       7.646   5.062  13.017  0.00  0.00    +0.000 A 
ATOM     28  C   UNL     1       7.385   5.060  14.390  0.00  0.00    +0.000 A 
ENDBRANCH   6  23
BRANCH   6  29
ATOM     29  O   UNL     1       7.196   3.861  17.116  0.00  0.00    +0.000 OA
ATOM     30  H   UNL     1       6.949   3.695  18.045  0.00  0.00    +0.000 HD
ENDBRANCH   6  29
TORSDOF 3
ENDMDL
MODEL 3
REMARK VINA RESULT:      -7.7      5.024      9.003
REMARK  Name = 
REMARK  3 active torsions:
REMARK  status: ('A' for Active; 'I' for Inactive)
REMARK    1  A    between atoms: C_2  and  C_3
REMARK    2  A    between atoms: C_16  and  O_17
REMARK    3  A    between atoms: C_16  and  C_18
REMARK                            x       y       z     vdW  Elec       q    Type
REMARK                         _______ _______ _______ _____ _____    ______ ____
ROOT
ATOM      1  O   UNL     1      -0.004  14.394  22.328  0.00  0.00    +0.000 OA
ATOM      2  C   UNL     1      -0.737  13.566  21.781  0.00  0.00    +0.000 C 
ATOM      3  N   UNL     1      -0.330  12.837  20.651  0.00  0.00    +0.000 N 
ATOM      4  C   UNL     1       1.083  12.881  20.280  0.00  0.00    +0.000 C 
ATOM      5  C   UNL     1       1.667  11.470  20.241  0.00  0.00    +0.000 C 
ATOM      6  C   UNL     1       0.858  10.551  19.294  0.00  0.00    +0.000 C 
ATOM      7  C   UNL     1      -0.646  10.579  19.711  0.00  0.00    +0.000 C 
ATOM      8  C   UNL     1      -1.607   9.746  18.855  0.00  0.00    +0.000 C 
ATOM      9  C   UNL     1      -1.716  10.236  17.425  0.00  0.00    +0.000 C 
ATOM     10  C   UNL     1      -1.875  11.748  17.258  0.00  0.00    +0.000 C 
ATOM     11  C   UNL     1      -1.463  12.671  18.412  0.00  0.00    +0.000 C 
ATOM     12  C   UNL     1      -1.194  12.011  19.776  0.00  0.00    +0.000 C 
ENDROOT
BRANCH   2  13
ATOM     13  C   UNL     1      -2.089  13.349  22.385  0.00  0.00    +0.000 A 
ATOM     14  C   UNL     1      -2.276  12.300  23.273  0.00  0.00    +0.000 A 
ATOM     15  C   UNL     1      -3.541  12.132  23.832  0.00  0.00    +0.000 A 
ATOM     16  C   UNL     1      -4.569  13.027  23.490  0.00  0.00    +0.000 A 
ATOM     17  C   UNL     1      -5.855  12.978  24.032  0.00  0.00    +0.000 A 
ATOM     18  N   UNL     1      -6.834  13.858  23.728  0.00  0.00    +0.000 NA
ATOM     19  C   UNL     1      -6.525  14.826  22.845  0.00  0.00    +0.000 A 
ATOM     20  C   UNL     1      -5.285  14.948  22.246  0.00  0.00    +0.000 A 
ATOM     21  C   UNL     1      -4.293  14.042  22.563  0.00  0.00    +0.000 A 
ATOM     22  N   UNL     1      -3.092  14.177  21.991  0.00  0.00    +0.000 NA
ENDBRANCH   2  13
BRANCH   6  23
ATOM     23  C   UNL     1       1.440   9.132  19.309  0.00  0.00    +0.000 A 
ATOM     24  C   UNL     1       2.037   8.584  18.151  0.00  0.00    +0.000 A 
ATOM     25  C   UNL     1       2.548   7.285  18.149  0.00  0.00    +0.000 A 
ATOM     26  C   UNL     1       2.474   6.501  19.292  0.00  0.00    +0.000 A 
ATOM     27  C   UNL     1       1.911   7.022  20.452  0.00  0.00    +0.000 A 
ATOM     28  C   UNL     1       1.412   8.328  20.464  0.00  0.00    +0.000 A 
ENDBRANCH   6  23
BRANCH   6  29
ATOM     29  O   UNL     1       1.012  11.112  17.983  0.00  0.00    +0.000 OA
ATOM     30  H   UNL     1       0.779  12.057  18.042  0.00  0.00    +0.000 HD
ENDBRANCH   6  29
TORSDOF 3
ENDMDL
MODEL 4
REMARK VINA RESULT:      -7.6      3.183      6.701
REMARK  Name = 
REMARK  3 active torsions:
REMARK  status: ('A' for Active; 'I' for Inactive)
REMARK    1  A    between atoms: C_2  and  C_3
REMARK    2  A    between atoms: C_16  and  O_17
REMARK    3  A    between atoms: C_16  and  C_18
REMARK                            x       y       z     vdW  Elec       q    Type
REMARK                         _______ _______ _______ _____ _____    ______ ____
ROOT
ATOM      1  O   UNL     1       7.258   5.807  15.880  0.00  0.00    +0.000 OA
ATOM      2  C   UNL     1       6.642   6.423  16.753  0.00  0.00    +0.000 C 
ATOM      3  N   UNL     1       5.285   6.181  17.023  0.00  0.00    +0.000 N 
ATOM      4  C   UNL     1       4.668   4.997  16.430  0.00  0.00    +0.000 C 
ATOM      5  C   UNL     1       4.079   4.101  17.517  0.00  0.00    +0.000 C 
ATOM      6  C   UNL     1       3.079   4.878  18.407  0.00  0.00    +0.000 C 
ATOM      7  C   UNL     1       3.779   6.152  18.976  0.00  0.00    +0.000 C 
ATOM      8  C   UNL     1       2.921   7.066  19.859  0.00  0.00    +0.000 C 
ATOM      9  C   UNL     1       1.765   7.705  19.116  0.00  0.00    +0.000 C 
ATOM     10  C   UNL     1       2.107   8.295  17.747  0.00  0.00    +0.000 C 
ATOM     11  C   UNL     1       3.381   7.825  17.033  0.00  0.00    +0.000 C 
ATOM     12  C   UNL     1       4.391   7.013  17.863  0.00  0.00    +0.000 C 
ENDROOT
BRANCH   2  13
ATOM     13  C   UNL     1       7.410   7.439  17.538  0.00  0.00    +0.000 A 
ATOM     14  C   UNL     1       8.132   7.033  18.653  0.00  0.00    +0.000 A 
ATOM     15  C   UNL     1       8.850   7.998  19.355  0.00  0.00    +0.000 A 
ATOM     16  C   UNL     1       8.829   9.332  18.911  0.00  0.00    +0.000 A 
ATOM     17  C   UNL     1       9.554  10.362  19.511  0.00  0.00    +0.000 A 
ATOM     18  N   UNL     1       9.559  11.638  19.065  0.00  0.00    +0.000 NA
ATOM     19  C   UNL     1       8.810  11.902  17.979  0.00  0.00    +0.000 A 
ATOM     20  C   UNL     1       8.048  10.951  17.324  0.00  0.00    +0.000 A 
ATOM     21  C   UNL     1       8.049   9.652  17.791  0.00  0.00    +0.000 A 
ATOM     22  N   UNL     1       7.323   8.735  17.141  0.00  0.00    +0.000 NA
ENDBRANCH   2  13
BRANCH   6  23
ATOM     23  C   UNL     1       2.538   3.968  19.516  0.00  0.00    +0.000 A 
ATOM     24  C   UNL     1       1.147   3.768  19.672  0.00  0.00    +0.000 A 
ATOM     25  C   UNL     1       0.645   2.959  20.693  0.00  0.00    +0.000 A 
ATOM     26  C   UNL     1       1.510   2.335  21.582  0.00  0.00    +0.000 A 
ATOM     27  C   UNL     1       2.884   2.497  21.439  0.00  0.00    +0.000 A 
ATOM     28  C   UNL     1       3.392   3.293  20.409  0.00  0.00    +0.000 A 
ENDBRANCH   6  23
BRANCH   6  29
ATOM     29  O   UNL     1       2.002   5.259  17.540  0.00  0.00    +0.000 OA
ATOM     30  H   UNL     1       2.219   6.138  17.176  0.00  0.00    +0.000 HD
ENDBRANCH   6  29
TORSDOF 3
ENDMDL
MODEL 5
REMARK VINA RESULT:      -7.4      5.909      9.903
REMARK  Name = 
REMARK  3 active torsions:
REMARK  status: ('A' for Active; 'I' for Inactive)
REMARK    1  A    between atoms: C_2  and  C_3
REMARK    2  A    between atoms: C_16  and  O_17
REMARK    3  A    between atoms: C_16  and  C_18
REMARK                            x       y       z     vdW  Elec       q    Type
REMARK                         _______ _______ _______ _____ _____    ______ ____
ROOT
ATOM      1  O   UNL     1      -3.854  12.115  23.752  0.00  0.00    +0.000 OA
ATOM      2  C   UNL     1      -3.589  12.461  22.598  0.00  0.00    +0.000 C 
ATOM      3  N   UNL     1      -2.270  12.509  22.115  0.00  0.00    +0.000 N 
ATOM      4  C   UNL     1      -1.222  11.888  22.922  0.00  0.00    +0.000 C 
ATOM      5  C   UNL     1      -0.487  10.822  22.112  0.00  0.00    +0.000 C 
ATOM      6  C   UNL     1       0.080  11.406  20.795  0.00  0.00    +0.000 C 
ATOM      7  C   UNL     1      -1.075  12.092  19.998  0.00  0.00    +0.000 C 
ATOM      8  C   UNL     1      -0.687  12.760  18.674  0.00  0.00    +0.000 C 
ATOM      9  C   UNL     1       0.255  13.934  18.846  0.00  0.00    +0.000 C 
ATOM     10  C   UNL     1      -0.114  14.916  19.959  0.00  0.00    +0.000 C 
ATOM     11  C   UNL     1      -1.061  14.453  21.074  0.00  0.00    +0.000 C 
ATOM     12  C   UNL     1      -1.816  13.131  20.849  0.00  0.00    +0.000 C 
ENDROOT
BRANCH   2  13
ATOM     13  C   UNL     1      -4.742  12.816  21.712  0.00  0.00    +0.000 A 
ATOM     14  C   UNL     1      -5.741  13.647  22.198  0.00  0.00    +0.000 A 
ATOM     15  C   UNL     1      -6.794  13.974  21.347  0.00  0.00    +0.000 A 
ATOM     16  C   UNL     1      -6.803  13.465  20.036  0.00  0.00    +0.000 A 
ATOM     17  C   UNL     1      -7.781  13.773  19.090  0.00  0.00    +0.000 A 
ATOM     18  N   UNL     1      -7.773  13.310  17.820  0.00  0.00    +0.000 NA
ATOM     19  C   UNL     1      -6.751  12.505  17.477  0.00  0.00    +0.000 A 
ATOM     20  C   UNL     1      -5.743  12.133  18.347  0.00  0.00    +0.000 A 
ATOM     21  C   UNL     1      -5.763  12.611  19.642  0.00  0.00    +0.000 A 
ATOM     22  N   UNL     1      -4.775  12.260  20.473  0.00  0.00    +0.000 NA
ENDBRANCH   2  13
BRANCH   6  23
ATOM     23  C   UNL     1       0.773  10.306  19.983  0.00  0.00    +0.000 A 
ATOM     24  C   UNL     1       1.049   9.046  20.561  0.00  0.00    +0.000 A 
ATOM     25  C   UNL     1       1.701   8.047  19.836  0.00  0.00    +0.000 A 
ATOM     26  C   UNL     1       2.096   8.277  18.525  0.00  0.00    +0.000 A 
ATOM     27  C   UNL     1       1.818   9.500  17.924  0.00  0.00    +0.000 A 
ATOM     28  C   UNL     1       1.152  10.498  18.640  0.00  0.00    +0.000 A 
ENDBRANCH   6  23
BRANCH   6  29
ATOM     29  O   UNL     1       1.050  12.386  21.189  0.00  0.00    +0.000 OA
ATOM     30  H   UNL     1       0.962  12.511  22.153  0.00  0.00    +0.000 HD
ENDBRANCH   6  29
TORSDOF 3
ENDMDL
MODEL 6
REMARK VINA RESULT:      -7.3      4.120      8.664
REMARK  Name = 
REMARK  3 active torsions:
REMARK  status: ('A' for Active; 'I' for Inactive)
REMARK    1  A    between atoms: C_2  and  C_3
REMARK    2  A    between atoms: C_16  and  O_17
REMARK    3  A    between atoms: C_16  and  C_18
REMARK                            x       y       z     vdW  Elec       q    Type
REMARK                         _______ _______ _______ _____ _____    ______ ____
ROOT
ATOM      1  O   UNL     1       3.268   8.103  17.425  0.00  0.00    +0.000 OA
ATOM      2  C   UNL     1       2.497   7.840  18.351  0.00  0.00    +0.000 C 
ATOM      3  N   UNL     1       1.893   8.842  19.130  0.00  0.00    +0.000 N 
ATOM      4  C   UNL     1       1.987  10.223  18.661  0.00  0.00    +0.000 C 
ATOM      5  C   UNL     1       0.593  10.823  18.491  0.00  0.00    +0.000 C 
ATOM      6  C   UNL     1      -0.229  10.720  19.799  0.00  0.00    +0.000 C 
ATOM      7  C   UNL     1      -0.256   9.233  20.273  0.00  0.00    +0.000 C 
ATOM      8  C   UNL     1      -1.002   8.947  21.582  0.00  0.00    +0.000 C 
ATOM      9  C   UNL     1      -0.366   9.603  22.791  0.00  0.00    +0.000 C 
ATOM     10  C   UNL     1       1.154   9.465  22.892  0.00  0.00    +0.000 C 
ATOM     11  C   UNL     1       1.954   9.123  21.628  0.00  0.00    +0.000 C 
ATOM     12  C   UNL     1       1.157   8.648  20.400  0.00  0.00    +0.000 C 
ENDROOT
BRANCH   2  13
ATOM     13  C   UNL     1       2.208   6.394  18.607  0.00  0.00    +0.000 A 
ATOM     14  C   UNL     1       1.832   5.579  17.549  0.00  0.00    +0.000 A 
ATOM     15  C   UNL     1       1.586   4.234  17.813  0.00  0.00    +0.000 A 
ATOM     16  C   UNL     1       1.734   3.751  19.125  0.00  0.00    +0.000 A 
ATOM     17  C   UNL     1       1.562   2.414  19.485  0.00  0.00    +0.000 A 
ATOM     18  N   UNL     1       1.736   1.944  20.741  0.00  0.00    +0.000 NA
ATOM     19  C   UNL     1       2.093   2.841  21.678  0.00  0.00    +0.000 A 
ATOM     20  C   UNL     1       2.274   4.187  21.420  0.00  0.00    +0.000 A 
ATOM     21  C   UNL     1       2.091   4.656  20.135  0.00  0.00    +0.000 A 
ATOM     22  N   UNL     1       2.285   5.957  19.891  0.00  0.00    +0.000 NA
ENDBRANCH   2  13
BRANCH   6  23
ATOM     23  C   UNL     1      -1.637  11.289  19.587  0.00  0.00    +0.000 A 
ATOM     24  C   UNL     1      -2.186  12.216  20.501  0.00  0.00    +0.000 A 
ATOM     25  C   UNL     1      -3.476  12.722  20.328  0.00  0.00    +0.000 A 
ATOM     26  C   UNL     1      -4.249  12.316  19.248  0.00  0.00    +0.000 A 
ATOM     27  C   UNL     1      -3.725  11.421  18.321  0.00  0.00    +0.000 A 
ATOM     28  C   UNL     1      -2.429  10.924  18.482  0.00  0.00    +0.000 A 
ENDBRANCH   6  23
BRANCH   6  29
ATOM     29  O   UNL     1       0.467  11.526  20.759  0.00  0.00    +0.000 OA
ATOM     30  H   UNL     1       1.404  11.558  20.488  0.00  0.00    +0.000 HD
ENDBRANCH   6  29
TORSDOF 3
ENDMDL
MODEL 7
REMARK VINA RESULT:      -7.1      5.224      9.015
REMARK  Name = 
REMARK  3 active torsions:
REMARK  status: ('A' for Active; 'I' for Inactive)
REMARK    1  A    between atoms: C_2  and  C_3
REMARK    2  A    between atoms: C_16  and  O_17
REMARK    3  A    between atoms: C_16  and  C_18
REMARK                            x       y       z     vdW  Elec       q    Type
REMARK                         _______ _______ _______ _____ _____    ______ ____
ROOT
ATOM      1  O   UNL     1      -0.303  14.830  21.550  0.00  0.00    +0.000 OA
ATOM      2  C   UNL     1      -1.009  13.935  21.080  0.00  0.00    +0.000 C 
ATOM      3  N   UNL     1      -0.529  13.031  20.117  0.00  0.00    +0.000 N 
ATOM      4  C   UNL     1       0.910  12.998  19.866  0.00  0.00    +0.000 C 
ATOM      5  C   UNL     1       1.459  11.592  20.099  0.00  0.00    +0.000 C 
ATOM      6  C   UNL     1       0.707  10.544  19.244  0.00  0.00    +0.000 C 
ATOM      7  C   UNL     1      -0.824  10.656  19.522  0.00  0.00    +0.000 C 
ATOM      8  C   UNL     1      -1.734   9.709  18.730  0.00  0.00    +0.000 C 
ATOM      9  C   UNL     1      -1.712   9.966  17.236  0.00  0.00    +0.000 C 
ATOM     10  C   UNL     1      -1.819  11.434  16.820  0.00  0.00    +0.000 C 
ATOM     11  C   UNL     1      -1.480  12.523  17.845  0.00  0.00    +0.000 C 
ATOM     12  C   UNL     1      -1.340  12.086  19.313  0.00  0.00    +0.000 C 
ENDROOT
BRANCH   2  13
ATOM     13  C   UNL     1      -2.411  13.834  21.593  0.00  0.00    +0.000 A 
ATOM     14  C   UNL     1      -3.448  14.384  20.852  0.00  0.00    +0.000 A 
ATOM     15  C   UNL     1      -4.744  14.261  21.346  0.00  0.00    +0.000 A 
ATOM     16  C   UNL     1      -4.957  13.582  22.558  0.00  0.00    +0.000 A 
ATOM     17  C   UNL     1      -6.219  13.359  23.112  0.00  0.00    +0.000 A 
ATOM     18  N   UNL     1      -6.427  12.679  24.261  0.00  0.00    +0.000 NA
ATOM     19  C   UNL     1      -5.336  12.203  24.888  0.00  0.00    +0.000 A 
ATOM     20  C   UNL     1      -4.046  12.384  24.424  0.00  0.00    +0.000 A 
ATOM     21  C   UNL     1      -3.845  13.083  23.251  0.00  0.00    +0.000 A 
ATOM     22  N   UNL     1      -2.596  13.239  22.801  0.00  0.00    +0.000 NA
ENDBRANCH   2  13
BRANCH   6  23
ATOM     23  C   UNL     1       1.250   9.138  19.531  0.00  0.00    +0.000 A 
ATOM     24  C   UNL     1       1.967   8.425  18.544  0.00  0.00    +0.000 A 
ATOM     25  C   UNL     1       2.444   7.137  18.789  0.00  0.00    +0.000 A 
ATOM     26  C   UNL     1       2.217   6.526  20.016  0.00  0.00    +0.000 A 
ATOM     27  C   UNL     1       1.532   7.213  21.012  0.00  0.00    +0.000 A 
ATOM     28  C   UNL     1       1.066   8.510  20.777  0.00  0.00    +0.000 A 
ENDBRANCH   6  23
BRANCH   6  29
ATOM     29  O   UNL     1       0.982  10.887  17.879  0.00  0.00    +0.000 OA
ATOM     30  H   UNL     1       1.704  11.542  17.883  0.00  0.00    +0.000 HD
ENDBRANCH   6  29
TORSDOF 3
ENDMDL
MODEL 8
REMARK VINA RESULT:      -7.0      7.662     10.188
REMARK  Name = 
REMARK  3 active torsions:
REMARK  status: ('A' for Active; 'I' for Inactive)
REMARK    1  A    between atoms: C_2  and  C_3
REMARK    2  A    between atoms: C_16  and  O_17
REMARK    3  A    between atoms: C_16  and  C_18
REMARK                            x       y       z     vdW  Elec       q    Type
REMARK                         _______ _______ _______ _____ _____    ______ ____
ROOT
ATOM      1  O   UNL     1       0.588  13.643  22.299  0.00  0.00    +0.000 OA
ATOM      2  C   UNL     1       0.839  13.795  21.101  0.00  0.00    +0.000 C 
ATOM      3  N   UNL     1       1.609  14.871  20.628  0.00  0.00    +0.000 N 
ATOM      4  C   UNL     1       2.337  15.675  21.607  0.00  0.00    +0.000 C 
ATOM      5  C   UNL     1       3.830  15.682  21.285  0.00  0.00    +0.000 C 
ATOM      6  C   UNL     1       4.093  16.170  19.840  0.00  0.00    +0.000 C 
ATOM      7  C   UNL     1       3.257  15.304  18.845  0.00  0.00    +0.000 C 
ATOM      8  C   UNL     1       3.368  15.671  17.361  0.00  0.00    +0.000 C 
ATOM      9  C   UNL     1       2.824  17.049  17.040  0.00  0.00    +0.000 C 
ATOM     10  C   UNL     1       1.472  17.385  17.670  0.00  0.00    +0.000 C 
ATOM     11  C   UNL     1       0.997  16.578  18.886  0.00  0.00    +0.000 C 
ATOM     12  C   UNL     1       1.768  15.288  19.215  0.00  0.00    +0.000 C 
ENDROOT
BRANCH   2  13
ATOM     13  C   UNL     1       0.300  12.766  20.157  0.00  0.00    +0.000 A 
ATOM     14  C   UNL     1       1.157  11.803  19.640  0.00  0.00    +0.000 A 
ATOM     15  C   UNL     1       0.625  10.849  18.778  0.00  0.00    +0.000 A 
ATOM     16  C   UNL     1      -0.747  10.885  18.471  0.00  0.00    +0.000 A 
ATOM     17  C   UNL     1      -1.387   9.946  17.661  0.00  0.00    +0.000 A 
ATOM     18  N   UNL     1      -2.712   9.962  17.392  0.00  0.00    +0.000 NA
ATOM     19  C   UNL     1      -3.430  10.954  17.950  0.00  0.00    +0.000 A 
ATOM     20  C   UNL     1      -2.883  11.937  18.755  0.00  0.00    +0.000 A 
ATOM     21  C   UNL     1      -1.528  11.911  19.020  0.00  0.00    +0.000 A 
ATOM     22  N   UNL     1      -1.011  12.856  19.813  0.00  0.00    +0.000 NA
ENDBRANCH   2  13
BRANCH   6  23
ATOM     23  C   UNL     1       5.594  16.125  19.530  0.00  0.00    +0.000 A 
ATOM     24  C   UNL     1       6.242  17.231  18.934  0.00  0.00    +0.000 A 
ATOM     25  C   UNL     1       7.603  17.190  18.628  0.00  0.00    +0.000 A 
ATOM     26  C   UNL     1       8.350  16.052  18.902  0.00  0.00    +0.000 A 
ATOM     27  C   UNL     1       7.743  14.957  19.508  0.00  0.00    +0.000 A 
ATOM     28  C   UNL     1       6.383  14.998  19.831  0.00  0.00    +0.000 A 
ENDBRANCH   6  23
BRANCH   6  29
ATOM     29  O   UNL     1       3.642  17.531  19.800  0.00  0.00    +0.000 OA
ATOM     30  H   UNL     1       3.592  17.794  18.862  0.00  0.00    +0.000 HD
ENDBRANCH   6  29
TORSDOF 3
ENDMDL
MODEL 9
REMARK VINA RESULT:      -7.0      7.790     13.307
REMARK  Name = 
REMARK  3 active torsions:
REMARK  status: ('A' for Active; 'I' for Inactive)
REMARK    1  A    between atoms: C_2  and  C_3
REMARK    2  A    between atoms: C_16  and  O_17
REMARK    3  A    between atoms: C_16  and  C_18
REMARK                            x       y       z     vdW  Elec       q    Type
REMARK                         _______ _______ _______ _____ _____    ______ ____
ROOT
ATOM      1  O   UNL     1      -1.236  10.616  23.343  0.00  0.00    +0.000 OA
ATOM      2  C   UNL     1      -1.489  11.528  22.552  0.00  0.00    +0.000 C 
ATOM      3  N   UNL     1      -2.630  12.337  22.681  0.00  0.00    +0.000 N 
ATOM      4  C   UNL     1      -3.390  12.255  23.927  0.00  0.00    +0.000 C 
ATOM      5  C   UNL     1      -3.487  13.631  24.582  0.00  0.00    +0.000 C 
ATOM      6  C   UNL     1      -4.093  14.676  23.613  0.00  0.00    +0.000 C 
ATOM      7  C   UNL     1      -3.268  14.686  22.288  0.00  0.00    +0.000 C 
ATOM      8  C   UNL     1      -3.749  15.644  21.191  0.00  0.00    +0.000 C 
ATOM      9  C   UNL     1      -5.122  15.296  20.651  0.00  0.00    +0.000 C 
ATOM     10  C   UNL     1      -5.350  13.817  20.337  0.00  0.00    +0.000 C 
ATOM     11  C   UNL     1      -4.434  12.770  20.984  0.00  0.00    +0.000 C 
ATOM     12  C   UNL     1      -3.158  13.285  21.673  0.00  0.00    +0.000 C 
ENDROOT
BRANCH   2  13
ATOM     13  C   UNL     1      -0.510  11.756  21.443  0.00  0.00    +0.000 A 
ATOM     14  C   UNL     1      -0.618  11.009  20.278  0.00  0.00    +0.000 A 
ATOM     15  C   UNL     1       0.296  11.253  19.256  0.00  0.00    +0.000 A 
ATOM     16  C   UNL     1       1.278  12.244  19.432  0.00  0.00    +0.000 A 
ATOM     17  C   UNL     1       2.206  12.602  18.453  0.00  0.00    +0.000 A 
ATOM     18  N   UNL     1       3.129  13.577  18.610  0.00  0.00    +0.000 NA
ATOM     19  C   UNL     1       3.132  14.221  19.792  0.00  0.00    +0.000 A 
ATOM     20  C   UNL     1       2.262  13.929  20.826  0.00  0.00    +0.000 A 
ATOM     21  C   UNL     1       1.325  12.930  20.654  0.00  0.00    +0.000 A 
ATOM     22  N   UNL     1       0.477  12.665  21.654  0.00  0.00    +0.000 NA
ENDBRANCH   2  13
BRANCH   6  23
ATOM     23  C   UNL     1      -4.138  16.055  24.281  0.00  0.00    +0.000 A 
ATOM     24  C   UNL     1      -2.954  16.675  24.738  0.00  0.00    +0.000 A 
ATOM     25  C   UNL     1      -2.989  17.921  25.368  0.00  0.00    +0.000 A 
ATOM     26  C   UNL     1      -4.198  18.575  25.561  0.00  0.00    +0.000 A 
ATOM     27  C   UNL     1      -5.377  17.998  25.102  0.00  0.00    +0.000 A 
ATOM     28  C   UNL     1      -5.346  16.758  24.457  0.00  0.00    +0.000 A 
ENDBRANCH   6  23
BRANCH   6  29
ATOM     29  O   UNL     1      -5.432  14.233  23.351  0.00  0.00    +0.000 OA
ATOM     30  H   UNL     1      -5.879  14.135  24.213  0.00  0.00    +0.000 HD
ENDBRANCH   6  29
TORSDOF 3
ENDMDL
