MODEL 1
REMARK VINA RESULT:      -7.3      0.000      0.000
REMARK  Name = 
REMARK  5 active torsions:
REMARK  status: ('A' for Active; 'I' for Inactive)
REMARK    1  A    between atoms: C_1  and  N_2
REMARK    2  A    between atoms: N_2  and  C_3
REMARK    3  A    between atoms: N_2  and  C_14
REMARK    4  A    between atoms: C_3  and  C_4
REMARK    5  A    between atoms: C_9  and  C_10
REMARK                            x       y       z     vdW  Elec       q    Type
REMARK                         _______ _______ _______ _____ _____    ______ ____
ROOT
ATOM      1  C   UNL     1       4.379   3.582  17.428  0.00  0.00    +0.000 C 
ENDROOT
BRANCH   1   2
ATOM      2  C   UNL     1       5.541   4.565  17.730  0.00  0.00    +0.000 A 
ATOM      3  C   UNL     1       5.947   4.869  19.062  0.00  0.00    +0.000 A 
ATOM      4  C   UNL     1       7.028   5.725  19.358  0.00  0.00    +0.000 A 
ATOM      5  C   UNL     1       7.760   6.298  18.333  0.00  0.00    +0.000 A 
ATOM      6  C   UNL     1       7.437   5.966  17.020  0.00  0.00    +0.000 A 
ATOM      7  C   UNL     1       6.367   5.084  16.705  0.00  0.00    +0.000 A 
BRANCH   7   8
ATOM      8  C   UNL     1       6.230   4.719  15.243  0.00  0.00    +0.000 C 
ATOM      9  F   UNL     1       6.142   3.394  14.963  0.00  0.00    +0.000 F 
ATOM     10  F   UNL     1       5.119   5.277  14.685  0.00  0.00    +0.000 F 
ATOM     11  F   UNL     1       7.284   5.179  14.510  0.00  0.00    +0.000 F 
ENDBRANCH   7   8
ENDBRANCH   1   2
BRANCH   1  13
ATOM     12  C   UNL     1       2.859   1.805  18.148  0.00  0.00    +0.000 C 
ATOM     13  N   UNL     1       3.245   3.233  18.367  0.00  0.00    +0.000 NA
BRANCH  13  14
ATOM     14  C   UNL     1       1.951   3.958  18.406  0.00  0.00    +0.000 C 
ATOM     15  C   UNL     1       1.999   5.467  18.278  0.00  0.00    +0.000 C 
ATOM     16  C   UNL     1       2.686   6.094  19.481  0.00  0.00    +0.000 C 
ATOM     17  N   UNL     1       1.947   5.842  20.716  0.00  0.00    +0.000 NA
ATOM     18  C   UNL     1       1.772   4.410  20.949  0.00  0.00    +0.000 C 
ATOM     19  C   UNL     1       1.191   3.666  19.748  0.00  0.00    +0.000 C 
ATOM     20  H   UNL     1       1.030   6.284  20.646  0.00  0.00    +0.000 HD
ENDBRANCH  13  14
ENDBRANCH   1  13
TORSDOF 4
ENDMDL
MODEL 2
REMARK VINA RESULT:      -7.3      2.279      3.563
REMARK  Name = 
REMARK  5 active torsions:
REMARK  status: ('A' for Active; 'I' for Inactive)
REMARK    1  A    between atoms: C_1  and  N_2
REMARK    2  A    between atoms: N_2  and  C_3
REMARK    3  A    between atoms: N_2  and  C_14
REMARK    4  A    between atoms: C_3  and  C_4
REMARK    5  A    between atoms: C_9  and  C_10
REMARK                            x       y       z     vdW  Elec       q    Type
REMARK                         _______ _______ _______ _____ _____    ______ ____
ROOT
ATOM      1  C   UNL     1       4.380   5.608  18.756  0.00  0.00    +0.000 C 
ENDROOT
BRANCH   1   2
ATOM      2  C   UNL     1       5.220   5.107  17.551  0.00  0.00    +0.000 A 
ATOM      3  C   UNL     1       4.625   4.775  16.300  0.00  0.00    +0.000 A 
ATOM      4  C   UNL     1       5.374   4.359  15.180  0.00  0.00    +0.000 A 
ATOM      5  C   UNL     1       6.754   4.277  15.260  0.00  0.00    +0.000 A 
ATOM      6  C   UNL     1       7.374   4.664  16.445  0.00  0.00    +0.000 A 
ATOM      7  C   UNL     1       6.635   5.110  17.575  0.00  0.00    +0.000 A 
BRANCH   7   8
ATOM      8  C   UNL     1       7.461   5.621  18.735  0.00  0.00    +0.000 C 
ATOM      9  F   UNL     1       6.859   5.600  19.951  0.00  0.00    +0.000 F 
ATOM     10  F   UNL     1       8.608   4.903  18.892  0.00  0.00    +0.000 F 
ATOM     11  F   UNL     1       7.854   6.912  18.543  0.00  0.00    +0.000 F 
ENDBRANCH   7   8
ENDBRANCH   1   2
BRANCH   1  13
ATOM     12  C   UNL     1       2.271   6.119  19.887  0.00  0.00    +0.000 C 
ATOM     13  N   UNL     1       3.053   5.039  19.209  0.00  0.00    +0.000 NA
BRANCH  13  14
ATOM     14  C   UNL     1       2.920   3.872  20.115  0.00  0.00    +0.000 C 
ATOM     15  C   UNL     1       3.703   2.625  19.755  0.00  0.00    +0.000 C 
ATOM     16  C   UNL     1       3.189   2.013  18.462  0.00  0.00    +0.000 C 
ATOM     17  N   UNL     1       1.804   1.566  18.590  0.00  0.00    +0.000 NA
ATOM     18  C   UNL     1       0.924   2.664  18.990  0.00  0.00    +0.000 C 
ATOM     19  C   UNL     1       1.420   3.419  20.222  0.00  0.00    +0.000 C 
ATOM     20  H   UNL     1       1.760   0.829  19.294  0.00  0.00    +0.000 HD
ENDBRANCH  13  14
ENDBRANCH   1  13
TORSDOF 4
ENDMDL
MODEL 3
REMARK VINA RESULT:      -7.3      2.604      5.450
REMARK  Name = 
REMARK  5 active torsions:
REMARK  status: ('A' for Active; 'I' for Inactive)
REMARK    1  A    between atoms: C_1  and  N_2
REMARK    2  A    between atoms: N_2  and  C_3
REMARK    3  A    between atoms: N_2  and  C_14
REMARK    4  A    between atoms: C_3  and  C_4
REMARK    5  A    between atoms: C_9  and  C_10
REMARK                            x       y       z     vdW  Elec       q    Type
REMARK                         _______ _______ _______ _____ _____    ______ ____
ROOT
ATOM      1  C   UNL     1       4.535   3.120  18.482  0.00  0.00    +0.000 C 
ENDROOT
BRANCH   1   2
ATOM      2  C   UNL     1       3.313   3.027  19.434  0.00  0.00    +0.000 A 
ATOM      3  C   UNL     1       3.446   2.638  20.798  0.00  0.00    +0.000 A 
ATOM      4  C   UNL     1       2.356   2.588  21.691  0.00  0.00    +0.000 A 
ATOM      5  C   UNL     1       1.089   2.946  21.261  0.00  0.00    +0.000 A 
ATOM      6  C   UNL     1       0.936   3.400  19.955  0.00  0.00    +0.000 A 
ATOM      7  C   UNL     1       2.030   3.482  19.048  0.00  0.00    +0.000 A 
BRANCH   7   8
ATOM      8  C   UNL     1       1.724   4.122  17.712  0.00  0.00    +0.000 C 
ATOM      9  F   UNL     1       2.337   3.571  16.633  0.00  0.00    +0.000 F 
ATOM     10  F   UNL     1       0.393   4.082  17.426  0.00  0.00    +0.000 F 
ATOM     11  F   UNL     1       2.069   5.440  17.696  0.00  0.00    +0.000 F 
ENDBRANCH   7   8
ENDBRANCH   1   2
BRANCH   1  13
ATOM     12  C   UNL     1       5.262   5.290  19.348  0.00  0.00    +0.000 C 
ATOM     13  N   UNL     1       5.321   4.375  18.167  0.00  0.00    +0.000 NA
BRANCH  13  14
ATOM     14  C   UNL     1       5.039   5.258  17.009  0.00  0.00    +0.000 C 
ATOM     15  C   UNL     1       5.395   4.729  15.634  0.00  0.00    +0.000 C 
ATOM     16  C   UNL     1       6.899   4.572  15.483  0.00  0.00    +0.000 C 
ATOM     17  N   UNL     1       7.589   5.855  15.585  0.00  0.00    +0.000 NA
ATOM     18  C   UNL     1       7.296   6.519  16.855  0.00  0.00    +0.000 C 
ATOM     19  C   UNL     1       5.802   6.623  17.153  0.00  0.00    +0.000 C 
ATOM     20  H   UNL     1       7.285   6.454  14.817  0.00  0.00    +0.000 HD
ENDBRANCH  13  14
ENDBRANCH   1  13
TORSDOF 4
ENDMDL
MODEL 4
REMARK VINA RESULT:      -7.1      2.062      3.448
REMARK  Name = 
REMARK  5 active torsions:
REMARK  status: ('A' for Active; 'I' for Inactive)
REMARK    1  A    between atoms: C_1  and  N_2
REMARK    2  A    between atoms: N_2  and  C_3
REMARK    3  A    between atoms: N_2  and  C_14
REMARK    4  A    between atoms: C_3  and  C_4
REMARK    5  A    between atoms: C_9  and  C_10
REMARK                            x       y       z     vdW  Elec       q    Type
REMARK                         _______ _______ _______ _____ _____    ______ ____
ROOT
ATOM      1  C   UNL     1       4.858   5.186  18.674  0.00  0.00    +0.000 C 
ENDROOT
BRANCH   1   2
ATOM      2  C   UNL     1       5.541   4.903  17.309  0.00  0.00    +0.000 A 
ATOM      3  C   UNL     1       5.033   3.933  16.397  0.00  0.00    +0.000 A 
ATOM      4  C   UNL     1       5.612   3.691  15.135  0.00  0.00    +0.000 A 
ATOM      5  C   UNL     1       6.712   4.424  14.723  0.00  0.00    +0.000 A 
ATOM      6  C   UNL     1       7.190   5.429  15.559  0.00  0.00    +0.000 A 
ATOM      7  C   UNL     1       6.601   5.704  16.825  0.00  0.00    +0.000 A 
BRANCH   7   8
ATOM      8  C   UNL     1       7.150   6.913  17.551  0.00  0.00    +0.000 C 
ATOM      9  F   UNL     1       7.684   6.681  18.777  0.00  0.00    +0.000 F 
ATOM     10  F   UNL     1       8.138   7.523  16.840  0.00  0.00    +0.000 F 
ATOM     11  F   UNL     1       6.190   7.862  17.743  0.00  0.00    +0.000 F 
ENDBRANCH   7   8
ENDBRANCH   1   2
BRANCH   1  13
ATOM     12  C   UNL     1       2.765   6.205  19.427  0.00  0.00    +0.000 C 
ATOM     13  N   UNL     1       3.408   4.920  19.012  0.00  0.00    +0.000 NA
BRANCH  13  14
ATOM     14  C   UNL     1       2.963   3.945  20.037  0.00  0.00    +0.000 C 
ATOM     15  C   UNL     1       3.601   2.570  20.007  0.00  0.00    +0.000 C 
ATOM     16  C   UNL     1       3.213   1.818  18.744  0.00  0.00    +0.000 C 
ATOM     17  N   UNL     1       1.774   1.569  18.684  0.00  0.00    +0.000 NA
ATOM     18  C   UNL     1       1.014   2.816  18.759  0.00  0.00    +0.000 C 
ATOM     19  C   UNL     1       1.415   3.700  19.938  0.00  0.00    +0.000 C 
ATOM     20  H   UNL     1       1.512   0.970  19.467  0.00  0.00    +0.000 HD
ENDBRANCH  13  14
ENDBRANCH   1  13
TORSDOF 4
ENDMDL
MODEL 5
REMARK VINA RESULT:      -7.1      1.185      1.520
REMARK  Name = 
REMARK  5 active torsions:
REMARK  status: ('A' for Active; 'I' for Inactive)
REMARK    1  A    between atoms: C_1  and  N_2
REMARK    2  A    between atoms: N_2  and  C_3
REMARK    3  A    between atoms: N_2  and  C_14
REMARK    4  A    between atoms: C_3  and  C_4
REMARK    5  A    between atoms: C_9  and  C_10
REMARK                            x       y       z     vdW  Elec       q    Type
REMARK                         _______ _______ _______ _____ _____    ______ ____
ROOT
ATOM      1  C   UNL     1       3.556   4.837  17.582  0.00  0.00    +0.000 C 
ENDROOT
BRANCH   1   2
ATOM      2  C   UNL     1       5.012   5.276  17.891  0.00  0.00    +0.000 A 
ATOM      3  C   UNL     1       5.549   5.237  19.210  0.00  0.00    +0.000 A 
ATOM      4  C   UNL     1       6.882   5.589  19.506  0.00  0.00    +0.000 A 
ATOM      5  C   UNL     1       7.739   5.978  18.490  0.00  0.00    +0.000 A 
ATOM      6  C   UNL     1       7.268   5.958  17.181  0.00  0.00    +0.000 A 
ATOM      7  C   UNL     1       5.934   5.580  16.862  0.00  0.00    +0.000 A 
BRANCH   7   8
ATOM      8  C   UNL     1       5.618   5.481  15.386  0.00  0.00    +0.000 C 
ATOM      9  F   UNL     1       6.686   5.395  14.552  0.00  0.00    +0.000 F 
ATOM     10  F   UNL     1       4.857   4.387  15.105  0.00  0.00    +0.000 F 
ATOM     11  F   UNL     1       4.900   6.555  14.952  0.00  0.00    +0.000 F 
ENDBRANCH   7   8
ENDBRANCH   1   2
BRANCH   1  13
ATOM     12  C   UNL     1       2.417   2.685  17.340  0.00  0.00    +0.000 C 
ATOM     13  N   UNL     1       2.780   3.762  18.312  0.00  0.00    +0.000 NA
BRANCH  13  14
ATOM     14  C   UNL     1       1.524   4.013  19.061  0.00  0.00    +0.000 C 
ATOM     15  C   UNL     1       1.576   5.043  20.172  0.00  0.00    +0.000 C 
ATOM     16  C   UNL     1       2.469   4.573  21.309  0.00  0.00    +0.000 C 
ATOM     17  N   UNL     1       1.949   3.362  21.939  0.00  0.00    +0.000 NA
ATOM     18  C   UNL     1       1.792   2.281  20.967  0.00  0.00    +0.000 C 
ATOM     19  C   UNL     1       1.000   2.691  19.727  0.00  0.00    +0.000 C 
ATOM     20  H   UNL     1       1.041   3.572  22.355  0.00  0.00    +0.000 HD
ENDBRANCH  13  14
ENDBRANCH   1  13
TORSDOF 4
ENDMDL
MODEL 6
REMARK VINA RESULT:      -6.9      2.371      5.423
REMARK  Name = 
REMARK  5 active torsions:
REMARK  status: ('A' for Active; 'I' for Inactive)
REMARK    1  A    between atoms: C_1  and  N_2
REMARK    2  A    between atoms: N_2  and  C_3
REMARK    3  A    between atoms: N_2  and  C_14
REMARK    4  A    between atoms: C_3  and  C_4
REMARK    5  A    between atoms: C_9  and  C_10
REMARK                            x       y       z     vdW  Elec       q    Type
REMARK                         _______ _______ _______ _____ _____    ______ ____
ROOT
ATOM      1  C   UNL     1       3.745   5.584  18.812  0.00  0.00    +0.000 C 
ENDROOT
BRANCH   1   2
ATOM      2  C   UNL     1       2.999   4.471  19.594  0.00  0.00    +0.000 A 
ATOM      3  C   UNL     1       2.490   4.682  20.909  0.00  0.00    +0.000 A 
ATOM      4  C   UNL     1       1.771   3.699  21.620  0.00  0.00    +0.000 A 
ATOM      5  C   UNL     1       1.514   2.470  21.037  0.00  0.00    +0.000 A 
ATOM      6  C   UNL     1       1.934   2.256  19.728  0.00  0.00    +0.000 A 
ATOM      7  C   UNL     1       2.637   3.246  18.987  0.00  0.00    +0.000 A 
BRANCH   7   8
ATOM      8  C   UNL     1       2.903   2.909  17.536  0.00  0.00    +0.000 C 
ATOM      9  F   UNL     1       2.470   3.816  16.624  0.00  0.00    +0.000 F 
ATOM     10  F   UNL     1       4.234   2.760  17.288  0.00  0.00    +0.000 F 
ATOM     11  F   UNL     1       2.324   1.728  17.180  0.00  0.00    +0.000 F 
ENDBRANCH   7   8
ENDBRANCH   1   2
BRANCH   1  13
ATOM     12  C   UNL     1       6.121   5.367  19.356  0.00  0.00    +0.000 C 
ATOM     13  N   UNL     1       5.140   5.479  18.234  0.00  0.00    +0.000 NA
BRANCH  13  14
ATOM     14  C   UNL     1       5.737   6.490  17.328  0.00  0.00    +0.000 C 
ATOM     15  C   UNL     1       5.093   6.667  15.967  0.00  0.00    +0.000 C 
ATOM     16  C   UNL     1       5.265   5.420  15.117  0.00  0.00    +0.000 C 
ATOM     17  N   UNL     1       6.673   5.148  14.836  0.00  0.00    +0.000 NA
ATOM     18  C   UNL     1       7.445   5.004  16.069  0.00  0.00    +0.000 C 
ATOM     19  C   UNL     1       7.246   6.162  17.047  0.00  0.00    +0.000 C 
ATOM     20  H   UNL     1       7.055   5.922  14.292  0.00  0.00    +0.000 HD
ENDBRANCH  13  14
ENDBRANCH   1  13
TORSDOF 4
ENDMDL
MODEL 7
REMARK VINA RESULT:      -6.9      1.296      2.377
REMARK  Name = 
REMARK  5 active torsions:
REMARK  status: ('A' for Active; 'I' for Inactive)
REMARK    1  A    between atoms: C_1  and  N_2
REMARK    2  A    between atoms: N_2  and  C_3
REMARK    3  A    between atoms: N_2  and  C_14
REMARK    4  A    between atoms: C_3  and  C_4
REMARK    5  A    between atoms: C_9  and  C_10
REMARK                            x       y       z     vdW  Elec       q    Type
REMARK                         _______ _______ _______ _____ _____    ______ ____
ROOT
ATOM      1  C   UNL     1       3.786   5.762  17.934  0.00  0.00    +0.000 C 
ENDROOT
BRANCH   1   2
ATOM      2  C   UNL     1       5.311   5.498  18.042  0.00  0.00    +0.000 A 
ATOM      3  C   UNL     1       6.027   5.687  19.260  0.00  0.00    +0.000 A 
ATOM      4  C   UNL     1       7.403   5.412  19.391  0.00  0.00    +0.000 A 
ATOM      5  C   UNL     1       8.118   4.916  18.314  0.00  0.00    +0.000 A 
ATOM      6  C   UNL     1       7.435   4.651  17.130  0.00  0.00    +0.000 A 
ATOM      7  C   UNL     1       6.041   4.898  16.989  0.00  0.00    +0.000 A 
BRANCH   7   8
ATOM      8  C   UNL     1       5.424   4.432  15.689  0.00  0.00    +0.000 C 
ATOM      9  F   UNL     1       6.155   3.548  14.964  0.00  0.00    +0.000 F 
ATOM     10  F   UNL     1       4.223   3.821  15.891  0.00  0.00    +0.000 F 
ATOM     11  F   UNL     1       5.172   5.475  14.849  0.00  0.00    +0.000 F 
ENDBRANCH   7   8
ENDBRANCH   1   2
BRANCH   1  13
ATOM     12  C   UNL     1       2.231   6.222  19.767  0.00  0.00    +0.000 C 
ATOM     13  N   UNL     1       2.717   5.167  18.825  0.00  0.00    +0.000 NA
BRANCH  13  14
ATOM     14  C   UNL     1       2.928   3.979  19.688  0.00  0.00    +0.000 C 
ATOM     15  C   UNL     1       3.512   2.743  19.033  0.00  0.00    +0.000 C 
ATOM     16  C   UNL     1       2.546   2.159  18.015  0.00  0.00    +0.000 C 
ATOM     17  N   UNL     1       1.308   1.704  18.643  0.00  0.00    +0.000 NA
ATOM     18  C   UNL     1       0.649   2.790  19.368  0.00  0.00    +0.000 C 
ATOM     19  C   UNL     1       1.576   3.519  20.340  0.00  0.00    +0.000 C 
ATOM     20  H   UNL     1       1.528   0.952  19.295  0.00  0.00    +0.000 HD
ENDBRANCH  13  14
ENDBRANCH   1  13
TORSDOF 4
ENDMDL
MODEL 8
REMARK VINA RESULT:      -6.9      2.520      5.351
REMARK  Name = 
REMARK  5 active torsions:
REMARK  status: ('A' for Active; 'I' for Inactive)
REMARK    1  A    between atoms: C_1  and  N_2
REMARK    2  A    between atoms: N_2  and  C_3
REMARK    3  A    between atoms: N_2  and  C_14
REMARK    4  A    between atoms: C_3  and  C_4
REMARK    5  A    between atoms: C_9  and  C_10
REMARK                            x       y       z     vdW  Elec       q    Type
REMARK                         _______ _______ _______ _____ _____    ______ ____
ROOT
ATOM      1  C   UNL     1       3.530   5.119  17.734  0.00  0.00    +0.000 C 
ENDROOT
BRANCH   1   2
ATOM      2  C   UNL     1       3.012   4.436  19.027  0.00  0.00    +0.000 A 
ATOM      3  C   UNL     1       2.466   5.183  20.110  0.00  0.00    +0.000 A 
ATOM      4  C   UNL     1       1.949   4.580  21.276  0.00  0.00    +0.000 A 
ATOM      5  C   UNL     1       1.940   3.201  21.397  0.00  0.00    +0.000 A 
ATOM      6  C   UNL     1       2.399   2.438  20.328  0.00  0.00    +0.000 A 
ATOM      7  C   UNL     1       2.899   3.030  19.135  0.00  0.00    +0.000 A 
BRANCH   7   8
ATOM      8  C   UNL     1       3.233   2.066  18.017  0.00  0.00    +0.000 C 
ATOM      9  F   UNL     1       2.239   1.817  17.127  0.00  0.00    +0.000 F 
ATOM     10  F   UNL     1       4.282   2.505  17.269  0.00  0.00    +0.000 F 
ATOM     11  F   UNL     1       3.605   0.846  18.500  0.00  0.00    +0.000 F 
ENDBRANCH   7   8
ENDBRANCH   1   2
BRANCH   1  13
ATOM     12  C   UNL     1       3.424   7.560  17.594  0.00  0.00    +0.000 C 
ATOM     13  N   UNL     1       4.351   6.389  17.670  0.00  0.00    +0.000 NA
BRANCH  13  14
ATOM     14  C   UNL     1       5.369   6.664  16.626  0.00  0.00    +0.000 C 
ATOM     15  C   UNL     1       5.751   5.516  15.713  0.00  0.00    +0.000 C 
ATOM     16  C   UNL     1       6.460   4.417  16.487  0.00  0.00    +0.000 C 
ATOM     17  N   UNL     1       7.723   4.885  17.054  0.00  0.00    +0.000 NA
ATOM     18  C   UNL     1       7.519   6.039  17.928  0.00  0.00    +0.000 C 
ATOM     19  C   UNL     1       6.710   7.159  17.274  0.00  0.00    +0.000 C 
ATOM     20  H   UNL     1       8.347   5.149  16.292  0.00  0.00    +0.000 HD
ENDBRANCH  13  14
ENDBRANCH   1  13
TORSDOF 4
ENDMDL
MODEL 9
REMARK VINA RESULT:      -6.8      2.318      5.293
REMARK  Name = 
REMARK  5 active torsions:
REMARK  status: ('A' for Active; 'I' for Inactive)
REMARK    1  A    between atoms: C_1  and  N_2
REMARK    2  A    between atoms: N_2  and  C_3
REMARK    3  A    between atoms: N_2  and  C_14
REMARK    4  A    between atoms: C_3  and  C_4
REMARK    5  A    between atoms: C_9  and  C_10
REMARK                            x       y       z     vdW  Elec       q    Type
REMARK                         _______ _______ _______ _____ _____    ______ ____
ROOT
ATOM      1  C   UNL     1       4.718   5.068  18.801  0.00  0.00    +0.000 C 
ENDROOT
BRANCH   1   2
ATOM      2  C   UNL     1       3.344   4.590  19.342  0.00  0.00    +0.000 A 
ATOM      3  C   UNL     1       2.639   5.305  20.353  0.00  0.00    +0.000 A 
ATOM      4  C   UNL     1       1.371   4.913  20.828  0.00  0.00    +0.000 A 
ATOM      5  C   UNL     1       0.745   3.798  20.295  0.00  0.00    +0.000 A 
ATOM      6  C   UNL     1       1.372   3.119  19.255  0.00  0.00    +0.000 A 
ATOM      7  C   UNL     1       2.640   3.517  18.747  0.00  0.00    +0.000 A 
BRANCH   7   8
ATOM      8  C   UNL     1       3.123   2.759  17.529  0.00  0.00    +0.000 C 
ATOM      9  F   UNL     1       4.316   2.125  17.655  0.00  0.00    +0.000 F 
ATOM     10  F   UNL     1       2.241   1.791  17.156  0.00  0.00    +0.000 F 
ATOM     11  F   UNL     1       3.255   3.578  16.448  0.00  0.00    +0.000 F 
ENDBRANCH   7   8
ENDBRANCH   1   2
BRANCH   1  13
ATOM     12  C   UNL     1       3.801   6.790  17.323  0.00  0.00    +0.000 C 
ATOM     13  N   UNL     1       4.994   6.399  18.135  0.00  0.00    +0.000 NA
BRANCH  13  14
ATOM     14  C   UNL     1       6.145   6.648  17.233  0.00  0.00    +0.000 C 
ATOM     15  C   UNL     1       6.287   5.743  16.026  0.00  0.00    +0.000 C 
ATOM     16  C   UNL     1       6.592   4.315  16.449  0.00  0.00    +0.000 C 
ATOM     17  N   UNL     1       7.872   4.220  17.146  0.00  0.00    +0.000 NA
ATOM     18  C   UNL     1       7.906   5.091  18.320  0.00  0.00    +0.000 C 
ATOM     19  C   UNL     1       7.501   6.533  18.016  0.00  0.00    +0.000 C 
ATOM     20  H   UNL     1       8.617   4.494  16.505  0.00  0.00    +0.000 HD
ENDBRANCH  13  14
ENDBRANCH   1  13
TORSDOF 4
ENDMDL
