MODEL 1
REMARK VINA RESULT:      -9.6      0.000      0.000
REMARK  Name = 
REMARK  7 active torsions:
REMARK  status: ('A' for Active; 'I' for Inactive)
REMARK    1  A    between atoms: C_1  and  C_2
REMARK    2  A    between atoms: C_2  and  C_3
REMARK    3  A    between atoms: C_2  and  N_16
REMARK    4  A    between atoms: N_19  and  C_20
REMARK    5  A    between atoms: C_20  and  C_21
REMARK    6  A    between atoms: C_21  and  C_23
REMARK    7  A    between atoms: C_26  and  O_27
REMARK                            x       y       z     vdW  Elec       q    Type
REMARK                         _______ _______ _______ _____ _____    ______ ____
ROOT
ATOM      1  N   UNL     1       2.654   6.356  19.012  0.00  0.00    +0.000 N 
ATOM      2  C   UNL     1       2.136   6.761  20.233  0.00  0.00    +0.000 A 
ATOM      3  C   UNL     1       1.688   8.042  20.076  0.00  0.00    +0.000 A 
ATOM      4  N   UNL     1       1.983   8.406  18.781  0.00  0.00    +0.000 N 
ATOM      5  C   UNL     1       2.544   7.372  18.138  0.00  0.00    +0.000 A 
ENDROOT
BRANCH   1   7
ATOM      6  C   UNL     1       2.124   4.082  18.074  0.00  0.00    +0.000 C 
ATOM      7  C   UNL     1       3.159   5.012  18.699  0.00  0.00    +0.000 C 
BRANCH   7   8
ATOM      8  C   UNL     1       4.402   5.135  17.833  0.00  0.00    +0.000 A 
ATOM      9  C   UNL     1       5.524   5.870  18.259  0.00  0.00    +0.000 A 
ATOM     10  C   UNL     1       6.639   6.068  17.433  0.00  0.00    +0.000 A 
ATOM     11  C   UNL     1       6.578   5.504  16.164  0.00  0.00    +0.000 A 
ATOM     12  O   UNL     1       7.542   5.621  15.210  0.00  0.00    +0.000 OA
ATOM     13  C   UNL     1       7.101   4.940  14.118  0.00  0.00    +0.000 A 
ATOM     14  C   UNL     1       7.789   4.824  12.913  0.00  0.00    +0.000 A 
ATOM     15  C   UNL     1       7.170   4.072  11.910  0.00  0.00    +0.000 A 
ATOM     16  C   UNL     1       5.924   3.476  12.119  0.00  0.00    +0.000 A 
ATOM     17  C   UNL     1       5.250   3.617  13.340  0.00  0.00    +0.000 A 
ATOM     18  C   UNL     1       5.856   4.370  14.365  0.00  0.00    +0.000 A 
ATOM     19  C   UNL     1       5.511   4.749  15.697  0.00  0.00    +0.000 A 
ATOM     20  C   UNL     1       4.405   4.551  16.546  0.00  0.00    +0.000 A 
ENDBRANCH   7   8
ENDBRANCH   1   7
BRANCH   4  21
ATOM     21  C   UNL     1       1.676   9.694  18.135  0.00  0.00    +0.000 C 
BRANCH  21  22
ATOM     22  C   UNL     1       0.696  10.513  18.973  0.00  0.00    +0.000 C 
ATOM     23  O   UNL     1       1.022  11.060  20.027  0.00  0.00    +0.000 OA
BRANCH  22  24
ATOM     24  C   UNL     1      -0.719  10.624  18.506  0.00  0.00    +0.000 A 
ATOM     25  C   UNL     1      -1.245   9.814  17.489  0.00  0.00    +0.000 A 
ATOM     26  C   UNL     1      -2.587   9.942  17.114  0.00  0.00    +0.000 A 
ATOM     27  C   UNL     1      -3.396  10.878  17.751  0.00  0.00    +0.000 A 
ATOM     28  C   UNL     1      -2.885  11.696  18.751  0.00  0.00    +0.000 A 
ATOM     29  C   UNL     1      -1.548  11.571  19.127  0.00  0.00    +0.000 A 
BRANCH  27  30
ATOM     30  O   UNL     1      -4.709  11.025  17.422  0.00  0.00    +0.000 OA
ATOM     31  H   UNL     1      -5.221  10.307  17.830  0.00  0.00    +0.000 HD
ENDBRANCH  27  30
ENDBRANCH  22  24
ENDBRANCH  21  22
ENDBRANCH   4  21
TORSDOF 6
ENDMDL
MODEL 2
REMARK VINA RESULT:      -9.4      1.560      2.052
REMARK  Name = 
REMARK  7 active torsions:
REMARK  status: ('A' for Active; 'I' for Inactive)
REMARK    1  A    between atoms: C_1  and  C_2
REMARK    2  A    between atoms: C_2  and  C_3
REMARK    3  A    between atoms: C_2  and  N_16
REMARK    4  A    between atoms: N_19  and  C_20
REMARK    5  A    between atoms: C_20  and  C_21
REMARK    6  A    between atoms: C_21  and  C_23
REMARK    7  A    between atoms: C_26  and  O_27
REMARK                            x       y       z     vdW  Elec       q    Type
REMARK                         _______ _______ _______ _____ _____    ______ ____
ROOT
ATOM      1  N   UNL     1       2.542   6.185  19.007  0.00  0.00    +0.000 N 
ATOM      2  C   UNL     1       2.381   7.256  18.141  0.00  0.00    +0.000 A 
ATOM      3  C   UNL     1       1.983   8.326  18.891  0.00  0.00    +0.000 A 
ATOM      4  N   UNL     1       1.863   7.875  20.188  0.00  0.00    +0.000 N 
ATOM      5  C   UNL     1       2.228   6.586  20.252  0.00  0.00    +0.000 A 
ENDROOT
BRANCH   1   7
ATOM      6  C   UNL     1       2.029   3.952  17.967  0.00  0.00    +0.000 C 
ATOM      7  C   UNL     1       3.054   4.857  18.643  0.00  0.00    +0.000 C 
BRANCH   7   8
ATOM      8  C   UNL     1       4.307   5.019  17.798  0.00  0.00    +0.000 A 
ATOM      9  C   UNL     1       5.404   5.776  18.251  0.00  0.00    +0.000 A 
ATOM     10  C   UNL     1       6.527   6.010  17.445  0.00  0.00    +0.000 A 
ATOM     11  C   UNL     1       6.499   5.459  16.169  0.00  0.00    +0.000 A 
ATOM     12  O   UNL     1       7.474   5.609  15.232  0.00  0.00    +0.000 OA
ATOM     13  C   UNL     1       7.067   4.930  14.125  0.00  0.00    +0.000 A 
ATOM     14  C   UNL     1       7.777   4.844  12.930  0.00  0.00    +0.000 A 
ATOM     15  C   UNL     1       7.192   4.089  11.909  0.00  0.00    +0.000 A 
ATOM     16  C   UNL     1       5.957   3.462  12.091  0.00  0.00    +0.000 A 
ATOM     17  C   UNL     1       5.261   3.573  13.303  0.00  0.00    +0.000 A 
ATOM     18  C   UNL     1       5.833   4.328  14.346  0.00  0.00    +0.000 A 
ATOM     19  C   UNL     1       5.458   4.684  15.676  0.00  0.00    +0.000 A 
ATOM     20  C   UNL     1       4.344   4.450  16.505  0.00  0.00    +0.000 A 
ENDBRANCH   7   8
ENDBRANCH   1   7
BRANCH   4  21
ATOM     21  C   UNL     1       1.477   8.670  21.366  0.00  0.00    +0.000 C 
BRANCH  21  22
ATOM     22  C   UNL     1      -0.030   8.913  21.399  0.00  0.00    +0.000 C 
ATOM     23  O   UNL     1      -0.833   8.048  21.751  0.00  0.00    +0.000 OA
BRANCH  22  24
ATOM     24  C   UNL     1      -0.545  10.244  20.959  0.00  0.00    +0.000 A 
ATOM     25  C   UNL     1      -0.897  10.516  19.628  0.00  0.00    +0.000 A 
ATOM     26  C   UNL     1      -1.406  11.772  19.280  0.00  0.00    +0.000 A 
ATOM     27  C   UNL     1      -1.555  12.752  20.257  0.00  0.00    +0.000 A 
ATOM     28  C   UNL     1      -1.198  12.502  21.576  0.00  0.00    +0.000 A 
ATOM     29  C   UNL     1      -0.692  11.250  21.927  0.00  0.00    +0.000 A 
BRANCH  27  30
ATOM     30  O   UNL     1      -2.054  13.983  19.958  0.00  0.00    +0.000 OA
ATOM     31  H   UNL     1      -1.619  14.647  20.519  0.00  0.00    +0.000 HD
ENDBRANCH  27  30
ENDBRANCH  22  24
ENDBRANCH  21  22
ENDBRANCH   4  21
TORSDOF 6
ENDMDL
MODEL 3
REMARK VINA RESULT:      -9.4      0.578      1.288
REMARK  Name = 
REMARK  7 active torsions:
REMARK  status: ('A' for Active; 'I' for Inactive)
REMARK    1  A    between atoms: C_1  and  C_2
REMARK    2  A    between atoms: C_2  and  C_3
REMARK    3  A    between atoms: C_2  and  N_16
REMARK    4  A    between atoms: N_19  and  C_20
REMARK    5  A    between atoms: C_20  and  C_21
REMARK    6  A    between atoms: C_21  and  C_23
REMARK    7  A    between atoms: C_26  and  O_27
REMARK                            x       y       z     vdW  Elec       q    Type
REMARK                         _______ _______ _______ _____ _____    ______ ____
ROOT
ATOM      1  N   UNL     1       2.778   6.895  18.666  0.00  0.00    +0.000 N 
ATOM      2  C   UNL     1       2.887   7.777  17.601  0.00  0.00    +0.000 A 
ATOM      3  C   UNL     1       2.195   8.905  17.939  0.00  0.00    +0.000 A 
ATOM      4  N   UNL     1       1.641   8.671  19.179  0.00  0.00    +0.000 N 
ATOM      5  C   UNL     1       2.021   7.463  19.621  0.00  0.00    +0.000 A 
ENDROOT
BRANCH   1   7
ATOM      6  C   UNL     1       2.537   4.393  18.540  0.00  0.00    +0.000 C 
ATOM      7  C   UNL     1       3.450   5.593  18.772  0.00  0.00    +0.000 C 
BRANCH   7   8
ATOM      8  C   UNL     1       4.654   5.574  17.844  0.00  0.00    +0.000 A 
ATOM      9  C   UNL     1       5.836   6.268  18.161  0.00  0.00    +0.000 A 
ATOM     10  C   UNL     1       6.918   6.336  17.272  0.00  0.00    +0.000 A 
ATOM     11  C   UNL     1       6.761   5.684  16.055  0.00  0.00    +0.000 A 
ATOM     12  O   UNL     1       7.681   5.670  15.052  0.00  0.00    +0.000 OA
ATOM     13  C   UNL     1       7.147   4.938  14.036  0.00  0.00    +0.000 A 
ATOM     14  C   UNL     1       7.767   4.691  12.814  0.00  0.00    +0.000 A 
ATOM     15  C   UNL     1       7.055   3.906  11.900  0.00  0.00    +0.000 A 
ATOM     16  C   UNL     1       5.789   3.406  12.211  0.00  0.00    +0.000 A 
ATOM     17  C   UNL     1       5.186   3.678  13.447  0.00  0.00    +0.000 A 
ATOM     18  C   UNL     1       5.886   4.466  14.383  0.00  0.00    +0.000 A 
ATOM     19  C   UNL     1       5.630   4.963  15.696  0.00  0.00    +0.000 A 
ATOM     20  C   UNL     1       4.558   4.898  16.607  0.00  0.00    +0.000 A 
ENDBRANCH   7   8
ENDBRANCH   1   7
BRANCH   4  21
ATOM     21  C   UNL     1       0.821   9.604  19.969  0.00  0.00    +0.000 C 
BRANCH  21  22
ATOM     22  C   UNL     1       0.393  10.809  19.133  0.00  0.00    +0.000 C 
ATOM     23  O   UNL     1       1.134  11.772  18.931  0.00  0.00    +0.000 OA
BRANCH  22  24
ATOM     24  C   UNL     1      -0.989  10.826  18.566  0.00  0.00    +0.000 A 
ATOM     25  C   UNL     1      -2.001  11.657  19.068  0.00  0.00    +0.000 A 
ATOM     26  C   UNL     1      -3.269  11.654  18.476  0.00  0.00    +0.000 A 
ATOM     27  C   UNL     1      -3.523  10.820  17.391  0.00  0.00    +0.000 A 
ATOM     28  C   UNL     1      -2.534   9.982  16.892  0.00  0.00    +0.000 A 
ATOM     29  C   UNL     1      -1.268   9.983  17.479  0.00  0.00    +0.000 A 
BRANCH  27  30
ATOM     30  O   UNL     1      -4.741  10.795  16.782  0.00  0.00    +0.000 OA
ATOM     31  H   UNL     1      -4.904  11.657  16.363  0.00  0.00    +0.000 HD
ENDBRANCH  27  30
ENDBRANCH  22  24
ENDBRANCH  21  22
ENDBRANCH   4  21
TORSDOF 6
ENDMDL
MODEL 4
REMARK VINA RESULT:      -9.3      0.641      1.087
REMARK  Name = 
REMARK  7 active torsions:
REMARK  status: ('A' for Active; 'I' for Inactive)
REMARK    1  A    between atoms: C_1  and  C_2
REMARK    2  A    between atoms: C_2  and  C_3
REMARK    3  A    between atoms: C_2  and  N_16
REMARK    4  A    between atoms: N_19  and  C_20
REMARK    5  A    between atoms: C_20  and  C_21
REMARK    6  A    between atoms: C_21  and  C_23
REMARK    7  A    between atoms: C_26  and  O_27
REMARK                            x       y       z     vdW  Elec       q    Type
REMARK                         _______ _______ _______ _____ _____    ______ ____
ROOT
ATOM      1  N   UNL     1       2.949   5.735  19.295  0.00  0.00    +0.000 N 
ATOM      2  C   UNL     1       2.241   6.020  20.453  0.00  0.00    +0.000 A 
ATOM      3  C   UNL     1       1.664   7.246  20.282  0.00  0.00    +0.000 A 
ATOM      4  N   UNL     1       2.069   7.703  19.046  0.00  0.00    +0.000 N 
ATOM      5  C   UNL     1       2.825   6.771  18.447  0.00  0.00    +0.000 A 
ENDROOT
BRANCH   1   7
ATOM      6  C   UNL     1       2.743   3.361  18.485  0.00  0.00    +0.000 C 
ATOM      7  C   UNL     1       3.646   4.475  19.005  0.00  0.00    +0.000 C 
BRANCH   7   8
ATOM      8  C   UNL     1       4.803   4.750  18.058  0.00  0.00    +0.000 A 
ATOM      9  C   UNL     1       5.890   5.558  18.442  0.00  0.00    +0.000 A 
ATOM     10  C   UNL     1       6.915   5.895  17.548  0.00  0.00    +0.000 A 
ATOM     11  C   UNL     1       6.802   5.395  16.256  0.00  0.00    +0.000 A 
ATOM     12  O   UNL     1       7.674   5.644  15.242  0.00  0.00    +0.000 OA
ATOM     13  C   UNL     1       7.207   4.984  14.147  0.00  0.00    +0.000 A 
ATOM     14  C   UNL     1       7.805   4.991  12.890  0.00  0.00    +0.000 A 
ATOM     15  C   UNL     1       7.173   4.241  11.893  0.00  0.00    +0.000 A 
ATOM     16  C   UNL     1       6.001   3.528  12.159  0.00  0.00    +0.000 A 
ATOM     17  C   UNL     1       5.417   3.546  13.433  0.00  0.00    +0.000 A 
ATOM     18  C   UNL     1       6.037   4.296  14.453  0.00  0.00    +0.000 A 
ATOM     19  C   UNL     1       5.767   4.574  15.826  0.00  0.00    +0.000 A 
ATOM     20  C   UNL     1       4.752   4.236  16.742  0.00  0.00    +0.000 A 
ENDBRANCH   7   8
ENDBRANCH   1   7
BRANCH   4  21
ATOM     21  C   UNL     1       1.690   8.975  18.408  0.00  0.00    +0.000 C 
BRANCH  21  22
ATOM     22  C   UNL     1       0.883   9.853  19.363  0.00  0.00    +0.000 C 
ATOM     23  O   UNL     1       1.249  10.089  20.515  0.00  0.00    +0.000 OA
BRANCH  22  24
ATOM     24  C   UNL     1      -0.414  10.419  18.884  0.00  0.00    +0.000 A 
ATOM     25  C   UNL     1      -1.131  11.384  19.608  0.00  0.00    +0.000 A 
ATOM     26  C   UNL     1      -2.324  11.902  19.094  0.00  0.00    +0.000 A 
ATOM     27  C   UNL     1      -2.799  11.454  17.865  0.00  0.00    +0.000 A 
ATOM     28  C   UNL     1      -2.107  10.490  17.143  0.00  0.00    +0.000 A 
ATOM     29  C   UNL     1      -0.916   9.972  17.652  0.00  0.00    +0.000 A 
BRANCH  27  30
ATOM     30  O   UNL     1      -3.952  11.941  17.327  0.00  0.00    +0.000 OA
ATOM     31  H   UNL     1      -4.183  12.774  17.772  0.00  0.00    +0.000 HD
ENDBRANCH  27  30
ENDBRANCH  22  24
ENDBRANCH  21  22
ENDBRANCH   4  21
TORSDOF 6
ENDMDL
MODEL 5
REMARK VINA RESULT:      -9.2      1.457      2.053
REMARK  Name = 
REMARK  7 active torsions:
REMARK  status: ('A' for Active; 'I' for Inactive)
REMARK    1  A    between atoms: C_1  and  C_2
REMARK    2  A    between atoms: C_2  and  C_3
REMARK    3  A    between atoms: C_2  and  N_16
REMARK    4  A    between atoms: N_19  and  C_20
REMARK    5  A    between atoms: C_20  and  C_21
REMARK    6  A    between atoms: C_21  and  C_23
REMARK    7  A    between atoms: C_26  and  O_27
REMARK                            x       y       z     vdW  Elec       q    Type
REMARK                         _______ _______ _______ _____ _____    ______ ____
ROOT
ATOM      1  N   UNL     1       3.042   5.678  19.364  0.00  0.00    +0.000 N 
ATOM      2  C   UNL     1       3.055   6.783  18.526  0.00  0.00    +0.000 A 
ATOM      3  C   UNL     1       2.241   7.725  19.088  0.00  0.00    +0.000 A 
ATOM      4  N   UNL     1       1.713   7.159  20.229  0.00  0.00    +0.000 N 
ATOM      5  C   UNL     1       2.224   5.931  20.400  0.00  0.00    +0.000 A 
ENDROOT
BRANCH   1   7
ATOM      6  C   UNL     1       3.057   3.221  18.820  0.00  0.00    +0.000 C 
ATOM      7  C   UNL     1       3.855   4.466  19.196  0.00  0.00    +0.000 C 
BRANCH   7   8
ATOM      8  C   UNL     1       4.968   4.745  18.199  0.00  0.00    +0.000 A 
ATOM      9  C   UNL     1       6.066   5.559  18.533  0.00  0.00    +0.000 A 
ATOM     10  C   UNL     1       7.050   5.900  17.595  0.00  0.00    +0.000 A 
ATOM     11  C   UNL     1       6.884   5.393  16.311  0.00  0.00    +0.000 A 
ATOM     12  O   UNL     1       7.710   5.644  15.259  0.00  0.00    +0.000 OA
ATOM     13  C   UNL     1       7.200   4.977  14.188  0.00  0.00    +0.000 A 
ATOM     14  C   UNL     1       7.744   4.983  12.906  0.00  0.00    +0.000 A 
ATOM     15  C   UNL     1       7.074   4.225  11.940  0.00  0.00    +0.000 A 
ATOM     16  C   UNL     1       5.920   3.506  12.259  0.00  0.00    +0.000 A 
ATOM     17  C   UNL     1       5.390   3.526  13.557  0.00  0.00    +0.000 A 
ATOM     18  C   UNL     1       6.049   4.283  14.546  0.00  0.00    +0.000 A 
ATOM     19  C   UNL     1       5.837   4.565  15.929  0.00  0.00    +0.000 A 
ATOM     20  C   UNL     1       4.864   4.225  16.889  0.00  0.00    +0.000 A 
ENDBRANCH   7   8
ENDBRANCH   1   7
BRANCH   4  21
ATOM     21  C   UNL     1       0.791   7.797  21.184  0.00  0.00    +0.000 C 
BRANCH  21  22
ATOM     22  C   UNL     1       1.130   9.274  21.377  0.00  0.00    +0.000 C 
ATOM     23  O   UNL     1       1.820   9.679  22.314  0.00  0.00    +0.000 OA
BRANCH  22  24
ATOM     24  C   UNL     1       0.575  10.263  20.405  0.00  0.00    +0.000 A 
ATOM     25  C   UNL     1       1.251  11.442  20.057  0.00  0.00    +0.000 A 
ATOM     26  C   UNL     1       0.697  12.317  19.115  0.00  0.00    +0.000 A 
ATOM     27  C   UNL     1      -0.528  12.014  18.529  0.00  0.00    +0.000 A 
ATOM     28  C   UNL     1      -1.215  10.857  18.873  0.00  0.00    +0.000 A 
ATOM     29  C   UNL     1      -0.665   9.982  19.811  0.00  0.00    +0.000 A 
BRANCH  27  30
ATOM     30  O   UNL     1      -1.095  12.835  17.602  0.00  0.00    +0.000 OA
ATOM     31  H   UNL     1      -0.927  13.759  17.851  0.00  0.00    +0.000 HD
ENDBRANCH  27  30
ENDBRANCH  22  24
ENDBRANCH  21  22
ENDBRANCH   4  21
TORSDOF 6
ENDMDL
MODEL 6
REMARK VINA RESULT:      -9.0      0.864      1.155
REMARK  Name = 
REMARK  7 active torsions:
REMARK  status: ('A' for Active; 'I' for Inactive)
REMARK    1  A    between atoms: C_1  and  C_2
REMARK    2  A    between atoms: C_2  and  C_3
REMARK    3  A    between atoms: C_2  and  N_16
REMARK    4  A    between atoms: N_19  and  C_20
REMARK    5  A    between atoms: C_20  and  C_21
REMARK    6  A    between atoms: C_21  and  C_23
REMARK    7  A    between atoms: C_26  and  O_27
REMARK                            x       y       z     vdW  Elec       q    Type
REMARK                         _______ _______ _______ _____ _____    ______ ____
ROOT
ATOM      1  N   UNL     1       2.700   6.980  18.573  0.00  0.00    +0.000 N 
ATOM      2  C   UNL     1       2.666   7.786  17.445  0.00  0.00    +0.000 A 
ATOM      3  C   UNL     1       2.142   8.989  17.824  0.00  0.00    +0.000 A 
ATOM      4  N   UNL     1       1.824   8.876  19.160  0.00  0.00    +0.000 N 
ATOM      5  C   UNL     1       2.189   7.666  19.609  0.00  0.00    +0.000 A 
ENDROOT
BRANCH   1   7
ATOM      6  C   UNL     1       2.293   4.507  18.343  0.00  0.00    +0.000 C 
ATOM      7  C   UNL     1       3.279   5.631  18.645  0.00  0.00    +0.000 C 
BRANCH   7   8
ATOM      8  C   UNL     1       4.504   5.564  17.748  0.00  0.00    +0.000 A 
ATOM      9  C   UNL     1       5.705   6.211  18.096  0.00  0.00    +0.000 A 
ATOM     10  C   UNL     1       6.811   6.235  17.235  0.00  0.00    +0.000 A 
ATOM     11  C   UNL     1       6.659   5.589  16.013  0.00  0.00    +0.000 A 
ATOM     12  O   UNL     1       7.603   5.537  15.035  0.00  0.00    +0.000 OA
ATOM     13  C   UNL     1       7.067   4.827  14.005  0.00  0.00    +0.000 A 
ATOM     14  C   UNL     1       7.707   4.554  12.799  0.00  0.00    +0.000 A 
ATOM     15  C   UNL     1       6.989   3.798  11.868  0.00  0.00    +0.000 A 
ATOM     16  C   UNL     1       5.696   3.348  12.145  0.00  0.00    +0.000 A 
ATOM     17  C   UNL     1       5.073   3.645  13.366  0.00  0.00    +0.000 A 
ATOM     18  C   UNL     1       5.779   4.405  14.319  0.00  0.00    +0.000 A 
ATOM     19  C   UNL     1       5.510   4.913  15.626  0.00  0.00    +0.000 A 
ATOM     20  C   UNL     1       4.413   4.891  16.509  0.00  0.00    +0.000 A 
ENDBRANCH   7   8
ENDBRANCH   1   7
BRANCH   4  21
ATOM     21  C   UNL     1       1.246   9.923  20.021  0.00  0.00    +0.000 C 
BRANCH  21  22
ATOM     22  C   UNL     1      -0.252   9.707  20.224  0.00  0.00    +0.000 C 
ATOM     23  O   UNL     1      -0.706   9.055  21.166  0.00  0.00    +0.000 OA
BRANCH  22  24
ATOM     24  C   UNL     1      -1.196  10.288  19.223  0.00  0.00    +0.000 A 
ATOM     25  C   UNL     1      -1.379   9.734  17.947  0.00  0.00    +0.000 A 
ATOM     26  C   UNL     1      -2.302  10.302  17.062  0.00  0.00    +0.000 A 
ATOM     27  C   UNL     1      -3.033  11.421  17.450  0.00  0.00    +0.000 A 
ATOM     28  C   UNL     1      -2.852  11.988  18.705  0.00  0.00    +0.000 A 
ATOM     29  C   UNL     1      -1.934  11.423  19.591  0.00  0.00    +0.000 A 
BRANCH  27  30
ATOM     30  O   UNL     1      -3.946  11.996  16.620  0.00  0.00    +0.000 OA
ATOM     31  H   UNL     1      -3.739  11.753  15.702  0.00  0.00    +0.000 HD
ENDBRANCH  27  30
ENDBRANCH  22  24
ENDBRANCH  21  22
ENDBRANCH   4  21
TORSDOF 6
ENDMDL
MODEL 7
REMARK VINA RESULT:      -9.0      1.385      1.713
REMARK  Name = 
REMARK  7 active torsions:
REMARK  status: ('A' for Active; 'I' for Inactive)
REMARK    1  A    between atoms: C_1  and  C_2
REMARK    2  A    between atoms: C_2  and  C_3
REMARK    3  A    between atoms: C_2  and  N_16
REMARK    4  A    between atoms: N_19  and  C_20
REMARK    5  A    between atoms: C_20  and  C_21
REMARK    6  A    between atoms: C_21  and  C_23
REMARK    7  A    between atoms: C_26  and  O_27
REMARK                            x       y       z     vdW  Elec       q    Type
REMARK                         _______ _______ _______ _____ _____    ______ ____
ROOT
ATOM      1  N   UNL     1       3.424   4.856  19.707  0.00  0.00    +0.000 N 
ATOM      2  C   UNL     1       2.340   4.772  20.567  0.00  0.00    +0.000 A 
ATOM      3  C   UNL     1       1.658   5.952  20.474  0.00  0.00    +0.000 A 
ATOM      4  N   UNL     1       2.366   6.747  19.598  0.00  0.00    +0.000 N 
ATOM      5  C   UNL     1       3.417   6.066  19.121  0.00  0.00    +0.000 A 
ENDROOT
BRANCH   1   7
ATOM      6  C   UNL     1       3.721   2.449  19.035  0.00  0.00    +0.000 C 
ATOM      7  C   UNL     1       4.374   3.773  19.417  0.00  0.00    +0.000 C 
BRANCH   7   8
ATOM      8  C   UNL     1       5.358   4.243  18.358  0.00  0.00    +0.000 A 
ATOM      9  C   UNL     1       6.376   5.167  18.660  0.00  0.00    +0.000 A 
ATOM     10  C   UNL     1       7.230   5.678  17.673  0.00  0.00    +0.000 A 
ATOM     11  C   UNL     1       7.018   5.228  16.375  0.00  0.00    +0.000 A 
ATOM     12  O   UNL     1       7.717   5.637  15.282  0.00  0.00    +0.000 OA
ATOM     13  C   UNL     1       7.201   4.974  14.212  0.00  0.00    +0.000 A 
ATOM     14  C   UNL     1       7.630   5.119  12.895  0.00  0.00    +0.000 A 
ATOM     15  C   UNL     1       6.976   4.339  11.935  0.00  0.00    +0.000 A 
ATOM     16  C   UNL     1       5.945   3.467  12.294  0.00  0.00    +0.000 A 
ATOM     17  C   UNL     1       5.529   3.348  13.627  0.00  0.00    +0.000 A 
ATOM     18  C   UNL     1       6.175   4.124  14.610  0.00  0.00    +0.000 A 
ATOM     19  C   UNL     1       6.048   4.299  16.021  0.00  0.00    +0.000 A 
ATOM     20  C   UNL     1       5.207   3.789  17.028  0.00  0.00    +0.000 A 
ENDBRANCH   7   8
ENDBRANCH   1   7
BRANCH   4  21
ATOM     21  C   UNL     1       2.013   8.109  19.163  0.00  0.00    +0.000 C 
BRANCH  21  22
ATOM     22  C   UNL     1       1.297   8.876  20.272  0.00  0.00    +0.000 C 
ATOM     23  O   UNL     1       1.535   8.691  21.466  0.00  0.00    +0.000 OA
BRANCH  22  24
ATOM     24  C   UNL     1       0.246   9.867  19.887  0.00  0.00    +0.000 A 
ATOM     25  C   UNL     1      -0.169  10.051  18.560  0.00  0.00    +0.000 A 
ATOM     26  C   UNL     1      -1.181  10.971  18.263  0.00  0.00    +0.000 A 
ATOM     27  C   UNL     1      -1.769  11.706  19.289  0.00  0.00    +0.000 A 
ATOM     28  C   UNL     1      -1.358  11.543  20.606  0.00  0.00    +0.000 A 
ATOM     29  C   UNL     1      -0.351  10.626  20.906  0.00  0.00    +0.000 A 
BRANCH  27  30
ATOM     30  O   UNL     1      -2.763  12.603  19.041  0.00  0.00    +0.000 OA
ATOM     31  H   UNL     1      -3.608  12.233  19.344  0.00  0.00    +0.000 HD
ENDBRANCH  27  30
ENDBRANCH  22  24
ENDBRANCH  21  22
ENDBRANCH   4  21
TORSDOF 6
ENDMDL
MODEL 8
REMARK VINA RESULT:      -8.8      3.952      5.975
REMARK  Name = 
REMARK  7 active torsions:
REMARK  status: ('A' for Active; 'I' for Inactive)
REMARK    1  A    between atoms: C_1  and  C_2
REMARK    2  A    between atoms: C_2  and  C_3
REMARK    3  A    between atoms: C_2  and  N_16
REMARK    4  A    between atoms: N_19  and  C_20
REMARK    5  A    between atoms: C_20  and  C_21
REMARK    6  A    between atoms: C_21  and  C_23
REMARK    7  A    between atoms: C_26  and  O_27
REMARK                            x       y       z     vdW  Elec       q    Type
REMARK                         _______ _______ _______ _____ _____    ______ ____
ROOT
ATOM      1  N   UNL     1      -0.383  10.672  19.194  0.00  0.00    +0.000 N 
ATOM      2  C   UNL     1      -0.534  11.941  18.655  0.00  0.00    +0.000 A 
ATOM      3  C   UNL     1      -1.680  11.930  17.910  0.00  0.00    +0.000 A 
ATOM      4  N   UNL     1      -2.176  10.646  17.972  0.00  0.00    +0.000 N 
ATOM      5  C   UNL     1      -1.399   9.900  18.771  0.00  0.00    +0.000 A 
ENDROOT
BRANCH   1   7
ATOM      6  C   UNL     1       0.155   9.953  21.544  0.00  0.00    +0.000 C 
ATOM      7  C   UNL     1       0.663  10.262  20.140  0.00  0.00    +0.000 C 
BRANCH   7   8
ATOM      8  C   UNL     1       1.438   9.094  19.551  0.00  0.00    +0.000 A 
ATOM      9  C   UNL     1       2.032   9.174  18.278  0.00  0.00    +0.000 A 
ATOM     10  C   UNL     1       2.669   8.075  17.685  0.00  0.00    +0.000 A 
ATOM     11  C   UNL     1       2.680   6.895  18.420  0.00  0.00    +0.000 A 
ATOM     12  O   UNL     1       3.214   5.717  17.998  0.00  0.00    +0.000 OA
ATOM     13  C   UNL     1       3.015   4.813  18.996  0.00  0.00    +0.000 A 
ATOM     14  C   UNL     1       3.404   3.476  18.957  0.00  0.00    +0.000 A 
ATOM     15  C   UNL     1       3.116   2.709  20.090  0.00  0.00    +0.000 A 
ATOM     16  C   UNL     1       2.469   3.267  21.195  0.00  0.00    +0.000 A 
ATOM     17  C   UNL     1       2.083   4.614  21.203  0.00  0.00    +0.000 A 
ATOM     18  C   UNL     1       2.363   5.406  20.072  0.00  0.00    +0.000 A 
ATOM     19  C   UNL     1       2.135   6.762  19.690  0.00  0.00    +0.000 A 
ATOM     20  C   UNL     1       1.509   7.881  20.273  0.00  0.00    +0.000 A 
ENDBRANCH   7   8
ENDBRANCH   1   7
BRANCH   4  21
ATOM     21  C   UNL     1      -3.410  10.147  17.341  0.00  0.00    +0.000 C 
BRANCH  21  22
ATOM     22  C   UNL     1      -4.518  11.197  17.385  0.00  0.00    +0.000 C 
ATOM     23  O   UNL     1      -4.726  11.980  16.456  0.00  0.00    +0.000 OA
BRANCH  22  24
ATOM     24  C   UNL     1      -5.358  11.294  18.617  0.00  0.00    +0.000 A 
ATOM     25  C   UNL     1      -6.463  10.462  18.845  0.00  0.00    +0.000 A 
ATOM     26  C   UNL     1      -7.194  10.576  20.033  0.00  0.00    +0.000 A 
ATOM     27  C   UNL     1      -6.823  11.522  20.984  0.00  0.00    +0.000 A 
ATOM     28  C   UNL     1      -5.738  12.362  20.765  0.00  0.00    +0.000 A 
ATOM     29  C   UNL     1      -5.006  12.250  19.583  0.00  0.00    +0.000 A 
BRANCH  27  30
ATOM     30  O   UNL     1      -7.503  11.657  22.155  0.00  0.00    +0.000 OA
ATOM     31  H   UNL     1      -7.781  10.779  22.465  0.00  0.00    +0.000 HD
ENDBRANCH  27  30
ENDBRANCH  22  24
ENDBRANCH  21  22
ENDBRANCH   4  21
TORSDOF 6
ENDMDL
MODEL 9
REMARK VINA RESULT:      -8.8      1.370      2.040
REMARK  Name = 
REMARK  7 active torsions:
REMARK  status: ('A' for Active; 'I' for Inactive)
REMARK    1  A    between atoms: C_1  and  C_2
REMARK    2  A    between atoms: C_2  and  C_3
REMARK    3  A    between atoms: C_2  and  N_16
REMARK    4  A    between atoms: N_19  and  C_20
REMARK    5  A    between atoms: C_20  and  C_21
REMARK    6  A    between atoms: C_21  and  C_23
REMARK    7  A    between atoms: C_26  and  O_27
REMARK                            x       y       z     vdW  Elec       q    Type
REMARK                         _______ _______ _______ _____ _____    ______ ____
ROOT
ATOM      1  N   UNL     1       2.597   6.353  18.999  0.00  0.00    +0.000 N 
ATOM      2  C   UNL     1       2.047   6.710  20.221  0.00  0.00    +0.000 A 
ATOM      3  C   UNL     1       1.643   8.011  20.117  0.00  0.00    +0.000 A 
ATOM      4  N   UNL     1       1.997   8.433  18.853  0.00  0.00    +0.000 N 
ATOM      5  C   UNL     1       2.550   7.416  18.177  0.00  0.00    +0.000 A 
ENDROOT
BRANCH   1   7
ATOM      6  C   UNL     1       2.023   4.136  17.955  0.00  0.00    +0.000 C 
ATOM      7  C   UNL     1       3.072   5.012  18.632  0.00  0.00    +0.000 C 
BRANCH   7   8
ATOM      8  C   UNL     1       4.329   5.142  17.787  0.00  0.00    +0.000 A 
ATOM      9  C   UNL     1       5.437   5.889  18.228  0.00  0.00    +0.000 A 
ATOM     10  C   UNL     1       6.564   6.094  17.421  0.00  0.00    +0.000 A 
ATOM     11  C   UNL     1       6.530   5.522  16.154  0.00  0.00    +0.000 A 
ATOM     12  O   UNL     1       7.509   5.642  15.216  0.00  0.00    +0.000 OA
ATOM     13  C   UNL     1       7.093   4.951  14.120  0.00  0.00    +0.000 A 
ATOM     14  C   UNL     1       7.803   4.834  12.928  0.00  0.00    +0.000 A 
ATOM     15  C   UNL     1       7.208   4.071  11.919  0.00  0.00    +0.000 A 
ATOM     16  C   UNL     1       5.964   3.465  12.109  0.00  0.00    +0.000 A 
ATOM     17  C   UNL     1       5.268   3.606  13.318  0.00  0.00    +0.000 A 
ATOM     18  C   UNL     1       5.850   4.371  14.349  0.00  0.00    +0.000 A 
ATOM     19  C   UNL     1       5.478   4.754  15.673  0.00  0.00    +0.000 A 
ATOM     20  C   UNL     1       4.359   4.551  16.503  0.00  0.00    +0.000 A 
ENDBRANCH   7   8
ENDBRANCH   1   7
BRANCH   4  21
ATOM     21  C   UNL     1       1.752   9.762  18.267  0.00  0.00    +0.000 C 
BRANCH  21  22
ATOM     22  C   UNL     1       0.270  10.125  18.319  0.00  0.00    +0.000 C 
ATOM     23  O   UNL     1      -0.577   9.555  17.628  0.00  0.00    +0.000 OA
BRANCH  22  24
ATOM     24  C   UNL     1      -0.160  11.235  19.223  0.00  0.00    +0.000 A 
ATOM     25  C   UNL     1      -1.162  12.150  18.871  0.00  0.00    +0.000 A 
ATOM     26  C   UNL     1      -1.546  13.150  19.772  0.00  0.00    +0.000 A 
ATOM     27  C   UNL     1      -0.925  13.235  21.015  0.00  0.00    +0.000 A 
ATOM     28  C   UNL     1       0.079  12.343  21.371  0.00  0.00    +0.000 A 
ATOM     29  C   UNL     1       0.462  11.344  20.476  0.00  0.00    +0.000 A 
BRANCH  27  30
ATOM     30  O   UNL     1      -1.277  14.188  21.922  0.00  0.00    +0.000 OA
ATOM     31  H   UNL     1      -2.034  13.869  22.441  0.00  0.00    +0.000 HD
ENDBRANCH  27  30
ENDBRANCH  22  24
ENDBRANCH  21  22
ENDBRANCH   4  21
TORSDOF 6
ENDMDL
