MODEL 1
REMARK VINA RESULT:      -7.8      0.000      0.000
REMARK  Name = 
REMARK  6 active torsions:
REMARK  status: ('A' for Active; 'I' for Inactive)
REMARK    1  A    between atoms: C_1  and  C_2
REMARK    2  A    between atoms: C_2  and  C_3
REMARK    3  A    between atoms: C_3  and  C_4
REMARK    4  A    between atoms: N_6  and  C_7
REMARK    5  A    between atoms: N_19  and  C_20
REMARK    6  A    between atoms: C_20  and  C_21
REMARK                            x       y       z     vdW  Elec       q    Type
REMARK                         _______ _______ _______ _____ _____    ______ ____
ROOT
ATOM      1  C   UNL     1       3.067   6.428  19.301  0.00  0.00    +0.000 A 
ATOM      2  C   UNL     1       2.310   7.611  19.213  0.00  0.00    +0.000 A 
ATOM      3  C   UNL     1       2.468   8.385  18.069  0.00  0.00    +0.000 A 
ATOM      4  N   UNL     1       3.332   8.076  17.072  0.00  0.00    +0.000 NA
ATOM      5  C   UNL     1       4.075   6.969  17.178  0.00  0.00    +0.000 A 
ATOM      6  C   UNL     1       4.928   6.682  16.123  0.00  0.00    +0.000 A 
ATOM      7  C   UNL     1       5.736   5.544  16.117  0.00  0.00    +0.000 A 
ATOM      8  C   UNL     1       5.695   4.674  17.193  0.00  0.00    +0.000 A 
ATOM      9  C   UNL     1       4.841   4.943  18.265  0.00  0.00    +0.000 A 
ATOM     10  C   UNL     1       4.010   6.097  18.284  0.00  0.00    +0.000 A 
ATOM     11  C   UNL     1       1.711   9.671  17.895  0.00  0.00    +0.000 C 
ATOM     12  C   UNL     1       0.505   9.767  18.831  0.00  0.00    +0.000 C 
ATOM     13  N   UNL     1       0.922   9.480  20.209  0.00  0.00    +0.000 NA
ATOM     14  C   UNL     1       1.359   8.065  20.295  0.00  0.00    +0.000 C 
ENDROOT
BRANCH   1  17
ATOM     15  C   UNL     1       2.022   4.504  20.425  0.00  0.00    +0.000 C 
ATOM     16  O   UNL     1       1.284   4.197  19.496  0.00  0.00    +0.000 OA
ATOM     17  N   UNL     1       2.927   5.559  20.423  0.00  0.00    +0.000 N 
ATOM     18  H   UNL     1       3.753   5.410  20.986  0.00  0.00    +0.000 HD
BRANCH  15  19
ATOM     19  C   UNL     1       2.057   3.676  21.694  0.00  0.00    +0.000 C 
BRANCH  19  21
ATOM     20  C   UNL     1       3.893   2.273  20.650  0.00  0.00    +0.000 C 
ATOM     21  C   UNL     1       2.577   2.269  21.415  0.00  0.00    +0.000 C 
ENDBRANCH  19  21
ENDBRANCH  15  19
ENDBRANCH   1  17
BRANCH  13  22
ATOM     22  C   UNL     1      -0.192   9.721  21.157  0.00  0.00    +0.000 C 
BRANCH  22  23
ATOM     23  C   UNL     1      -0.172  11.138  21.701  0.00  0.00    +0.000 A 
ATOM     24  C   UNL     1      -1.039  11.500  22.743  0.00  0.00    +0.000 A 
ATOM     25  C   UNL     1      -1.224  12.844  23.069  0.00  0.00    +0.000 A 
ATOM     26  C   UNL     1      -0.506  13.831  22.398  0.00  0.00    +0.000 A 
ATOM     27  C   UNL     1       0.431  13.473  21.429  0.00  0.00    +0.000 A 
ATOM     28  C   UNL     1       0.598  12.132  21.080  0.00  0.00    +0.000 A 
ENDBRANCH  22  23
ENDBRANCH  13  22
TORSDOF 5
ENDMDL
MODEL 2
REMARK VINA RESULT:      -7.7      2.079      4.351
REMARK  Name = 
REMARK  6 active torsions:
REMARK  status: ('A' for Active; 'I' for Inactive)
REMARK    1  A    between atoms: C_1  and  C_2
REMARK    2  A    between atoms: C_2  and  C_3
REMARK    3  A    between atoms: C_3  and  C_4
REMARK    4  A    between atoms: N_6  and  C_7
REMARK    5  A    between atoms: N_19  and  C_20
REMARK    6  A    between atoms: C_20  and  C_21
REMARK                            x       y       z     vdW  Elec       q    Type
REMARK                         _______ _______ _______ _____ _____    ______ ____
ROOT
ATOM      1  C   UNL     1       3.114   5.717  18.553  0.00  0.00    +0.000 A 
ATOM      2  C   UNL     1       2.391   6.742  19.190  0.00  0.00    +0.000 A 
ATOM      3  C   UNL     1       1.867   6.465  20.447  0.00  0.00    +0.000 A 
ATOM      4  N   UNL     1       1.987   5.262  21.058  0.00  0.00    +0.000 NA
ATOM      5  C   UNL     1       2.645   4.280  20.432  0.00  0.00    +0.000 A 
ATOM      6  C   UNL     1       2.761   3.073  21.105  0.00  0.00    +0.000 A 
ATOM      7  C   UNL     1       3.442   1.986  20.556  0.00  0.00    +0.000 A 
ATOM      8  C   UNL     1       4.018   2.106  19.302  0.00  0.00    +0.000 A 
ATOM      9  C   UNL     1       3.915   3.313  18.608  0.00  0.00    +0.000 A 
ATOM     10  C   UNL     1       3.226   4.430  19.156  0.00  0.00    +0.000 A 
ATOM     11  C   UNL     1       1.068   7.496  21.196  0.00  0.00    +0.000 C 
ATOM     12  C   UNL     1       1.291   8.908  20.656  0.00  0.00    +0.000 C 
ATOM     13  N   UNL     1       1.099   8.920  19.201  0.00  0.00    +0.000 NA
ATOM     14  C   UNL     1       2.161   8.100  18.569  0.00  0.00    +0.000 C 
ENDROOT
BRANCH   1  17
ATOM     15  C   UNL     1       5.067   6.262  17.157  0.00  0.00    +0.000 C 
ATOM     16  O   UNL     1       5.863   6.368  18.083  0.00  0.00    +0.000 OA
ATOM     17  N   UNL     1       3.721   5.940  17.281  0.00  0.00    +0.000 N 
ATOM     18  H   UNL     1       3.333   5.430  16.500  0.00  0.00    +0.000 HD
BRANCH  15  19
ATOM     19  C   UNL     1       5.525   6.417  15.721  0.00  0.00    +0.000 C 
BRANCH  19  21
ATOM     20  C   UNL     1       6.354   4.022  15.621  0.00  0.00    +0.000 C 
ATOM     21  C   UNL     1       5.468   5.082  14.982  0.00  0.00    +0.000 C 
ENDBRANCH  19  21
ENDBRANCH  15  19
ENDBRANCH   1  17
BRANCH  13  22
ATOM     22  C   UNL     1       1.153  10.305  18.674  0.00  0.00    +0.000 C 
BRANCH  22  23
ATOM     23  C   UNL     1      -0.235  10.901  18.516  0.00  0.00    +0.000 A 
ATOM     24  C   UNL     1      -0.577  12.070  19.212  0.00  0.00    +0.000 A 
ATOM     25  C   UNL     1      -1.909  12.478  19.292  0.00  0.00    +0.000 A 
ATOM     26  C   UNL     1      -2.900  11.754  18.632  0.00  0.00    +0.000 A 
ATOM     27  C   UNL     1      -2.557  10.647  17.857  0.00  0.00    +0.000 A 
ATOM     28  C   UNL     1      -1.229  10.220  17.799  0.00  0.00    +0.000 A 
ENDBRANCH  22  23
ENDBRANCH  13  22
TORSDOF 5
ENDMDL
MODEL 3
REMARK VINA RESULT:      -7.6      3.407      7.054
REMARK  Name = 
REMARK  6 active torsions:
REMARK  status: ('A' for Active; 'I' for Inactive)
REMARK    1  A    between atoms: C_1  and  C_2
REMARK    2  A    between atoms: C_2  and  C_3
REMARK    3  A    between atoms: C_3  and  C_4
REMARK    4  A    between atoms: N_6  and  C_7
REMARK    5  A    between atoms: N_19  and  C_20
REMARK    6  A    between atoms: C_20  and  C_21
REMARK                            x       y       z     vdW  Elec       q    Type
REMARK                         _______ _______ _______ _____ _____    ______ ____
ROOT
ATOM      1  C   UNL     1       3.549   5.801  18.355  0.00  0.00    +0.000 A 
ATOM      2  C   UNL     1       4.953   5.882  18.307  0.00  0.00    +0.000 A 
ATOM      3  C   UNL     1       5.671   4.830  18.866  0.00  0.00    +0.000 A 
ATOM      4  N   UNL     1       5.088   3.770  19.477  0.00  0.00    +0.000 NA
ATOM      5  C   UNL     1       3.754   3.717  19.551  0.00  0.00    +0.000 A 
ATOM      6  C   UNL     1       3.203   2.603  20.167  0.00  0.00    +0.000 A 
ATOM      7  C   UNL     1       1.823   2.434  20.284  0.00  0.00    +0.000 A 
ATOM      8  C   UNL     1       0.973   3.402  19.779  0.00  0.00    +0.000 A 
ATOM      9  C   UNL     1       1.506   4.531  19.154  0.00  0.00    +0.000 A 
ATOM     10  C   UNL     1       2.910   4.716  19.024  0.00  0.00    +0.000 A 
ATOM     11  C   UNL     1       7.174   4.837  18.872  0.00  0.00    +0.000 C 
ATOM     12  C   UNL     1       7.754   5.824  17.859  0.00  0.00    +0.000 C 
ATOM     13  N   UNL     1       7.133   7.142  18.037  0.00  0.00    +0.000 NA
ATOM     14  C   UNL     1       5.693   7.045  17.692  0.00  0.00    +0.000 C 
ENDROOT
BRANCH   1  17
ATOM     15  C   UNL     1       2.160   7.826  18.524  0.00  0.00    +0.000 C 
ATOM     16  O   UNL     1       2.280   7.965  19.736  0.00  0.00    +0.000 OA
ATOM     17  N   UNL     1       2.744   6.819  17.764  0.00  0.00    +0.000 N 
ATOM     18  H   UNL     1       2.970   7.081  16.815  0.00  0.00    +0.000 HD
BRANCH  15  19
ATOM     19  C   UNL     1       1.379   8.831  17.702  0.00  0.00    +0.000 C 
BRANCH  19  21
ATOM     20  C   UNL     1      -0.334  10.311  18.846  0.00  0.00    +0.000 C 
ATOM     21  C   UNL     1       1.134  10.113  18.495  0.00  0.00    +0.000 C 
ENDBRANCH  19  21
ENDBRANCH  15  19
ENDBRANCH   1  17
BRANCH  13  22
ATOM     22  C   UNL     1       7.790   8.154  17.176  0.00  0.00    +0.000 C 
BRANCH  22  23
ATOM     23  C   UNL     1       8.243   9.363  17.975  0.00  0.00    +0.000 A 
ATOM     24  C   UNL     1       8.081  10.652  17.446  0.00  0.00    +0.000 A 
ATOM     25  C   UNL     1       8.725  11.741  18.035  0.00  0.00    +0.000 A 
ATOM     26  C   UNL     1       9.489  11.560  19.186  0.00  0.00    +0.000 A 
ATOM     27  C   UNL     1       9.576  10.300  19.775  0.00  0.00    +0.000 A 
ATOM     28  C   UNL     1       8.956   9.203  19.172  0.00  0.00    +0.000 A 
ENDBRANCH  22  23
ENDBRANCH  13  22
TORSDOF 5
ENDMDL
MODEL 4
REMARK VINA RESULT:      -7.5      1.789      7.565
REMARK  Name = 
REMARK  6 active torsions:
REMARK  status: ('A' for Active; 'I' for Inactive)
REMARK    1  A    between atoms: C_1  and  C_2
REMARK    2  A    between atoms: C_2  and  C_3
REMARK    3  A    between atoms: C_3  and  C_4
REMARK    4  A    between atoms: N_6  and  C_7
REMARK    5  A    between atoms: N_19  and  C_20
REMARK    6  A    between atoms: C_20  and  C_21
REMARK                            x       y       z     vdW  Elec       q    Type
REMARK                         _______ _______ _______ _____ _____    ______ ____
ROOT
ATOM      1  C   UNL     1       2.422   6.470  19.918  0.00  0.00    +0.000 A 
ATOM      2  C   UNL     1       3.134   6.494  18.706  0.00  0.00    +0.000 A 
ATOM      3  C   UNL     1       3.047   7.651  17.939  0.00  0.00    +0.000 A 
ATOM      4  N   UNL     1       2.289   8.720  18.284  0.00  0.00    +0.000 NA
ATOM      5  C   UNL     1       1.586   8.676  19.421  0.00  0.00    +0.000 A 
ATOM      6  C   UNL     1       0.842   9.801  19.743  0.00  0.00    +0.000 A 
ATOM      7  C   UNL     1       0.086   9.874  20.913  0.00  0.00    +0.000 A 
ATOM      8  C   UNL     1       0.068   8.795  21.780  0.00  0.00    +0.000 A 
ATOM      9  C   UNL     1       0.811   7.653  21.476  0.00  0.00    +0.000 A 
ATOM     10  C   UNL     1       1.589   7.565  20.289  0.00  0.00    +0.000 A 
ATOM     11  C   UNL     1       3.763   7.761  16.622  0.00  0.00    +0.000 C 
ATOM     12  C   UNL     1       4.875   6.723  16.476  0.00  0.00    +0.000 C 
ATOM     13  N   UNL     1       4.350   5.386  16.780  0.00  0.00    +0.000 NA
ATOM     14  C   UNL     1       3.966   5.334  18.212  0.00  0.00    +0.000 C 
ENDROOT
BRANCH   1  17
ATOM     15  C   UNL     1       1.592   4.286  20.693  0.00  0.00    +0.000 C 
ATOM     16  O   UNL     1       0.673   4.203  19.887  0.00  0.00    +0.000 OA
ATOM     17  N   UNL     1       2.498   5.336  20.781  0.00  0.00    +0.000 N 
ATOM     18  H   UNL     1       3.418   5.076  21.107  0.00  0.00    +0.000 HD
BRANCH  15  19
ATOM     19  C   UNL     1       1.870   3.161  21.670  0.00  0.00    +0.000 C 
BRANCH  19  21
ATOM     20  C   UNL     1       3.276   2.132  19.827  0.00  0.00    +0.000 C 
ATOM     21  C   UNL     1       3.165   2.435  21.315  0.00  0.00    +0.000 C 
ENDBRANCH  19  21
ENDBRANCH  15  19
ENDBRANCH   1  17
BRANCH  13  22
ATOM     22  C   UNL     1       5.364   4.344  16.493  0.00  0.00    +0.000 C 
BRANCH  22  23
ATOM     23  C   UNL     1       5.868   4.427  15.063  0.00  0.00    +0.000 A 
ATOM     24  C   UNL     1       5.167   3.777  14.036  0.00  0.00    +0.000 A 
ATOM     25  C   UNL     1       5.749   3.617  12.778  0.00  0.00    +0.000 A 
ATOM     26  C   UNL     1       7.009   4.152  12.520  0.00  0.00    +0.000 A 
ATOM     27  C   UNL     1       7.671   4.885  13.504  0.00  0.00    +0.000 A 
ATOM     28  C   UNL     1       7.104   5.022  14.772  0.00  0.00    +0.000 A 
ENDBRANCH  22  23
ENDBRANCH  13  22
TORSDOF 5
ENDMDL
MODEL 5
REMARK VINA RESULT:      -7.5      1.291      1.784
REMARK  Name = 
REMARK  6 active torsions:
REMARK  status: ('A' for Active; 'I' for Inactive)
REMARK    1  A    between atoms: C_1  and  C_2
REMARK    2  A    between atoms: C_2  and  C_3
REMARK    3  A    between atoms: C_3  and  C_4
REMARK    4  A    between atoms: N_6  and  C_7
REMARK    5  A    between atoms: N_19  and  C_20
REMARK    6  A    between atoms: C_20  and  C_21
REMARK                            x       y       z     vdW  Elec       q    Type
REMARK                         _______ _______ _______ _____ _____    ______ ____
ROOT
ATOM      1  C   UNL     1       3.644   5.158  18.295  0.00  0.00    +0.000 A 
ATOM      2  C   UNL     1       3.008   6.368  18.624  0.00  0.00    +0.000 A 
ATOM      3  C   UNL     1       3.239   7.457  17.790  0.00  0.00    +0.000 A 
ATOM      4  N   UNL     1       4.064   7.414  16.717  0.00  0.00    +0.000 NA
ATOM      5  C   UNL     1       4.694   6.269  16.430  0.00  0.00    +0.000 A 
ATOM      6  C   UNL     1       5.512   6.267  15.310  0.00  0.00    +0.000 A 
ATOM      7  C   UNL     1       6.203   5.124  14.905  0.00  0.00    +0.000 A 
ATOM      8  C   UNL     1       6.079   3.957  15.639  0.00  0.00    +0.000 A 
ATOM      9  C   UNL     1       5.259   3.937  16.769  0.00  0.00    +0.000 A 
ATOM     10  C   UNL     1       4.546   5.093  17.192  0.00  0.00    +0.000 A 
ATOM     11  C   UNL     1       2.611   8.794  18.073  0.00  0.00    +0.000 C 
ATOM     12  C   UNL     1       1.424   8.688  19.030  0.00  0.00    +0.000 C 
ATOM     13  N   UNL     1       1.815   7.928  20.223  0.00  0.00    +0.000 NA
ATOM     14  C   UNL     1       2.109   6.529  19.828  0.00  0.00    +0.000 C 
ENDROOT
BRANCH   1  17
ATOM     15  C   UNL     1       2.399   3.091  18.782  0.00  0.00    +0.000 C 
ATOM     16  O   UNL     1       1.615   3.189  17.846  0.00  0.00    +0.000 OA
ATOM     17  N   UNL     1       3.422   3.986  19.076  0.00  0.00    +0.000 N 
ATOM     18  H   UNL     1       4.233   3.572  19.513  0.00  0.00    +0.000 HD
BRANCH  15  19
ATOM     19  C   UNL     1       2.358   1.891  19.706  0.00  0.00    +0.000 C 
BRANCH  19  21
ATOM     20  C   UNL     1       1.262   2.888  21.764  0.00  0.00    +0.000 C 
ATOM     21  C   UNL     1       2.537   2.314  21.161  0.00  0.00    +0.000 C 
ENDBRANCH  19  21
ENDBRANCH  15  19
ENDBRANCH   1  17
BRANCH  13  22
ATOM     22  C   UNL     1       0.732   7.946  21.237  0.00  0.00    +0.000 C 
BRANCH  22  23
ATOM     23  C   UNL     1       0.405   9.360  21.685  0.00  0.00    +0.000 A 
ATOM     24  C   UNL     1      -0.414   9.567  22.805  0.00  0.00    +0.000 A 
ATOM     25  C   UNL     1      -0.939  10.832  23.069  0.00  0.00    +0.000 A 
ATOM     26  C   UNL     1      -0.607  11.910  22.251  0.00  0.00    +0.000 A 
ATOM     27  C   UNL     1       0.284  11.734  21.193  0.00  0.00    +0.000 A 
ATOM     28  C   UNL     1       0.789  10.464  20.909  0.00  0.00    +0.000 A 
ENDBRANCH  22  23
ENDBRANCH  13  22
TORSDOF 5
ENDMDL
MODEL 6
REMARK VINA RESULT:      -7.4      2.804      8.495
REMARK  Name = 
REMARK  6 active torsions:
REMARK  status: ('A' for Active; 'I' for Inactive)
REMARK    1  A    between atoms: C_1  and  C_2
REMARK    2  A    between atoms: C_2  and  C_3
REMARK    3  A    between atoms: C_3  and  C_4
REMARK    4  A    between atoms: N_6  and  C_7
REMARK    5  A    between atoms: N_19  and  C_20
REMARK    6  A    between atoms: C_20  and  C_21
REMARK                            x       y       z     vdW  Elec       q    Type
REMARK                         _______ _______ _______ _____ _____    ______ ____
ROOT
ATOM      1  C   UNL     1      -0.780  10.848  19.314  0.00  0.00    +0.000 A 
ATOM      2  C   UNL     1       0.216   9.879  19.537  0.00  0.00    +0.000 A 
ATOM      3  C   UNL     1       0.534   9.586  20.859  0.00  0.00    +0.000 A 
ATOM      4  N   UNL     1      -0.035  10.209  21.919  0.00  0.00    +0.000 NA
ATOM      5  C   UNL     1      -0.956  11.154  21.699  0.00  0.00    +0.000 A 
ATOM      6  C   UNL     1      -1.526  11.748  22.815  0.00  0.00    +0.000 A 
ATOM      7  C   UNL     1      -2.508  12.732  22.706  0.00  0.00    +0.000 A 
ATOM      8  C   UNL     1      -2.929  13.136  21.450  0.00  0.00    +0.000 A 
ATOM      9  C   UNL     1      -2.370  12.550  20.313  0.00  0.00    +0.000 A 
ATOM     10  C   UNL     1      -1.370  11.544  20.409  0.00  0.00    +0.000 A 
ATOM     11  C   UNL     1       1.595   8.575  21.192  0.00  0.00    +0.000 C 
ATOM     12  C   UNL     1       1.912   7.655  20.014  0.00  0.00    +0.000 C 
ATOM     13  N   UNL     1       2.183   8.458  18.815  0.00  0.00    +0.000 NA
ATOM     14  C   UNL     1       0.942   9.168  18.420  0.00  0.00    +0.000 C 
ENDROOT
BRANCH   1  17
ATOM     15  C   UNL     1      -2.244  10.507  17.364  0.00  0.00    +0.000 C 
ATOM     16  O   UNL     1      -2.923   9.620  17.866  0.00  0.00    +0.000 OA
ATOM     17  N   UNL     1      -1.193  11.171  17.987  0.00  0.00    +0.000 N 
ATOM     18  H   UNL     1      -1.062  12.128  17.693  0.00  0.00    +0.000 HD
BRANCH  15  19
ATOM     19  C   UNL     1      -2.551  11.027  15.974  0.00  0.00    +0.000 C 
BRANCH  19  21
ATOM     20  C   UNL     1      -3.929  10.109  14.053  0.00  0.00    +0.000 C 
ATOM     21  C   UNL     1      -2.754   9.876  14.992  0.00  0.00    +0.000 C 
ENDBRANCH  19  21
ENDBRANCH  15  19
ENDBRANCH   1  17
BRANCH  13  22
ATOM     22  C   UNL     1       2.648   7.599  17.700  0.00  0.00    +0.000 C 
BRANCH  22  23
ATOM     23  C   UNL     1       2.909   6.175  18.157  0.00  0.00    +0.000 A 
ATOM     24  C   UNL     1       4.171   5.821  18.659  0.00  0.00    +0.000 A 
ATOM     25  C   UNL     1       4.509   4.479  18.830  0.00  0.00    +0.000 A 
ATOM     26  C   UNL     1       3.574   3.483  18.555  0.00  0.00    +0.000 A 
ATOM     27  C   UNL     1       2.286   3.829  18.151  0.00  0.00    +0.000 A 
ATOM     28  C   UNL     1       1.952   5.170  17.951  0.00  0.00    +0.000 A 
ENDBRANCH  22  23
ENDBRANCH  13  22
TORSDOF 5
ENDMDL
MODEL 7
REMARK VINA RESULT:      -7.4      2.907      5.387
REMARK  Name = 
REMARK  6 active torsions:
REMARK  status: ('A' for Active; 'I' for Inactive)
REMARK    1  A    between atoms: C_1  and  C_2
REMARK    2  A    between atoms: C_2  and  C_3
REMARK    3  A    between atoms: C_3  and  C_4
REMARK    4  A    between atoms: N_6  and  C_7
REMARK    5  A    between atoms: N_19  and  C_20
REMARK    6  A    between atoms: C_20  and  C_21
REMARK                            x       y       z     vdW  Elec       q    Type
REMARK                         _______ _______ _______ _____ _____    ______ ____
ROOT
ATOM      1  C   UNL     1       5.868   5.851  16.521  0.00  0.00    +0.000 A 
ATOM      2  C   UNL     1       4.683   5.430  17.152  0.00  0.00    +0.000 A 
ATOM      3  C   UNL     1       3.974   4.396  16.549  0.00  0.00    +0.000 A 
ATOM      4  N   UNL     1       4.348   3.815  15.383  0.00  0.00    +0.000 NA
ATOM      5  C   UNL     1       5.456   4.245  14.771  0.00  0.00    +0.000 A 
ATOM      6  C   UNL     1       5.810   3.605  13.592  0.00  0.00    +0.000 A 
ATOM      7  C   UNL     1       6.956   3.958  12.878  0.00  0.00    +0.000 A 
ATOM      8  C   UNL     1       7.766   4.977  13.351  0.00  0.00    +0.000 A 
ATOM      9  C   UNL     1       7.429   5.632  14.536  0.00  0.00    +0.000 A 
ATOM     10  C   UNL     1       6.266   5.282  15.276  0.00  0.00    +0.000 A 
ATOM     11  C   UNL     1       2.690   3.891  17.144  0.00  0.00    +0.000 C 
ATOM     12  C   UNL     1       2.529   4.295  18.609  0.00  0.00    +0.000 C 
ATOM     13  N   UNL     1       2.746   5.740  18.752  0.00  0.00    +0.000 NA
ATOM     14  C   UNL     1       4.159   6.050  18.425  0.00  0.00    +0.000 C 
ENDROOT
BRANCH   1  17
ATOM     15  C   UNL     1       7.618   6.598  18.084  0.00  0.00    +0.000 C 
ATOM     16  O   UNL     1       7.873   5.487  18.533  0.00  0.00    +0.000 OA
ATOM     17  N   UNL     1       6.674   6.875  17.102  0.00  0.00    +0.000 N 
ATOM     18  H   UNL     1       6.894   7.666  16.513  0.00  0.00    +0.000 HD
BRANCH  15  19
ATOM     19  C   UNL     1       8.396   7.815  18.539  0.00  0.00    +0.000 C 
BRANCH  19  21
ATOM     20  C   UNL     1       8.804  10.283  18.118  0.00  0.00    +0.000 C 
ATOM     21  C   UNL     1       7.978   9.057  17.755  0.00  0.00    +0.000 C 
ENDBRANCH  19  21
ENDBRANCH  15  19
ENDBRANCH   1  17
BRANCH  13  22
ATOM     22  C   UNL     1       2.440   6.184  20.134  0.00  0.00    +0.000 C 
BRANCH  22  23
ATOM     23  C   UNL     1       1.866   7.589  20.159  0.00  0.00    +0.000 A 
ATOM     24  C   UNL     1       1.214   8.058  21.310  0.00  0.00    +0.000 A 
ATOM     25  C   UNL     1       0.455   9.227  21.261  0.00  0.00    +0.000 A 
ATOM     26  C   UNL     1       0.386   9.966  20.082  0.00  0.00    +0.000 A 
ATOM     27  C   UNL     1       1.110   9.560  18.962  0.00  0.00    +0.000 A 
ATOM     28  C   UNL     1       1.847   8.376  18.998  0.00  0.00    +0.000 A 
ENDBRANCH  22  23
ENDBRANCH  13  22
TORSDOF 5
ENDMDL
MODEL 8
REMARK VINA RESULT:      -7.4      3.787      6.825
REMARK  Name = 
REMARK  6 active torsions:
REMARK  status: ('A' for Active; 'I' for Inactive)
REMARK    1  A    between atoms: C_1  and  C_2
REMARK    2  A    between atoms: C_2  and  C_3
REMARK    3  A    between atoms: C_3  and  C_4
REMARK    4  A    between atoms: N_6  and  C_7
REMARK    5  A    between atoms: N_19  and  C_20
REMARK    6  A    between atoms: C_20  and  C_21
REMARK                            x       y       z     vdW  Elec       q    Type
REMARK                         _______ _______ _______ _____ _____    ______ ____
ROOT
ATOM      1  C   UNL     1      -0.664  10.755  19.135  0.00  0.00    +0.000 A 
ATOM      2  C   UNL     1      -1.120  11.225  20.380  0.00  0.00    +0.000 A 
ATOM      3  C   UNL     1      -0.518  10.700  21.518  0.00  0.00    +0.000 A 
ATOM      4  N   UNL     1       0.442   9.744  21.482  0.00  0.00    +0.000 NA
ATOM      5  C   UNL     1       0.846   9.276  20.296  0.00  0.00    +0.000 A 
ATOM      6  C   UNL     1       1.846   8.315  20.308  0.00  0.00    +0.000 A 
ATOM      7  C   UNL     1       2.356   7.768  19.130  0.00  0.00    +0.000 A 
ATOM      8  C   UNL     1       1.853   8.189  17.911  0.00  0.00    +0.000 A 
ATOM      9  C   UNL     1       0.848   9.156  17.876  0.00  0.00    +0.000 A 
ATOM     10  C   UNL     1       0.319   9.724  19.068  0.00  0.00    +0.000 A 
ATOM     11  C   UNL     1      -0.950  11.134  22.891  0.00  0.00    +0.000 C 
ATOM     12  C   UNL     1      -1.729  12.449  22.867  0.00  0.00    +0.000 C 
ATOM     13  N   UNL     1      -2.811  12.367  21.879  0.00  0.00    +0.000 NA
ATOM     14  C   UNL     1      -2.219  12.251  20.524  0.00  0.00    +0.000 C 
ENDROOT
BRANCH   1  17
ATOM     15  C   UNL     1      -2.257  10.662  17.261  0.00  0.00    +0.000 C 
ATOM     16  O   UNL     1      -2.840   9.652  17.637  0.00  0.00    +0.000 OA
ATOM     17  N   UNL     1      -1.200  11.278  17.921  0.00  0.00    +0.000 N 
ATOM     18  H   UNL     1      -1.150  12.280  17.799  0.00  0.00    +0.000 HD
BRANCH  15  19
ATOM     19  C   UNL     1      -2.705  11.398  16.014  0.00  0.00    +0.000 C 
BRANCH  19  21
ATOM     20  C   UNL     1      -3.014   9.927  13.971  0.00  0.00    +0.000 C 
ATOM     21  C   UNL     1      -3.672  10.547  15.195  0.00  0.00    +0.000 C 
ENDBRANCH  19  21
ENDBRANCH  15  19
ENDBRANCH   1  17
BRANCH  13  22
ATOM     22  C   UNL     1      -3.678  13.568  21.947  0.00  0.00    +0.000 C 
BRANCH  22  23
ATOM     23  C   UNL     1      -5.127  13.202  22.218  0.00  0.00    +0.000 A 
ATOM     24  C   UNL     1      -5.645  13.313  23.517  0.00  0.00    +0.000 A 
ATOM     25  C   UNL     1      -6.874  12.736  23.835  0.00  0.00    +0.000 A 
ATOM     26  C   UNL     1      -7.620  12.092  22.849  0.00  0.00    +0.000 A 
ATOM     27  C   UNL     1      -7.158  12.062  21.534  0.00  0.00    +0.000 A 
ATOM     28  C   UNL     1      -5.915  12.614  21.218  0.00  0.00    +0.000 A 
ENDBRANCH  22  23
ENDBRANCH  13  22
TORSDOF 5
ENDMDL
MODEL 9
REMARK VINA RESULT:      -7.3      1.436      1.946
REMARK  Name = 
REMARK  6 active torsions:
REMARK  status: ('A' for Active; 'I' for Inactive)
REMARK    1  A    between atoms: C_1  and  C_2
REMARK    2  A    between atoms: C_2  and  C_3
REMARK    3  A    between atoms: C_3  and  C_4
REMARK    4  A    between atoms: N_6  and  C_7
REMARK    5  A    between atoms: N_19  and  C_20
REMARK    6  A    between atoms: C_20  and  C_21
REMARK                            x       y       z     vdW  Elec       q    Type
REMARK                         _______ _______ _______ _____ _____    ______ ____
ROOT
ATOM      1  C   UNL     1       3.451   5.226  18.112  0.00  0.00    +0.000 A 
ATOM      2  C   UNL     1       2.963   6.519  18.372  0.00  0.00    +0.000 A 
ATOM      3  C   UNL     1       3.405   7.545  17.544  0.00  0.00    +0.000 A 
ATOM      4  N   UNL     1       4.297   7.363  16.540  0.00  0.00    +0.000 NA
ATOM      5  C   UNL     1       4.784   6.136  16.321  0.00  0.00    +0.000 A 
ATOM      6  C   UNL     1       5.677   5.995  15.269  0.00  0.00    +0.000 A 
ATOM      7  C   UNL     1       6.234   4.759  14.937  0.00  0.00    +0.000 A 
ATOM      8  C   UNL     1       5.894   3.639  15.676  0.00  0.00    +0.000 A 
ATOM      9  C   UNL     1       4.995   3.759  16.737  0.00  0.00    +0.000 A 
ATOM     10  C   UNL     1       4.417   5.011  17.086  0.00  0.00    +0.000 A 
ATOM     11  C   UNL     1       2.948   8.961  17.756  0.00  0.00    +0.000 C 
ATOM     12  C   UNL     1       1.688   9.042  18.617  0.00  0.00    +0.000 C 
ATOM     13  N   UNL     1       1.877   8.266  19.849  0.00  0.00    +0.000 NA
ATOM     14  C   UNL     1       2.006   6.830  19.498  0.00  0.00    +0.000 C 
ENDROOT
BRANCH   1  17
ATOM     15  C   UNL     1       1.864   3.398  18.562  0.00  0.00    +0.000 C 
ATOM     16  O   UNL     1       1.140   3.616  17.598  0.00  0.00    +0.000 OA
ATOM     17  N   UNL     1       3.010   4.114  18.889  0.00  0.00    +0.000 N 
ATOM     18  H   UNL     1       3.726   3.577  19.357  0.00  0.00    +0.000 HD
BRANCH  15  19
ATOM     19  C   UNL     1       1.591   2.231  19.489  0.00  0.00    +0.000 C 
BRANCH  19  21
ATOM     20  C   UNL     1       2.259   2.760  21.878  0.00  0.00    +0.000 C 
ATOM     21  C   UNL     1       1.128   2.717  20.860  0.00  0.00    +0.000 C 
ENDBRANCH  19  21
ENDBRANCH  15  19
ENDBRANCH   1  17
BRANCH  13  22
ATOM     22  C   UNL     1       0.732   8.457  20.772  0.00  0.00    +0.000 C 
BRANCH  22  23
ATOM     23  C   UNL     1       0.159   9.859  20.675  0.00  0.00    +0.000 A 
ATOM     24  C   UNL     1      -0.899  10.122  19.791  0.00  0.00    +0.000 A 
ATOM     25  C   UNL     1      -1.256  11.437  19.493  0.00  0.00    +0.000 A 
ATOM     26  C   UNL     1      -0.599  12.497  20.115  0.00  0.00    +0.000 A 
ATOM     27  C   UNL     1       0.386  12.243  21.068  0.00  0.00    +0.000 A 
ATOM     28  C   UNL     1       0.766  10.929  21.348  0.00  0.00    +0.000 A 
ENDBRANCH  22  23
ENDBRANCH  13  22
TORSDOF 5
ENDMDL
