MODEL 1
REMARK VINA RESULT:      -8.6      0.000      0.000
REMARK  Name = 
REMARK  5 active torsions:
REMARK  status: ('A' for Active; 'I' for Inactive)
REMARK    1  A    between atoms: C_1  and  O_2
REMARK    2  A    between atoms: O_2  and  C_3
REMARK    3  A    between atoms: N_13  and  C_14
REMARK    4  A    between atoms: C_16  and  C_17
REMARK    5  A    between atoms: C_17  and  O_18
REMARK                            x       y       z     vdW  Elec       q    Type
REMARK                         _______ _______ _______ _____ _____    ______ ____
ROOT
ATOM      1  C   UNL     1       6.314   4.179  14.119  0.00  0.00    +0.000 A 
ATOM      2  C   UNL     1       5.281   3.565  14.834  0.00  0.00    +0.000 A 
ATOM      3  C   UNL     1       5.039   3.898  16.169  0.00  0.00    +0.000 A 
ATOM      4  C   UNL     1       5.807   4.878  16.805  0.00  0.00    +0.000 A 
ATOM      5  C   UNL     1       6.896   5.427  16.099  0.00  0.00    +0.000 A 
ATOM      6  C   UNL     1       7.137   5.102  14.763  0.00  0.00    +0.000 A 
ATOM      7  N   UNL     1       7.716   6.370  16.731  0.00  0.00    +0.000 N 
ATOM      8  C   UNL     1       7.625   6.641  18.071  0.00  0.00    +0.000 C 
ATOM      9  O   UNL     1       8.380   7.466  18.593  0.00  0.00    +0.000 OA
ATOM     10  C   UNL     1       6.645   5.787  18.878  0.00  0.00    +0.000 C 
ATOM     11  N   UNL     1       5.470   5.397  18.073  0.00  0.00    +0.000 N 
ATOM     12  H   UNL     1       8.431   6.868  16.220  0.00  0.00    +0.000 HD
ENDROOT
BRANCH  11  13
ATOM     13  C   UNL     1       4.209   5.644  18.661  0.00  0.00    +0.000 A 
ATOM     14  N   UNL     1       3.658   6.850  18.399  0.00  0.00    +0.000 NA
ATOM     15  C   UNL     1       2.470   7.137  18.948  0.00  0.00    +0.000 A 
ATOM     16  N   UNL     1       1.779   6.315  19.755  0.00  0.00    +0.000 NA
ATOM     17  C   UNL     1       2.312   5.120  20.010  0.00  0.00    +0.000 A 
ATOM     18  C   UNL     1       1.597   4.271  20.850  0.00  0.00    +0.000 A 
ATOM     19  C   UNL     1       2.052   2.996  21.189  0.00  0.00    +0.000 A 
ATOM     20  C   UNL     1       3.229   2.531  20.638  0.00  0.00    +0.000 A 
ATOM     21  C   UNL     1       3.936   3.349  19.759  0.00  0.00    +0.000 A 
ATOM     22  C   UNL     1       3.534   4.689  19.471  0.00  0.00    +0.000 A 
BRANCH  15  23
ATOM     23  C   UNL     1       1.859   8.492  18.655  0.00  0.00    +0.000 C 
BRANCH  23  24
ATOM     24  O   UNL     1       2.219   8.993  17.361  0.00  0.00    +0.000 OA
ATOM     25  H   UNL     1       1.649   8.508  16.731  0.00  0.00    +0.000 HD
ENDBRANCH  23  24
ENDBRANCH  15  23
ENDBRANCH  11  13
BRANCH   1  27
ATOM     26  C   UNL     1       5.219   3.296  12.204  0.00  0.00    +0.000 C 
ATOM     27  O   UNL     1       6.402   3.804  12.807  0.00  0.00    +0.000 OA
ENDBRANCH   1  27
TORSDOF 4
ENDMDL
MODEL 2
REMARK VINA RESULT:      -8.0      1.172      1.177
REMARK  Name = 
REMARK  5 active torsions:
REMARK  status: ('A' for Active; 'I' for Inactive)
REMARK    1  A    between atoms: C_1  and  O_2
REMARK    2  A    between atoms: O_2  and  C_3
REMARK    3  A    between atoms: N_13  and  C_14
REMARK    4  A    between atoms: C_16  and  C_17
REMARK    5  A    between atoms: C_17  and  O_18
REMARK                            x       y       z     vdW  Elec       q    Type
REMARK                         _______ _______ _______ _____ _____    ______ ____
ROOT
ATOM      1  C   UNL     1       6.503   4.328  13.889  0.00  0.00    +0.000 A 
ATOM      2  C   UNL     1       5.527   3.555  14.527  0.00  0.00    +0.000 A 
ATOM      3  C   UNL     1       5.240   3.743  15.882  0.00  0.00    +0.000 A 
ATOM      4  C   UNL     1       5.903   4.731  16.617  0.00  0.00    +0.000 A 
ATOM      5  C   UNL     1       6.939   5.443  15.982  0.00  0.00    +0.000 A 
ATOM      6  C   UNL     1       7.225   5.264  14.627  0.00  0.00    +0.000 A 
ATOM      7  N   UNL     1       7.658   6.400  16.711  0.00  0.00    +0.000 N 
ATOM      8  C   UNL     1       7.527   6.539  18.068  0.00  0.00    +0.000 C 
ATOM      9  O   UNL     1       8.192   7.383  18.675  0.00  0.00    +0.000 OA
ATOM     10  C   UNL     1       6.626   5.526  18.777  0.00  0.00    +0.000 C 
ATOM     11  N   UNL     1       5.504   5.099  17.918  0.00  0.00    +0.000 N 
ATOM     12  H   UNL     1       8.325   7.008  16.259  0.00  0.00    +0.000 HD
ENDROOT
BRANCH  11  13
ATOM     13  C   UNL     1       4.219   5.170  18.502  0.00  0.00    +0.000 A 
ATOM     14  N   UNL     1       3.762   6.410  18.784  0.00  0.00    +0.000 NA
ATOM     15  C   UNL     1       2.555   6.528  19.354  0.00  0.00    +0.000 A 
ATOM     16  N   UNL     1       1.757   5.497  19.680  0.00  0.00    +0.000 NA
ATOM     17  C   UNL     1       2.196   4.271  19.396  0.00  0.00    +0.000 A 
ATOM     18  C   UNL     1       1.370   3.205  19.737  0.00  0.00    +0.000 A 
ATOM     19  C   UNL     1       1.721   1.877  19.489  0.00  0.00    +0.000 A 
ATOM     20  C   UNL     1       2.906   1.603  18.838  0.00  0.00    +0.000 A 
ATOM     21  C   UNL     1       3.726   2.660  18.447  0.00  0.00    +0.000 A 
ATOM     22  C   UNL     1       3.427   4.018  18.772  0.00  0.00    +0.000 A 
BRANCH  15  23
ATOM     23  C   UNL     1       2.050   7.920  19.672  0.00  0.00    +0.000 C 
BRANCH  23  24
ATOM     24  O   UNL     1       1.816   8.116  21.073  0.00  0.00    +0.000 OA
ATOM     25  H   UNL     1       2.604   7.745  21.519  0.00  0.00    +0.000 HD
ENDBRANCH  23  24
ENDBRANCH  15  23
ENDBRANCH  11  13
BRANCH   1  27
ATOM     26  C   UNL     1       5.855   3.029  12.008  0.00  0.00    +0.000 C 
ATOM     27  O   UNL     1       6.640   4.082  12.551  0.00  0.00    +0.000 OA
ENDBRANCH   1  27
TORSDOF 4
ENDMDL
MODEL 3
REMARK VINA RESULT:      -7.8      1.747      3.060
REMARK  Name = 
REMARK  5 active torsions:
REMARK  status: ('A' for Active; 'I' for Inactive)
REMARK    1  A    between atoms: C_1  and  O_2
REMARK    2  A    between atoms: O_2  and  C_3
REMARK    3  A    between atoms: N_13  and  C_14
REMARK    4  A    between atoms: C_16  and  C_17
REMARK    5  A    between atoms: C_17  and  O_18
REMARK                            x       y       z     vdW  Elec       q    Type
REMARK                         _______ _______ _______ _____ _____    ______ ____
ROOT
ATOM      1  C   UNL     1       6.494   4.289  13.980  0.00  0.00    +0.000 A 
ATOM      2  C   UNL     1       5.581   3.500  14.687  0.00  0.00    +0.000 A 
ATOM      3  C   UNL     1       5.368   3.702  16.053  0.00  0.00    +0.000 A 
ATOM      4  C   UNL     1       6.044   4.721  16.731  0.00  0.00    +0.000 A 
ATOM      5  C   UNL     1       7.020   5.452  16.026  0.00  0.00    +0.000 A 
ATOM      6  C   UNL     1       7.230   5.257  14.659  0.00  0.00    +0.000 A 
ATOM      7  N   UNL     1       7.752   6.441  16.696  0.00  0.00    +0.000 N 
ATOM      8  C   UNL     1       7.697   6.600  18.055  0.00  0.00    +0.000 C 
ATOM      9  O   UNL     1       8.372   7.472  18.609  0.00  0.00    +0.000 OA
ATOM     10  C   UNL     1       6.870   5.573  18.832  0.00  0.00    +0.000 C 
ATOM     11  N   UNL     1       5.712   5.100  18.049  0.00  0.00    +0.000 N 
ATOM     12  H   UNL     1       8.373   7.060  16.195  0.00  0.00    +0.000 HD
ENDROOT
BRANCH  11  13
ATOM     13  C   UNL     1       4.462   5.144  18.707  0.00  0.00    +0.000 A 
ATOM     14  N   UNL     1       4.154   4.071  19.468  0.00  0.00    +0.000 NA
ATOM     15  C   UNL     1       2.973   4.058  20.099  0.00  0.00    +0.000 A 
ATOM     16  N   UNL     1       2.054   5.035  20.026  0.00  0.00    +0.000 NA
ATOM     17  C   UNL     1       2.354   6.102  19.285  0.00  0.00    +0.000 A 
ATOM     18  C   UNL     1       1.400   7.112  19.207  0.00  0.00    +0.000 A 
ATOM     19  C   UNL     1       1.600   8.275  18.464  0.00  0.00    +0.000 A 
ATOM     20  C   UNL     1       2.804   8.464  17.817  0.00  0.00    +0.000 A 
ATOM     21  C   UNL     1       3.790   7.485  17.921  0.00  0.00    +0.000 A 
ATOM     22  C   UNL     1       3.570   6.248  18.601  0.00  0.00    +0.000 A 
BRANCH  15  23
ATOM     23  C   UNL     1       2.631   2.850  20.948  0.00  0.00    +0.000 C 
BRANCH  23  24
ATOM     24  O   UNL     1       2.386   3.189  22.319  0.00  0.00    +0.000 OA
ATOM     25  H   UNL     1       2.801   4.067  22.444  0.00  0.00    +0.000 HD
ENDBRANCH  23  24
ENDBRANCH  15  23
ENDBRANCH  11  13
BRANCH   1  27
ATOM     26  C   UNL     1       5.647   3.060  12.130  0.00  0.00    +0.000 C 
ATOM     27  O   UNL     1       6.558   4.025  12.640  0.00  0.00    +0.000 OA
ENDBRANCH   1  27
TORSDOF 4
ENDMDL
MODEL 4
REMARK VINA RESULT:      -7.4      1.919      6.291
REMARK  Name = 
REMARK  5 active torsions:
REMARK  status: ('A' for Active; 'I' for Inactive)
REMARK    1  A    between atoms: C_1  and  O_2
REMARK    2  A    between atoms: O_2  and  C_3
REMARK    3  A    between atoms: N_13  and  C_14
REMARK    4  A    between atoms: C_16  and  C_17
REMARK    5  A    between atoms: C_17  and  O_18
REMARK                            x       y       z     vdW  Elec       q    Type
REMARK                         _______ _______ _______ _____ _____    ______ ____
ROOT
ATOM      1  C   UNL     1       2.686   3.367  21.070  0.00  0.00    +0.000 A 
ATOM      2  C   UNL     1       3.452   2.892  20.000  0.00  0.00    +0.000 A 
ATOM      3  C   UNL     1       3.803   3.735  18.942  0.00  0.00    +0.000 A 
ATOM      4  C   UNL     1       3.419   5.080  18.951  0.00  0.00    +0.000 A 
ATOM      5  C   UNL     1       2.578   5.521  19.991  0.00  0.00    +0.000 A 
ATOM      6  C   UNL     1       2.231   4.684  21.054  0.00  0.00    +0.000 A 
ATOM      7  N   UNL     1       2.133   6.849  19.994  0.00  0.00    +0.000 N 
ATOM      8  C   UNL     1       2.320   7.688  18.927  0.00  0.00    +0.000 C 
ATOM      9  O   UNL     1       1.895   8.846  18.963  0.00  0.00    +0.000 OA
ATOM     10  C   UNL     1       2.956   7.076  17.678  0.00  0.00    +0.000 C 
ATOM     11  N   UNL     1       3.922   6.014  18.021  0.00  0.00    +0.000 N 
ATOM     12  H   UNL     1       1.627   7.229  20.782  0.00  0.00    +0.000 HD
ENDROOT
BRANCH  11  13
ATOM     13  C   UNL     1       5.195   6.119  17.418  0.00  0.00    +0.000 A 
ATOM     14  N   UNL     1       6.068   6.959  18.016  0.00  0.00    +0.000 NA
ATOM     15  C   UNL     1       7.284   7.105  17.472  0.00  0.00    +0.000 A 
ATOM     16  N   UNL     1       7.705   6.482  16.359  0.00  0.00    +0.000 NA
ATOM     17  C   UNL     1       6.853   5.644  15.769  0.00  0.00    +0.000 A 
ATOM     18  C   UNL     1       7.290   5.001  14.614  0.00  0.00    +0.000 A 
ATOM     19  C   UNL     1       6.489   4.102  13.909  0.00  0.00    +0.000 A 
ATOM     20  C   UNL     1       5.234   3.794  14.393  0.00  0.00    +0.000 A 
ATOM     21  C   UNL     1       4.796   4.392  15.573  0.00  0.00    +0.000 A 
ATOM     22  C   UNL     1       5.565   5.382  16.258  0.00  0.00    +0.000 A 
BRANCH  15  23
ATOM     23  C   UNL     1       8.256   8.052  18.144  0.00  0.00    +0.000 C 
BRANCH  23  24
ATOM     24  O   UNL     1       7.960   9.429  17.879  0.00  0.00    +0.000 OA
ATOM     25  H   UNL     1       8.098   9.540  16.916  0.00  0.00    +0.000 HD
ENDBRANCH  23  24
ENDBRANCH  15  23
ENDBRANCH  11  13
BRANCH   1  27
ATOM     26  C   UNL     1       1.112   2.177  22.394  0.00  0.00    +0.000 C 
ATOM     27  O   UNL     1       2.467   2.454  22.064  0.00  0.00    +0.000 OA
ENDBRANCH   1  27
TORSDOF 4
ENDMDL
MODEL 5
REMARK VINA RESULT:      -7.4      1.863      3.265
REMARK  Name = 
REMARK  5 active torsions:
REMARK  status: ('A' for Active; 'I' for Inactive)
REMARK    1  A    between atoms: C_1  and  O_2
REMARK    2  A    between atoms: O_2  and  C_3
REMARK    3  A    between atoms: N_13  and  C_14
REMARK    4  A    between atoms: C_16  and  C_17
REMARK    5  A    between atoms: C_17  and  O_18
REMARK                            x       y       z     vdW  Elec       q    Type
REMARK                         _______ _______ _______ _____ _____    ______ ____
ROOT
ATOM      1  C   UNL     1       6.431   4.367  13.845  0.00  0.00    +0.000 A 
ATOM      2  C   UNL     1       5.907   3.324  14.616  0.00  0.00    +0.000 A 
ATOM      3  C   UNL     1       5.901   3.400  16.012  0.00  0.00    +0.000 A 
ATOM      4  C   UNL     1       6.390   4.538  16.662  0.00  0.00    +0.000 A 
ATOM      5  C   UNL     1       6.990   5.542  15.876  0.00  0.00    +0.000 A 
ATOM      6  C   UNL     1       6.992   5.473  14.482  0.00  0.00    +0.000 A 
ATOM      7  N   UNL     1       7.539   6.666  16.506  0.00  0.00    +0.000 N 
ATOM      8  C   UNL     1       7.693   6.745  17.865  0.00  0.00    +0.000 C 
ATOM      9  O   UNL     1       8.198   7.746  18.378  0.00  0.00    +0.000 OA
ATOM     10  C   UNL     1       7.326   5.495  18.669  0.00  0.00    +0.000 C 
ATOM     11  N   UNL     1       6.214   4.752  18.045  0.00  0.00    +0.000 N 
ATOM     12  H   UNL     1       7.871   7.455  15.969  0.00  0.00    +0.000 HD
ENDROOT
BRANCH  11  13
ATOM     13  C   UNL     1       5.140   4.416  18.899  0.00  0.00    +0.000 A 
ATOM     14  N   UNL     1       5.227   3.218  19.519  0.00  0.00    +0.000 NA
ATOM     15  C   UNL     1       4.224   2.847  20.327  0.00  0.00    +0.000 A 
ATOM     16  N   UNL     1       3.121   3.576  20.564  0.00  0.00    +0.000 NA
ATOM     17  C   UNL     1       3.032   4.763  19.963  0.00  0.00    +0.000 A 
ATOM     18  C   UNL     1       1.888   5.515  20.207  0.00  0.00    +0.000 A 
ATOM     19  C   UNL     1       1.682   6.772  19.636  0.00  0.00    +0.000 A 
ATOM     20  C   UNL     1       2.665   7.319  18.838  0.00  0.00    +0.000 A 
ATOM     21  C   UNL     1       3.839   6.601  18.619  0.00  0.00    +0.000 A 
ATOM     22  C   UNL     1       4.029   5.277  19.120  0.00  0.00    +0.000 A 
BRANCH  15  23
ATOM     23  C   UNL     1       4.325   1.502  21.016  0.00  0.00    +0.000 C 
BRANCH  23  24
ATOM     24  O   UNL     1       5.609   1.283  21.616  0.00  0.00    +0.000 OA
ATOM     25  H   UNL     1       5.506   0.469  22.151  0.00  0.00    +0.000 HD
ENDBRANCH  23  24
ENDBRANCH  15  23
ENDBRANCH  11  13
BRANCH   1  27
ATOM     26  C   UNL     1       6.169   2.853  12.033  0.00  0.00    +0.000 C 
ATOM     27  O   UNL     1       6.320   4.189  12.495  0.00  0.00    +0.000 OA
ENDBRANCH   1  27
TORSDOF 4
ENDMDL
MODEL 6
REMARK VINA RESULT:      -7.3      1.029      1.129
REMARK  Name = 
REMARK  5 active torsions:
REMARK  status: ('A' for Active; 'I' for Inactive)
REMARK    1  A    between atoms: C_1  and  O_2
REMARK    2  A    between atoms: O_2  and  C_3
REMARK    3  A    between atoms: N_13  and  C_14
REMARK    4  A    between atoms: C_16  and  C_17
REMARK    5  A    between atoms: C_17  and  O_18
REMARK                            x       y       z     vdW  Elec       q    Type
REMARK                         _______ _______ _______ _____ _____    ______ ____
ROOT
ATOM      1  C   UNL     1       6.582   4.400  14.115  0.00  0.00    +0.000 A 
ATOM      2  C   UNL     1       5.288   3.992  14.458  0.00  0.00    +0.000 A 
ATOM      3  C   UNL     1       4.853   4.037  15.785  0.00  0.00    +0.000 A 
ATOM      4  C   UNL     1       5.695   4.521  16.791  0.00  0.00    +0.000 A 
ATOM      5  C   UNL     1       7.021   4.848  16.444  0.00  0.00    +0.000 A 
ATOM      6  C   UNL     1       7.457   4.812  15.118  0.00  0.00    +0.000 A 
ATOM      7  N   UNL     1       7.903   5.282  17.442  0.00  0.00    +0.000 N 
ATOM      8  C   UNL     1       7.591   5.219  18.775  0.00  0.00    +0.000 C 
ATOM      9  O   UNL     1       8.404   5.595  19.623  0.00  0.00    +0.000 OA
ATOM     10  C   UNL     1       6.262   4.554  19.136  0.00  0.00    +0.000 C 
ATOM     11  N   UNL     1       5.237   4.782  18.099  0.00  0.00    +0.000 N 
ATOM     12  H   UNL     1       8.821   5.634  17.211  0.00  0.00    +0.000 HD
ENDROOT
BRANCH  11  13
ATOM     13  C   UNL     1       3.991   5.266  18.558  0.00  0.00    +0.000 A 
ATOM     14  N   UNL     1       3.676   6.531  18.200  0.00  0.00    +0.000 NA
ATOM     15  C   UNL     1       2.513   7.040  18.624  0.00  0.00    +0.000 A 
ATOM     16  N   UNL     1       1.627   6.390  19.397  0.00  0.00    +0.000 NA
ATOM     17  C   UNL     1       1.925   5.139  19.747  0.00  0.00    +0.000 A 
ATOM     18  C   UNL     1       1.009   4.466  20.549  0.00  0.00    +0.000 A 
ATOM     19  C   UNL     1       1.210   3.154  20.979  0.00  0.00    +0.000 A 
ATOM     20  C   UNL     1       2.333   2.472  20.558  0.00  0.00    +0.000 A 
ATOM     21  C   UNL     1       3.240   3.112  19.716  0.00  0.00    +0.000 A 
ATOM     22  C   UNL     1       3.097   4.482  19.340  0.00  0.00    +0.000 A 
BRANCH  15  23
ATOM     23  C   UNL     1       2.168   8.460  18.223  0.00  0.00    +0.000 C 
BRANCH  23  24
ATOM     24  O   UNL     1       1.410   9.149  19.226  0.00  0.00    +0.000 OA
ATOM     25  H   UNL     1       1.758   8.822  20.080  0.00  0.00    +0.000 HD
ENDBRANCH  23  24
ENDBRANCH  15  23
ENDBRANCH  11  13
BRANCH   1  27
ATOM     26  C   UNL     1       7.770   5.330  12.280  0.00  0.00    +0.000 C 
ATOM     27  O   UNL     1       6.855   4.362  12.776  0.00  0.00    +0.000 OA
ENDBRANCH   1  27
TORSDOF 4
ENDMDL
MODEL 7
REMARK VINA RESULT:      -6.8      2.004      6.419
REMARK  Name = 
REMARK  5 active torsions:
REMARK  status: ('A' for Active; 'I' for Inactive)
REMARK    1  A    between atoms: C_1  and  O_2
REMARK    2  A    between atoms: O_2  and  C_3
REMARK    3  A    between atoms: N_13  and  C_14
REMARK    4  A    between atoms: C_16  and  C_17
REMARK    5  A    between atoms: C_17  and  O_18
REMARK                            x       y       z     vdW  Elec       q    Type
REMARK                         _______ _______ _______ _____ _____    ______ ____
ROOT
ATOM      1  C   UNL     1       1.337   3.507  20.350  0.00  0.00    +0.000 A 
ATOM      2  C   UNL     1       2.171   2.888  19.413  0.00  0.00    +0.000 A 
ATOM      3  C   UNL     1       2.920   3.648  18.510  0.00  0.00    +0.000 A 
ATOM      4  C   UNL     1       2.873   5.045  18.549  0.00  0.00    +0.000 A 
ATOM      5  C   UNL     1       1.966   5.651  19.441  0.00  0.00    +0.000 A 
ATOM      6  C   UNL     1       1.221   4.896  20.349  0.00  0.00    +0.000 A 
ATOM      7  N   UNL     1       1.857   7.048  19.462  0.00  0.00    +0.000 N 
ATOM      8  C   UNL     1       2.451   7.844  18.519  0.00  0.00    +0.000 C 
ATOM      9  O   UNL     1       2.315   9.070  18.562  0.00  0.00    +0.000 OA
ATOM     10  C   UNL     1       3.166   7.129  17.370  0.00  0.00    +0.000 C 
ATOM     11  N   UNL     1       3.761   5.852  17.809  0.00  0.00    +0.000 N 
ATOM     12  H   UNL     1       1.305   7.518  20.165  0.00  0.00    +0.000 HD
ENDROOT
BRANCH  11  13
ATOM     13  C   UNL     1       5.119   5.655  17.470  0.00  0.00    +0.000 A 
ATOM     14  N   UNL     1       6.021   5.971  18.425  0.00  0.00    +0.000 NA
ATOM     15  C   UNL     1       7.322   5.817  18.146  0.00  0.00    +0.000 A 
ATOM     16  N   UNL     1       7.808   5.378  16.973  0.00  0.00    +0.000 NA
ATOM     17  C   UNL     1       6.924   5.054  16.029  0.00  0.00    +0.000 A 
ATOM     18  C   UNL     1       7.428   4.602  14.814  0.00  0.00    +0.000 A 
ATOM     19  C   UNL     1       6.602   4.233  13.751  0.00  0.00    +0.000 A 
ATOM     20  C   UNL     1       5.233   4.268  13.917  0.00  0.00    +0.000 A 
ATOM     21  C   UNL     1       4.709   4.674  15.142  0.00  0.00    +0.000 A 
ATOM     22  C   UNL     1       5.535   5.141  16.210  0.00  0.00    +0.000 A 
BRANCH  15  23
ATOM     23  C   UNL     1       8.329   6.178  19.219  0.00  0.00    +0.000 C 
BRANCH  23  24
ATOM     24  O   UNL     1       8.073   5.513  20.463  0.00  0.00    +0.000 OA
ATOM     25  H   UNL     1       7.907   6.231  21.108  0.00  0.00    +0.000 HD
ENDBRANCH  23  24
ENDBRANCH  15  23
ENDBRANCH  11  13
BRANCH   1  27
ATOM     26  C   UNL     1       1.436   2.255  22.366  0.00  0.00    +0.000 C 
ATOM     27  O   UNL     1       0.710   2.650  21.209  0.00  0.00    +0.000 OA
ENDBRANCH   1  27
TORSDOF 4
ENDMDL
MODEL 8
REMARK VINA RESULT:      -6.5      2.063      3.229
REMARK  Name = 
REMARK  5 active torsions:
REMARK  status: ('A' for Active; 'I' for Inactive)
REMARK    1  A    between atoms: C_1  and  O_2
REMARK    2  A    between atoms: O_2  and  C_3
REMARK    3  A    between atoms: N_13  and  C_14
REMARK    4  A    between atoms: C_16  and  C_17
REMARK    5  A    between atoms: C_17  and  O_18
REMARK                            x       y       z     vdW  Elec       q    Type
REMARK                         _______ _______ _______ _____ _____    ______ ____
ROOT
ATOM      1  C   UNL     1       6.937   4.645  13.974  0.00  0.00    +0.000 A 
ATOM      2  C   UNL     1       5.688   4.043  14.156  0.00  0.00    +0.000 A 
ATOM      3  C   UNL     1       5.139   3.908  15.434  0.00  0.00    +0.000 A 
ATOM      4  C   UNL     1       5.817   4.404  16.552  0.00  0.00    +0.000 A 
ATOM      5  C   UNL     1       7.109   4.932  16.362  0.00  0.00    +0.000 A 
ATOM      6  C   UNL     1       7.658   5.074  15.086  0.00  0.00    +0.000 A 
ATOM      7  N   UNL     1       7.833   5.384  17.472  0.00  0.00    +0.000 N 
ATOM      8  C   UNL     1       7.421   5.159  18.759  0.00  0.00    +0.000 C 
ATOM      9  O   UNL     1       8.098   5.559  19.710  0.00  0.00    +0.000 OA
ATOM     10  C   UNL     1       6.170   4.296  18.936  0.00  0.00    +0.000 C 
ATOM     11  N   UNL     1       5.216   4.483  17.826  0.00  0.00    +0.000 N 
ATOM     12  H   UNL     1       8.710   5.873  17.360  0.00  0.00    +0.000 HD
ENDROOT
BRANCH  11  13
ATOM     13  C   UNL     1       3.881   4.755  18.198  0.00  0.00    +0.000 A 
ATOM     14  N   UNL     1       3.172   3.708  18.676  0.00  0.00    +0.000 NA
ATOM     15  C   UNL     1       1.896   3.913  19.028  0.00  0.00    +0.000 A 
ATOM     16  N   UNL     1       1.253   5.089  18.933  0.00  0.00    +0.000 NA
ATOM     17  C   UNL     1       1.948   6.129  18.471  0.00  0.00    +0.000 A 
ATOM     18  C   UNL     1       1.281   7.346  18.370  0.00  0.00    +0.000 A 
ATOM     19  C   UNL     1       1.902   8.504  17.902  0.00  0.00    +0.000 A 
ATOM     20  C   UNL     1       3.241   8.464  17.571  0.00  0.00    +0.000 A 
ATOM     21  C   UNL     1       3.939   7.266  17.710  0.00  0.00    +0.000 A 
ATOM     22  C   UNL     1       3.299   6.051  18.100  0.00  0.00    +0.000 A 
BRANCH  15  23
ATOM     23  C   UNL     1       1.105   2.735  19.558  0.00  0.00    +0.000 C 
BRANCH  23  24
ATOM     24  O   UNL     1       0.282   2.124  18.555  0.00  0.00    +0.000 OA
ATOM     25  H   UNL     1      -0.618   2.105  18.939  0.00  0.00    +0.000 HD
ENDBRANCH  23  24
ENDBRANCH  15  23
ENDBRANCH  11  13
BRANCH   1  27
ATOM     26  C   UNL     1       6.988   3.697  11.796  0.00  0.00    +0.000 C 
ATOM     27  O   UNL     1       7.327   4.766  12.669  0.00  0.00    +0.000 OA
ENDBRANCH   1  27
TORSDOF 4
ENDMDL
MODEL 9
REMARK VINA RESULT:      -6.5      3.793      7.508
REMARK  Name = 
REMARK  5 active torsions:
REMARK  status: ('A' for Active; 'I' for Inactive)
REMARK    1  A    between atoms: C_1  and  O_2
REMARK    2  A    between atoms: O_2  and  C_3
REMARK    3  A    between atoms: N_13  and  C_14
REMARK    4  A    between atoms: C_16  and  C_17
REMARK    5  A    between atoms: C_17  and  O_18
REMARK                            x       y       z     vdW  Elec       q    Type
REMARK                         _______ _______ _______ _____ _____    ______ ____
ROOT
ATOM      1  C   UNL     1      -1.278  10.608  18.217  0.00  0.00    +0.000 A 
ATOM      2  C   UNL     1      -0.275   9.924  17.522  0.00  0.00    +0.000 A 
ATOM      3  C   UNL     1       0.714   9.215  18.208  0.00  0.00    +0.000 A 
ATOM      4  C   UNL     1       0.701   9.152  19.605  0.00  0.00    +0.000 A 
ATOM      5  C   UNL     1      -0.264   9.914  20.292  0.00  0.00    +0.000 A 
ATOM      6  C   UNL     1      -1.259  10.618  19.610  0.00  0.00    +0.000 A 
ATOM      7  N   UNL     1      -0.266   9.914  21.693  0.00  0.00    +0.000 N 
ATOM      8  C   UNL     1       0.749   9.360  22.428  0.00  0.00    +0.000 C 
ATOM      9  O   UNL     1       0.719   9.397  23.660  0.00  0.00    +0.000 OA
ATOM     10  C   UNL     1       1.948   8.823  21.643  0.00  0.00    +0.000 C 
ATOM     11  N   UNL     1       1.545   8.285  20.330  0.00  0.00    +0.000 N 
ATOM     12  H   UNL     1      -1.011  10.353  22.215  0.00  0.00    +0.000 HD
ENDROOT
BRANCH  11  13
ATOM     13  C   UNL     1       2.014   6.988  20.022  0.00  0.00    +0.000 A 
ATOM     14  N   UNL     1       1.563   5.990  20.814  0.00  0.00    +0.000 NA
ATOM     15  C   UNL     1       1.992   4.744  20.573  0.00  0.00    +0.000 A 
ATOM     16  N   UNL     1       2.855   4.405  19.601  0.00  0.00    +0.000 NA
ATOM     17  C   UNL     1       3.297   5.382  18.809  0.00  0.00    +0.000 A 
ATOM     18  C   UNL     1       4.193   5.031  17.805  0.00  0.00    +0.000 A 
ATOM     19  C   UNL     1       4.724   5.964  16.914  0.00  0.00    +0.000 A 
ATOM     20  C   UNL     1       4.315   7.280  16.993  0.00  0.00    +0.000 A 
ATOM     21  C   UNL     1       3.383   7.643  17.963  0.00  0.00    +0.000 A 
ATOM     22  C   UNL     1       2.898   6.721  18.939  0.00  0.00    +0.000 A 
BRANCH  15  23
ATOM     23  C   UNL     1       1.486   3.631  21.467  0.00  0.00    +0.000 C 
BRANCH  23  24
ATOM     24  O   UNL     1       2.548   2.861  22.046  0.00  0.00    +0.000 OA
ATOM     25  H   UNL     1       3.074   2.538  21.286  0.00  0.00    +0.000 HD
ENDBRANCH  23  24
ENDBRANCH  15  23
ENDBRANCH  11  13
BRANCH   1  27
ATOM     26  C   UNL     1      -3.485  11.462  18.007  0.00  0.00    +0.000 C 
ATOM     27  O   UNL     1      -2.215  11.208  17.423  0.00  0.00    +0.000 OA
ENDBRANCH   1  27
TORSDOF 4
ENDMDL
