MODEL 1
REMARK VINA RESULT:      -5.8      0.000      0.000
REMARK  Name = 
REMARK  5 active torsions:
REMARK  status: ('A' for Active; 'I' for Inactive)
REMARK    1  A    between atoms: C_1  and  N_2
REMARK    2  A    between atoms: N_2  and  C_5
REMARK    3  A    between atoms: C_5  and  C_6
REMARK    4  A    between atoms: C_6  and  C_7
REMARK    5  A    between atoms: C_10  and  O_11
REMARK                            x       y       z     vdW  Elec       q    Type
REMARK                         _______ _______ _______ _____ _____    ______ ____
ROOT
ATOM      1  C   UNL     1       3.753   4.864  18.125  0.00  0.00    +0.000 A 
ATOM      2  C   UNL     1       4.687   5.227  19.111  0.00  0.00    +0.000 A 
ATOM      3  C   UNL     1       6.062   5.127  18.880  0.00  0.00    +0.000 A 
ATOM      4  C   UNL     1       6.513   4.633  17.665  0.00  0.00    +0.000 A 
ATOM      5  C   UNL     1       5.615   4.223  16.691  0.00  0.00    +0.000 A 
ATOM      6  C   UNL     1       4.238   4.333  16.921  0.00  0.00    +0.000 A 
ENDROOT
BRANCH   4   7
ATOM      7  O   UNL     1       7.847   4.535  17.400  0.00  0.00    +0.000 OA
ATOM      8  H   UNL     1       8.264   4.011  18.104  0.00  0.00    +0.000 HD
ENDBRANCH   4   7
BRANCH   1   9
ATOM      9  C   UNL     1       2.260   4.999  18.353  0.00  0.00    +0.000 C 
BRANCH   9  10
ATOM     10  C   UNL     1       1.822   4.647  19.785  0.00  0.00    +0.000 C 
BRANCH  10  12
ATOM     11  C   UNL     1       0.894   2.514  18.872  0.00  0.00    +0.000 C 
ATOM     12  N   UNL     1       1.479   3.244  19.980  0.00  0.00    +0.000 N 
ATOM     13  C   UNL     1       1.671   2.653  21.212  0.00  0.00    +0.000 C 
ATOM     14  O   UNL     1       2.152   3.202  22.199  0.00  0.00    +0.000 OA
ENDBRANCH  10  12
ENDBRANCH   9  10
ENDBRANCH   1   9
TORSDOF 4
ENDMDL
MODEL 2
REMARK VINA RESULT:      -5.7      2.205      5.393
REMARK  Name = 
REMARK  5 active torsions:
REMARK  status: ('A' for Active; 'I' for Inactive)
REMARK    1  A    between atoms: C_1  and  N_2
REMARK    2  A    between atoms: N_2  and  C_5
REMARK    3  A    between atoms: C_5  and  C_6
REMARK    4  A    between atoms: C_6  and  C_7
REMARK    5  A    between atoms: C_10  and  O_11
REMARK                            x       y       z     vdW  Elec       q    Type
REMARK                         _______ _______ _______ _____ _____    ______ ____
ROOT
ATOM      1  C   UNL     1       3.063   5.429  18.393  0.00  0.00    +0.000 A 
ATOM      2  C   UNL     1       2.149   4.553  17.782  0.00  0.00    +0.000 A 
ATOM      3  C   UNL     1       1.284   3.762  18.542  0.00  0.00    +0.000 A 
ATOM      4  C   UNL     1       1.348   3.820  19.926  0.00  0.00    +0.000 A 
ATOM      5  C   UNL     1       2.272   4.639  20.557  0.00  0.00    +0.000 A 
ATOM      6  C   UNL     1       3.131   5.439  19.794  0.00  0.00    +0.000 A 
ENDROOT
BRANCH   4   7
ATOM      7  O   UNL     1       0.510   3.072  20.699  0.00  0.00    +0.000 OA
ATOM      8  H   UNL     1       0.998   2.774  21.485  0.00  0.00    +0.000 HD
ENDBRANCH   4   7
BRANCH   1   9
ATOM      9  C   UNL     1       3.984   6.317  17.578  0.00  0.00    +0.000 C 
BRANCH   9  10
ATOM     10  C   UNL     1       5.478   6.053  17.833  0.00  0.00    +0.000 C 
BRANCH  10  12
ATOM     11  C   UNL     1       5.613   5.474  15.407  0.00  0.00    +0.000 C 
ATOM     12  N   UNL     1       6.161   5.368  16.745  0.00  0.00    +0.000 N 
ATOM     13  C   UNL     1       7.278   4.601  17.007  0.00  0.00    +0.000 C 
ATOM     14  O   UNL     1       7.799   4.454  18.109  0.00  0.00    +0.000 OA
ENDBRANCH  10  12
ENDBRANCH   9  10
ENDBRANCH   1   9
TORSDOF 4
ENDMDL
MODEL 3
REMARK VINA RESULT:      -5.7      1.562      2.181
REMARK  Name = 
REMARK  5 active torsions:
REMARK  status: ('A' for Active; 'I' for Inactive)
REMARK    1  A    between atoms: C_1  and  N_2
REMARK    2  A    between atoms: N_2  and  C_5
REMARK    3  A    between atoms: C_5  and  C_6
REMARK    4  A    between atoms: C_6  and  C_7
REMARK    5  A    between atoms: C_10  and  O_11
REMARK                            x       y       z     vdW  Elec       q    Type
REMARK                         _______ _______ _______ _____ _____    ______ ____
ROOT
ATOM      1  C   UNL     1       4.106   5.176  17.872  0.00  0.00    +0.000 A 
ATOM      2  C   UNL     1       4.642   4.689  16.667  0.00  0.00    +0.000 A 
ATOM      3  C   UNL     1       5.988   4.331  16.564  0.00  0.00    +0.000 A 
ATOM      4  C   UNL     1       6.819   4.486  17.664  0.00  0.00    +0.000 A 
ATOM      5  C   UNL     1       6.329   5.008  18.852  0.00  0.00    +0.000 A 
ATOM      6  C   UNL     1       4.977   5.357  18.956  0.00  0.00    +0.000 A 
ENDROOT
BRANCH   4   7
ATOM      7  O   UNL     1       8.135   4.133  17.604  0.00  0.00    +0.000 OA
ATOM      8  H   UNL     1       8.585   4.486  18.390  0.00  0.00    +0.000 HD
ENDBRANCH   4   7
BRANCH   1   9
ATOM      9  C   UNL     1       2.639   5.537  18.004  0.00  0.00    +0.000 C 
BRANCH   9  10
ATOM     10  C   UNL     1       1.689   4.347  17.781  0.00  0.00    +0.000 C 
BRANCH  10  12
ATOM     11  C   UNL     1       0.943   3.806  20.103  0.00  0.00    +0.000 C 
ATOM     12  N   UNL     1       1.634   3.406  18.892  0.00  0.00    +0.000 N 
ATOM     13  C   UNL     1       2.270   2.186  18.794  0.00  0.00    +0.000 C 
ATOM     14  O   UNL     1       2.881   1.777  17.811  0.00  0.00    +0.000 OA
ENDBRANCH  10  12
ENDBRANCH   9  10
ENDBRANCH   1   9
TORSDOF 4
ENDMDL
MODEL 4
REMARK VINA RESULT:      -5.7      1.194      1.652
REMARK  Name = 
REMARK  5 active torsions:
REMARK  status: ('A' for Active; 'I' for Inactive)
REMARK    1  A    between atoms: C_1  and  N_2
REMARK    2  A    between atoms: N_2  and  C_5
REMARK    3  A    between atoms: C_5  and  C_6
REMARK    4  A    between atoms: C_6  and  C_7
REMARK    5  A    between atoms: C_10  and  O_11
REMARK                            x       y       z     vdW  Elec       q    Type
REMARK                         _______ _______ _______ _____ _____    ______ ____
ROOT
ATOM      1  C   UNL     1       3.816   4.830  17.372  0.00  0.00    +0.000 A 
ATOM      2  C   UNL     1       4.617   4.031  16.538  0.00  0.00    +0.000 A 
ATOM      3  C   UNL     1       5.864   4.473  16.088  0.00  0.00    +0.000 A 
ATOM      4  C   UNL     1       6.307   5.737  16.448  0.00  0.00    +0.000 A 
ATOM      5  C   UNL     1       5.519   6.567  17.232  0.00  0.00    +0.000 A 
ATOM      6  C   UNL     1       4.274   6.118  17.690  0.00  0.00    +0.000 A 
ENDROOT
BRANCH   4   7
ATOM      7  O   UNL     1       7.525   6.196  16.040  0.00  0.00    +0.000 OA
ATOM      8  H   UNL     1       7.648   7.096  16.385  0.00  0.00    +0.000 HD
ENDBRANCH   4   7
BRANCH   1   9
ATOM      9  C   UNL     1       2.476   4.347  17.893  0.00  0.00    +0.000 C 
BRANCH   9  10
ATOM     10  C   UNL     1       2.438   4.168  19.420  0.00  0.00    +0.000 C 
BRANCH  10  12
ATOM     11  C   UNL     1       0.792   2.363  18.895  0.00  0.00    +0.000 C 
ATOM     12  N   UNL     1       1.591   3.072  19.875  0.00  0.00    +0.000 N 
ATOM     13  C   UNL     1       1.528   2.762  21.217  0.00  0.00    +0.000 C 
ATOM     14  O   UNL     1       2.165   3.318  22.108  0.00  0.00    +0.000 OA
ENDBRANCH  10  12
ENDBRANCH   9  10
ENDBRANCH   1   9
TORSDOF 4
ENDMDL
MODEL 5
REMARK VINA RESULT:      -5.7      2.799      5.482
REMARK  Name = 
REMARK  5 active torsions:
REMARK  status: ('A' for Active; 'I' for Inactive)
REMARK    1  A    between atoms: C_1  and  N_2
REMARK    2  A    between atoms: N_2  and  C_5
REMARK    3  A    between atoms: C_5  and  C_6
REMARK    4  A    between atoms: C_6  and  C_7
REMARK    5  A    between atoms: C_10  and  O_11
REMARK                            x       y       z     vdW  Elec       q    Type
REMARK                         _______ _______ _______ _____ _____    ______ ____
ROOT
ATOM      1  C   UNL     1       3.636   4.983  17.562  0.00  0.00    +0.000 A 
ATOM      2  C   UNL     1       2.308   5.135  17.997  0.00  0.00    +0.000 A 
ATOM      3  C   UNL     1       1.518   4.028  18.318  0.00  0.00    +0.000 A 
ATOM      4  C   UNL     1       2.044   2.753  18.175  0.00  0.00    +0.000 A 
ATOM      5  C   UNL     1       3.335   2.570  17.703  0.00  0.00    +0.000 A 
ATOM      6  C   UNL     1       4.129   3.680  17.393  0.00  0.00    +0.000 A 
ENDROOT
BRANCH   4   7
ATOM      7  O   UNL     1       1.307   1.650  18.492  0.00  0.00    +0.000 OA
ATOM      8  H   UNL     1       1.857   1.053  19.025  0.00  0.00    +0.000 HD
ENDBRANCH   4   7
BRANCH   1   9
ATOM      9  C   UNL     1       4.513   6.178  17.243  0.00  0.00    +0.000 C 
BRANCH   9  10
ATOM     10  C   UNL     1       5.784   5.816  16.457  0.00  0.00    +0.000 C 
BRANCH  10  12
ATOM     11  C   UNL     1       7.566   4.639  17.753  0.00  0.00    +0.000 C 
ATOM     12  N   UNL     1       7.012   5.876  17.239  0.00  0.00    +0.000 N 
ATOM     13  C   UNL     1       7.595   7.096  17.513  0.00  0.00    +0.000 C 
ATOM     14  O   UNL     1       7.186   8.186  17.123  0.00  0.00    +0.000 OA
ENDBRANCH  10  12
ENDBRANCH   9  10
ENDBRANCH   1   9
TORSDOF 4
ENDMDL
MODEL 6
REMARK VINA RESULT:      -5.7      2.256      5.378
REMARK  Name = 
REMARK  5 active torsions:
REMARK  status: ('A' for Active; 'I' for Inactive)
REMARK    1  A    between atoms: C_1  and  N_2
REMARK    2  A    between atoms: N_2  and  C_5
REMARK    3  A    between atoms: C_5  and  C_6
REMARK    4  A    between atoms: C_6  and  C_7
REMARK    5  A    between atoms: C_10  and  O_11
REMARK                            x       y       z     vdW  Elec       q    Type
REMARK                         _______ _______ _______ _____ _____    ______ ____
ROOT
ATOM      1  C   UNL     1       3.198   5.460  18.540  0.00  0.00    +0.000 A 
ATOM      2  C   UNL     1       2.785   5.678  19.866  0.00  0.00    +0.000 A 
ATOM      3  C   UNL     1       1.798   4.887  20.458  0.00  0.00    +0.000 A 
ATOM      4  C   UNL     1       1.191   3.886  19.714  0.00  0.00    +0.000 A 
ATOM      5  C   UNL     1       1.544   3.678  18.388  0.00  0.00    +0.000 A 
ATOM      6  C   UNL     1       2.541   4.465  17.800  0.00  0.00    +0.000 A 
ENDROOT
BRANCH   4   7
ATOM      7  O   UNL     1       0.233   3.085  20.263  0.00  0.00    +0.000 OA
ATOM      8  H   UNL     1      -0.104   3.515  21.066  0.00  0.00    +0.000 HD
ENDBRANCH   4   7
BRANCH   1   9
ATOM      9  C   UNL     1       4.292   6.291  17.898  0.00  0.00    +0.000 C 
BRANCH   9  10
ATOM     10  C   UNL     1       5.658   5.584  17.857  0.00  0.00    +0.000 C 
BRANCH  10  12
ATOM     11  C   UNL     1       5.346   5.723  15.382  0.00  0.00    +0.000 C 
ATOM     12  N   UNL     1       6.146   5.297  16.514  0.00  0.00    +0.000 N 
ATOM     13  C   UNL     1       7.321   4.595  16.344  0.00  0.00    +0.000 C 
ATOM     14  O   UNL     1       8.050   4.195  17.247  0.00  0.00    +0.000 OA
ENDBRANCH  10  12
ENDBRANCH   9  10
ENDBRANCH   1   9
TORSDOF 4
ENDMDL
MODEL 7
REMARK VINA RESULT:      -5.7      2.285      5.376
REMARK  Name = 
REMARK  5 active torsions:
REMARK  status: ('A' for Active; 'I' for Inactive)
REMARK    1  A    between atoms: C_1  and  N_2
REMARK    2  A    between atoms: N_2  and  C_5
REMARK    3  A    between atoms: C_5  and  C_6
REMARK    4  A    between atoms: C_6  and  C_7
REMARK    5  A    between atoms: C_10  and  O_11
REMARK                            x       y       z     vdW  Elec       q    Type
REMARK                         _______ _______ _______ _____ _____    ______ ____
ROOT
ATOM      1  C   UNL     1       3.259   4.646  17.835  0.00  0.00    +0.000 A 
ATOM      2  C   UNL     1       2.843   5.376  18.962  0.00  0.00    +0.000 A 
ATOM      3  C   UNL     1       1.866   4.879  19.828  0.00  0.00    +0.000 A 
ATOM      4  C   UNL     1       1.273   3.655  19.555  0.00  0.00    +0.000 A 
ATOM      5  C   UNL     1       1.629   2.934  18.425  0.00  0.00    +0.000 A 
ATOM      6  C   UNL     1       2.616   3.429  17.564  0.00  0.00    +0.000 A 
ENDROOT
BRANCH   4   7
ATOM      7  O   UNL     1       0.326   3.133  20.386  0.00  0.00    +0.000 OA
ATOM      8  H   UNL     1      -0.551   3.350  20.029  0.00  0.00    +0.000 HD
ENDBRANCH   4   7
BRANCH   1   9
ATOM      9  C   UNL     1       4.342   5.160  16.906  0.00  0.00    +0.000 C 
BRANCH   9  10
ATOM     10  C   UNL     1       5.299   4.063  16.410  0.00  0.00    +0.000 C 
BRANCH  10  12
ATOM     11  C   UNL     1       7.071   4.811  14.815  0.00  0.00    +0.000 C 
ATOM     12  N   UNL     1       6.663   4.517  16.175  0.00  0.00    +0.000 N 
ATOM     13  C   UNL     1       7.547   4.615  17.230  0.00  0.00    +0.000 C 
ATOM     14  O   UNL     1       7.284   4.377  18.405  0.00  0.00    +0.000 OA
ENDBRANCH  10  12
ENDBRANCH   9  10
ENDBRANCH   1   9
TORSDOF 4
ENDMDL
MODEL 8
REMARK VINA RESULT:      -5.7      2.317      5.496
REMARK  Name = 
REMARK  5 active torsions:
REMARK  status: ('A' for Active; 'I' for Inactive)
REMARK    1  A    between atoms: C_1  and  N_2
REMARK    2  A    between atoms: N_2  and  C_5
REMARK    3  A    between atoms: C_5  and  C_6
REMARK    4  A    between atoms: C_6  and  C_7
REMARK    5  A    between atoms: C_10  and  O_11
REMARK                            x       y       z     vdW  Elec       q    Type
REMARK                         _______ _______ _______ _____ _____    ______ ____
ROOT
ATOM      1  C   UNL     1       3.314   3.709  17.523  0.00  0.00    +0.000 A 
ATOM      2  C   UNL     1       2.933   2.405  17.884  0.00  0.00    +0.000 A 
ATOM      3  C   UNL     1       1.921   2.177  18.819  0.00  0.00    +0.000 A 
ATOM      4  C   UNL     1       1.300   3.259  19.427  0.00  0.00    +0.000 A 
ATOM      5  C   UNL     1       1.688   4.556  19.126  0.00  0.00    +0.000 A 
ATOM      6  C   UNL     1       2.695   4.783  18.181  0.00  0.00    +0.000 A 
ENDROOT
BRANCH   4   7
ATOM      7  O   UNL     1       0.299   3.075  20.334  0.00  0.00    +0.000 OA
ATOM      8  H   UNL     1       0.421   3.708  21.061  0.00  0.00    +0.000 HD
ENDBRANCH   4   7
BRANCH   1   9
ATOM      9  C   UNL     1       4.388   3.968  16.484  0.00  0.00    +0.000 C 
BRANCH   9  10
ATOM     10  C   UNL     1       5.376   5.077  16.884  0.00  0.00    +0.000 C 
BRANCH  10  12
ATOM     11  C   UNL     1       7.104   4.734  15.112  0.00  0.00    +0.000 C 
ATOM     12  N   UNL     1       6.761   4.808  16.519  0.00  0.00    +0.000 N 
ATOM     13  C   UNL     1       7.701   4.586  17.504  0.00  0.00    +0.000 C 
ATOM     14  O   UNL     1       7.490   4.623  18.713  0.00  0.00    +0.000 OA
ENDBRANCH  10  12
ENDBRANCH   9  10
ENDBRANCH   1   9
TORSDOF 4
ENDMDL
MODEL 9
REMARK VINA RESULT:      -5.7      2.400      5.632
REMARK  Name = 
REMARK  5 active torsions:
REMARK  status: ('A' for Active; 'I' for Inactive)
REMARK    1  A    between atoms: C_1  and  N_2
REMARK    2  A    between atoms: N_2  and  C_5
REMARK    3  A    between atoms: C_5  and  C_6
REMARK    4  A    between atoms: C_6  and  C_7
REMARK    5  A    between atoms: C_10  and  O_11
REMARK                            x       y       z     vdW  Elec       q    Type
REMARK                         _______ _______ _______ _____ _____    ______ ____
ROOT
ATOM      1  C   UNL     1       2.987   5.719  18.363  0.00  0.00    +0.000 A 
ATOM      2  C   UNL     1       2.444   4.604  17.701  0.00  0.00    +0.000 A 
ATOM      3  C   UNL     1       1.549   3.743  18.342  0.00  0.00    +0.000 A 
ATOM      4  C   UNL     1       1.214   3.977  19.668  0.00  0.00    +0.000 A 
ATOM      5  C   UNL     1       1.770   5.041  20.361  0.00  0.00    +0.000 A 
ATOM      6  C   UNL     1       2.658   5.908  19.714  0.00  0.00    +0.000 A 
ENDROOT
BRANCH   4   7
ATOM      7  O   UNL     1       0.334   3.165  20.322  0.00  0.00    +0.000 OA
ATOM      8  H   UNL     1      -0.232   3.716  20.888  0.00  0.00    +0.000 HD
ENDBRANCH   4   7
BRANCH   1   9
ATOM      9  C   UNL     1       3.932   6.678  17.666  0.00  0.00    +0.000 C 
BRANCH   9  10
ATOM     10  C   UNL     1       5.210   6.006  17.135  0.00  0.00    +0.000 C 
BRANCH  10  12
ATOM     11  C   UNL     1       6.330   5.271  19.244  0.00  0.00    +0.000 C 
ATOM     12  N   UNL     1       6.348   6.081  18.042  0.00  0.00    +0.000 N 
ATOM     13  C   UNL     1       7.391   6.942  17.768  0.00  0.00    +0.000 C 
ATOM     14  O   UNL     1       7.479   7.664  16.779  0.00  0.00    +0.000 OA
ENDBRANCH  10  12
ENDBRANCH   9  10
ENDBRANCH   1   9
TORSDOF 4
ENDMDL
