MODEL 1
REMARK VINA RESULT:      -8.4      0.000      0.000
REMARK  Name = 
REMARK  5 active torsions:
REMARK  status: ('A' for Active; 'I' for Inactive)
REMARK    1  A    between atoms: C_1  and  C_2
REMARK    2  A    between atoms: C_5  and  C_6
REMARK    3  A    between atoms: N_8  and  C_9
REMARK    4  A    between atoms: C_13  and  C_14
REMARK    5  A    between atoms: C_15  and  C_16
REMARK                            x       y       z     vdW  Elec       q    Type
REMARK                         _______ _______ _______ _____ _____    ______ ____
ROOT
ATOM      1  C   UNL     1       3.306   4.388  18.679  0.00  0.00    +0.000 A 
ATOM      2  C   UNL     1       3.173   3.240  19.467  0.00  0.00    +0.000 A 
ATOM      3  C   UNL     1       2.485   3.276  20.681  0.00  0.00    +0.000 A 
ATOM      4  C   UNL     1       1.922   4.468  21.133  0.00  0.00    +0.000 A 
ATOM      5  C   UNL     1       2.061   5.639  20.382  0.00  0.00    +0.000 A 
ATOM      6  C   UNL     1       2.765   5.598  19.160  0.00  0.00    +0.000 A 
ENDROOT
BRANCH   1   9
ATOM      7  C   UNL     1       5.252   4.832  17.171  0.00  0.00    +0.000 C 
ATOM      8  O   UNL     1       6.021   5.286  18.014  0.00  0.00    +0.000 OA
ATOM      9  N   UNL     1       3.960   4.370  17.411  0.00  0.00    +0.000 N 
ATOM     10  H   UNL     1       3.506   3.846  16.675  0.00  0.00    +0.000 HD
BRANCH   7  15
ATOM     11  C   UNL     1       7.202   4.053  11.747  0.00  0.00    +0.000 C 
ATOM     12  C   UNL     1       6.710   4.269  13.150  0.00  0.00    +0.000 A 
ATOM     13  C   UNL     1       5.453   3.800  13.542  0.00  0.00    +0.000 A 
ATOM     14  C   UNL     1       5.002   4.008  14.847  0.00  0.00    +0.000 A 
ATOM     15  C   UNL     1       5.789   4.698  15.783  0.00  0.00    +0.000 A 
ATOM     16  C   UNL     1       7.053   5.156  15.402  0.00  0.00    +0.000 A 
ATOM     17  C   UNL     1       7.507   4.940  14.090  0.00  0.00    +0.000 A 
ENDBRANCH   7  15
ENDBRANCH   1   9
BRANCH   5  18
ATOM     18  C   UNL     1       1.448   6.858  20.858  0.00  0.00    +0.000 C 
ATOM     19  C   UNL     1       0.976   7.908  21.219  0.00  0.00    +0.000 C 
BRANCH  19  20
ATOM     20  C   UNL     1       0.465   9.198  21.646  0.00  0.00    +0.000 A 
ATOM     21  C   UNL     1      -0.489   9.326  22.779  0.00  0.00    +0.000 A 
ATOM     22  C   UNL     1      -0.936  10.556  23.066  0.00  0.00    +0.000 A 
ATOM     23  C   UNL     1      -0.481  11.652  22.300  0.00  0.00    +0.000 A 
ATOM     24  N   UNL     1      -0.774  12.934  22.364  0.00  0.00    +0.000 NA
ATOM     25  C   UNL     1      -0.026  13.521  21.377  0.00  0.00    +0.000 A 
ATOM     26  C   UNL     1       0.732  12.584  20.709  0.00  0.00    +0.000 A 
ATOM     27  N   UNL     1       0.433  11.382  21.291  0.00  0.00    +0.000 N 
ATOM     28  N   UNL     1       0.935  10.164  20.920  0.00  0.00    +0.000 NA
ENDBRANCH  19  20
ENDBRANCH   5  18
TORSDOF 4
ENDMDL
MODEL 2
REMARK VINA RESULT:      -8.2      0.502      1.048
REMARK  Name = 
REMARK  5 active torsions:
REMARK  status: ('A' for Active; 'I' for Inactive)
REMARK    1  A    between atoms: C_1  and  C_2
REMARK    2  A    between atoms: C_5  and  C_6
REMARK    3  A    between atoms: N_8  and  C_9
REMARK    4  A    between atoms: C_13  and  C_14
REMARK    5  A    between atoms: C_15  and  C_16
REMARK                            x       y       z     vdW  Elec       q    Type
REMARK                         _______ _______ _______ _____ _____    ______ ____
ROOT
ATOM      1  C   UNL     1       3.238   4.809  18.635  0.00  0.00    +0.000 A 
ATOM      2  C   UNL     1       3.033   3.688  19.444  0.00  0.00    +0.000 A 
ATOM      3  C   UNL     1       2.329   3.786  20.646  0.00  0.00    +0.000 A 
ATOM      4  C   UNL     1       1.823   5.015  21.064  0.00  0.00    +0.000 A 
ATOM      5  C   UNL     1       2.034   6.161  20.291  0.00  0.00    +0.000 A 
ATOM      6  C   UNL     1       2.755   6.056  19.082  0.00  0.00    +0.000 A 
ENDROOT
BRANCH   1   9
ATOM      7  C   UNL     1       5.276   4.513  17.214  0.00  0.00    +0.000 C 
ATOM      8  O   UNL     1       6.088   4.327  18.117  0.00  0.00    +0.000 OA
ATOM      9  N   UNL     1       3.910   4.730  17.379  0.00  0.00    +0.000 N 
ATOM     10  H   UNL     1       3.325   4.676  16.555  0.00  0.00    +0.000 HD
BRANCH   7  15
ATOM     11  C   UNL     1       7.403   4.436  11.802  0.00  0.00    +0.000 C 
ATOM     12  C   UNL     1       6.845   4.439  13.197  0.00  0.00    +0.000 A 
ATOM     13  C   UNL     1       7.445   5.206  14.199  0.00  0.00    +0.000 A 
ATOM     14  C   UNL     1       6.922   5.201  15.495  0.00  0.00    +0.000 A 
ATOM     15  C   UNL     1       5.800   4.421  15.818  0.00  0.00    +0.000 A 
ATOM     16  C   UNL     1       5.187   3.664  14.817  0.00  0.00    +0.000 A 
ATOM     17  C   UNL     1       5.710   3.677  13.513  0.00  0.00    +0.000 A 
ENDBRANCH   7  15
ENDBRANCH   1   9
BRANCH   5  18
ATOM     18  C   UNL     1       1.480   7.420  20.732  0.00  0.00    +0.000 C 
ATOM     19  C   UNL     1       1.009   8.446  21.157  0.00  0.00    +0.000 C 
BRANCH  19  20
ATOM     20  C   UNL     1       0.406   9.646  21.708  0.00  0.00    +0.000 A 
ATOM     21  C   UNL     1      -0.626   9.583  22.776  0.00  0.00    +0.000 A 
ATOM     22  C   UNL     1      -1.154  10.743  23.187  0.00  0.00    +0.000 A 
ATOM     23  C   UNL     1      -0.704  11.950  22.605  0.00  0.00    +0.000 A 
ATOM     24  N   UNL     1      -1.065  13.199  22.813  0.00  0.00    +0.000 NA
ATOM     25  C   UNL     1      -0.283  13.942  21.968  0.00  0.00    +0.000 A 
ATOM     26  C   UNL     1       0.564  13.135  21.241  0.00  0.00    +0.000 A 
ATOM     27  N   UNL     1       0.288  11.855  21.640  0.00  0.00    +0.000 N 
ATOM     28  N   UNL     1       0.875  10.718  21.151  0.00  0.00    +0.000 NA
ENDBRANCH  19  20
ENDBRANCH   5  18
TORSDOF 4
ENDMDL
MODEL 3
REMARK VINA RESULT:      -8.1      7.254     11.955
REMARK  Name = 
REMARK  5 active torsions:
REMARK  status: ('A' for Active; 'I' for Inactive)
REMARK    1  A    between atoms: C_1  and  C_2
REMARK    2  A    between atoms: C_5  and  C_6
REMARK    3  A    between atoms: N_8  and  C_9
REMARK    4  A    between atoms: C_13  and  C_14
REMARK    5  A    between atoms: C_15  and  C_16
REMARK                            x       y       z     vdW  Elec       q    Type
REMARK                         _______ _______ _______ _____ _____    ______ ____
ROOT
ATOM      1  C   UNL     1       9.795  12.407  20.507  0.00  0.00    +0.000 A 
ATOM      2  C   UNL     1      10.368  13.154  19.474  0.00  0.00    +0.000 A 
ATOM      3  C   UNL     1      10.415  12.661  18.169  0.00  0.00    +0.000 A 
ATOM      4  C   UNL     1       9.893  11.402  17.876  0.00  0.00    +0.000 A 
ATOM      5  C   UNL     1       9.337  10.619  18.892  0.00  0.00    +0.000 A 
ATOM      6  C   UNL     1       9.301  11.120  20.211  0.00  0.00    +0.000 A 
ENDROOT
BRANCH   1   9
ATOM      7  C   UNL     1       8.559  13.524  22.374  0.00  0.00    +0.000 C 
ATOM      8  O   UNL     1       7.491  13.697  21.791  0.00  0.00    +0.000 OA
ATOM      9  N   UNL     1       9.687  12.906  21.839  0.00  0.00    +0.000 N 
ATOM     10  H   UNL     1      10.429  12.653  22.479  0.00  0.00    +0.000 HD
BRANCH   7  15
ATOM     11  C   UNL     1       9.004  15.351  27.877  0.00  0.00    +0.000 C 
ATOM     12  C   UNL     1       8.877  14.867  26.461  0.00  0.00    +0.000 A 
ATOM     13  C   UNL     1       9.205  15.703  25.392  0.00  0.00    +0.000 A 
ATOM     14  C   UNL     1       9.080  15.246  24.078  0.00  0.00    +0.000 A 
ATOM     15  C   UNL     1       8.613  13.950  23.805  0.00  0.00    +0.000 A 
ATOM     16  C   UNL     1       8.297  13.103  24.870  0.00  0.00    +0.000 A 
ATOM     17  C   UNL     1       8.430  13.563  26.191  0.00  0.00    +0.000 A 
ENDBRANCH   7  15
ENDBRANCH   1   9
BRANCH   5  18
ATOM     18  C   UNL     1       8.780   9.328  18.560  0.00  0.00    +0.000 C 
ATOM     19  C   UNL     1       8.276   8.278  18.244  0.00  0.00    +0.000 C 
BRANCH  19  20
ATOM     20  C   UNL     1       7.614   7.047  17.853  0.00  0.00    +0.000 A 
ATOM     21  C   UNL     1       7.754   5.798  18.648  0.00  0.00    +0.000 A 
ATOM     22  C   UNL     1       7.141   4.703  18.180  0.00  0.00    +0.000 A 
ATOM     23  C   UNL     1       6.395   4.789  16.983  0.00  0.00    +0.000 A 
ATOM     24  N   UNL     1       5.726   3.874  16.313  0.00  0.00    +0.000 NA
ATOM     25  C   UNL     1       5.200   4.535  15.234  0.00  0.00    +0.000 A 
ATOM     26  C   UNL     1       5.553   5.867  15.251  0.00  0.00    +0.000 A 
ATOM     27  N   UNL     1       6.330   6.029  16.366  0.00  0.00    +0.000 N 
ATOM     28  N   UNL     1       6.930   7.194  16.762  0.00  0.00    +0.000 NA
ENDBRANCH  19  20
ENDBRANCH   5  18
TORSDOF 4
ENDMDL
MODEL 4
REMARK VINA RESULT:      -8.0      3.439     10.140
REMARK  Name = 
REMARK  5 active torsions:
REMARK  status: ('A' for Active; 'I' for Inactive)
REMARK    1  A    between atoms: C_1  and  C_2
REMARK    2  A    between atoms: C_5  and  C_6
REMARK    3  A    between atoms: N_8  and  C_9
REMARK    4  A    between atoms: C_13  and  C_14
REMARK    5  A    between atoms: C_15  and  C_16
REMARK                            x       y       z     vdW  Elec       q    Type
REMARK                         _______ _______ _______ _____ _____    ______ ____
ROOT
ATOM      1  C   UNL     1      -0.092  11.823  21.191  0.00  0.00    +0.000 A 
ATOM      2  C   UNL     1      -0.746  11.717  22.423  0.00  0.00    +0.000 A 
ATOM      3  C   UNL     1      -0.776  10.508  23.120  0.00  0.00    +0.000 A 
ATOM      4  C   UNL     1      -0.158   9.377  22.590  0.00  0.00    +0.000 A 
ATOM      5  C   UNL     1       0.481   9.443  21.349  0.00  0.00    +0.000 A 
ATOM      6  C   UNL     1       0.501  10.666  20.645  0.00  0.00    +0.000 A 
ENDROOT
BRANCH   1   9
ATOM      7  C   UNL     1       0.983  14.023  20.678  0.00  0.00    +0.000 C 
ATOM      8  O   UNL     1       1.925  13.938  21.462  0.00  0.00    +0.000 OA
ATOM      9  N   UNL     1      -0.001  13.056  20.480  0.00  0.00    +0.000 N 
ATOM     10  H   UNL     1      -0.604  13.161  19.675  0.00  0.00    +0.000 HD
BRANCH   7  15
ATOM     11  C   UNL     1       0.618  18.631  17.149  0.00  0.00    +0.000 C 
ATOM     12  C   UNL     1       0.728  17.448  18.068  0.00  0.00    +0.000 A 
ATOM     13  C   UNL     1      -0.397  16.678  18.372  0.00  0.00    +0.000 A 
ATOM     14  C   UNL     1      -0.287  15.581  19.230  0.00  0.00    +0.000 A 
ATOM     15  C   UNL     1       0.944  15.240  19.812  0.00  0.00    +0.000 A 
ATOM     16  C   UNL     1       2.076  15.997  19.501  0.00  0.00    +0.000 A 
ATOM     17  C   UNL     1       1.964  17.095  18.632  0.00  0.00    +0.000 A 
ENDBRANCH   7  15
ENDBRANCH   1   9
BRANCH   5  18
ATOM     18  C   UNL     1       1.137   8.265  20.831  0.00  0.00    +0.000 C 
ATOM     19  C   UNL     1       1.728   7.317  20.374  0.00  0.00    +0.000 C 
BRANCH  19  20
ATOM     20  C   UNL     1       2.460   6.215  19.776  0.00  0.00    +0.000 A 
ATOM     21  C   UNL     1       3.139   6.350  18.460  0.00  0.00    +0.000 A 
ATOM     22  C   UNL     1       3.750   5.262  17.973  0.00  0.00    +0.000 A 
ATOM     23  C   UNL     1       3.729   4.065  18.723  0.00  0.00    +0.000 A 
ATOM     24  N   UNL     1       4.227   2.874  18.466  0.00  0.00    +0.000 NA
ATOM     25  C   UNL     1       3.905   2.109  19.557  0.00  0.00    +0.000 A 
ATOM     26  C   UNL     1       3.205   2.846  20.486  0.00  0.00    +0.000 A 
ATOM     27  N   UNL     1       3.080   4.098  19.949  0.00  0.00    +0.000 N 
ATOM     28  N   UNL     1       2.423   5.155  20.520  0.00  0.00    +0.000 NA
ENDBRANCH  19  20
ENDBRANCH   5  18
TORSDOF 4
ENDMDL
MODEL 5
REMARK VINA RESULT:      -8.0      3.537     11.308
REMARK  Name = 
REMARK  5 active torsions:
REMARK  status: ('A' for Active; 'I' for Inactive)
REMARK    1  A    between atoms: C_1  and  C_2
REMARK    2  A    between atoms: C_5  and  C_6
REMARK    3  A    between atoms: N_8  and  C_9
REMARK    4  A    between atoms: C_13  and  C_14
REMARK    5  A    between atoms: C_15  and  C_16
REMARK                            x       y       z     vdW  Elec       q    Type
REMARK                         _______ _______ _______ _____ _____    ______ ____
ROOT
ATOM      1  C   UNL     1      -0.272  11.842  19.741  0.00  0.00    +0.000 A 
ATOM      2  C   UNL     1       0.446  12.925  19.223  0.00  0.00    +0.000 A 
ATOM      3  C   UNL     1       1.594  12.727  18.455  0.00  0.00    +0.000 A 
ATOM      4  C   UNL     1       2.052  11.436  18.198  0.00  0.00    +0.000 A 
ATOM      5  C   UNL     1       1.373  10.333  18.723  0.00  0.00    +0.000 A 
ATOM      6  C   UNL     1       0.217  10.541  19.506  0.00  0.00    +0.000 A 
ENDROOT
BRANCH   1   9
ATOM      7  C   UNL     1      -1.544  12.214  21.862  0.00  0.00    +0.000 C 
ATOM      8  O   UNL     1      -0.584  12.308  22.622  0.00  0.00    +0.000 OA
ATOM      9  N   UNL     1      -1.476  12.012  20.485  0.00  0.00    +0.000 N 
ATOM     10  H   UNL     1      -2.325  12.147  19.950  0.00  0.00    +0.000 HD
BRANCH   7  15
ATOM     11  C   UNL     1      -6.856  13.192  24.019  0.00  0.00    +0.000 C 
ATOM     12  C   UNL     1      -5.480  12.929  23.477  0.00  0.00    +0.000 A 
ATOM     13  C   UNL     1      -5.219  13.056  22.110  0.00  0.00    +0.000 A 
ATOM     14  C   UNL     1      -3.938  12.806  21.614  0.00  0.00    +0.000 A 
ATOM     15  C   UNL     1      -2.895  12.412  22.468  0.00  0.00    +0.000 A 
ATOM     16  C   UNL     1      -3.146  12.298  23.838  0.00  0.00    +0.000 A 
ATOM     17  C   UNL     1      -4.434  12.556  24.336  0.00  0.00    +0.000 A 
ENDBRANCH   7  15
ENDBRANCH   1   9
BRANCH   5  18
ATOM     18  C   UNL     1       1.851   9.003  18.423  0.00  0.00    +0.000 C 
ATOM     19  C   UNL     1       2.299   7.903  18.211  0.00  0.00    +0.000 C 
BRANCH  19  20
ATOM     20  C   UNL     1       2.896   6.603  17.966  0.00  0.00    +0.000 A 
ATOM     21  C   UNL     1       4.259   6.466  17.387  0.00  0.00    +0.000 A 
ATOM     22  C   UNL     1       4.704   5.223  17.156  0.00  0.00    +0.000 A 
ATOM     23  C   UNL     1       3.876   4.124  17.478  0.00  0.00    +0.000 A 
ATOM     24  N   UNL     1       4.065   2.829  17.337  0.00  0.00    +0.000 NA
ATOM     25  C   UNL     1       2.925   2.247  17.828  0.00  0.00    +0.000 A 
ATOM     26  C   UNL     1       2.037   3.200  18.275  0.00  0.00    +0.000 A 
ATOM     27  N   UNL     1       2.640   4.406  18.041  0.00  0.00    +0.000 N 
ATOM     28  N   UNL     1       2.100   5.637  18.301  0.00  0.00    +0.000 NA
ENDBRANCH  19  20
ENDBRANCH   5  18
TORSDOF 4
ENDMDL
MODEL 6
REMARK VINA RESULT:      -7.9      4.234     10.916
REMARK  Name = 
REMARK  5 active torsions:
REMARK  status: ('A' for Active; 'I' for Inactive)
REMARK    1  A    between atoms: C_1  and  C_2
REMARK    2  A    between atoms: C_5  and  C_6
REMARK    3  A    between atoms: N_8  and  C_9
REMARK    4  A    between atoms: C_13  and  C_14
REMARK    5  A    between atoms: C_15  and  C_16
REMARK                            x       y       z     vdW  Elec       q    Type
REMARK                         _______ _______ _______ _____ _____    ______ ____
ROOT
ATOM      1  C   UNL     1      -0.252  11.534  18.888  0.00  0.00    +0.000 A 
ATOM      2  C   UNL     1       0.592  12.621  18.636  0.00  0.00    +0.000 A 
ATOM      3  C   UNL     1       1.909  12.427  18.216  0.00  0.00    +0.000 A 
ATOM      4  C   UNL     1       2.409  11.137  18.047  0.00  0.00    +0.000 A 
ATOM      5  C   UNL     1       1.599  10.030  18.317  0.00  0.00    +0.000 A 
ATOM      6  C   UNL     1       0.271  10.232  18.750  0.00  0.00    +0.000 A 
ENDROOT
BRANCH   1   9
ATOM      7  C   UNL     1      -2.698  11.707  18.391  0.00  0.00    +0.000 C 
ATOM      8  O   UNL     1      -2.637  11.537  17.176  0.00  0.00    +0.000 OA
ATOM      9  N   UNL     1      -1.616  11.702  19.269  0.00  0.00    +0.000 N 
ATOM     10  H   UNL     1      -1.818  11.659  20.260  0.00  0.00    +0.000 HD
BRANCH   7  15
ATOM     11  C   UNL     1      -7.896  12.294  20.931  0.00  0.00    +0.000 C 
ATOM     12  C   UNL     1      -6.561  12.139  20.259  0.00  0.00    +0.000 A 
ATOM     13  C   UNL     1      -5.419  12.732  20.803  0.00  0.00    +0.000 A 
ATOM     14  C   UNL     1      -4.183  12.586  20.169  0.00  0.00    +0.000 A 
ATOM     15  C   UNL     1      -4.065  11.857  18.975  0.00  0.00    +0.000 A 
ATOM     16  C   UNL     1      -5.200  11.249  18.434  0.00  0.00    +0.000 A 
ATOM     17  C   UNL     1      -6.441  11.392  19.077  0.00  0.00    +0.000 A 
ENDBRANCH   7  15
ENDBRANCH   1   9
BRANCH   5  18
ATOM     18  C   UNL     1       2.131   8.702  18.111  0.00  0.00    +0.000 C 
ATOM     19  C   UNL     1       2.538   7.573  17.986  0.00  0.00    +0.000 C 
BRANCH  19  20
ATOM     20  C   UNL     1       3.016   6.206  17.897  0.00  0.00    +0.000 A 
ATOM     21  C   UNL     1       4.242   5.854  17.132  0.00  0.00    +0.000 A 
ATOM     22  C   UNL     1       4.576   4.558  17.074  0.00  0.00    +0.000 A 
ATOM     23  C   UNL     1       3.769   3.607  17.738  0.00  0.00    +0.000 A 
ATOM     24  N   UNL     1       3.865   2.297  17.820  0.00  0.00    +0.000 NA
ATOM     25  C   UNL     1       2.808   1.909  18.601  0.00  0.00    +0.000 A 
ATOM     26  C   UNL     1       2.064   2.998  19.000  0.00  0.00    +0.000 A 
ATOM     27  N   UNL     1       2.672   4.087  18.438  0.00  0.00    +0.000 N 
ATOM     28  N   UNL     1       2.249   5.385  18.544  0.00  0.00    +0.000 NA
ENDBRANCH  19  20
ENDBRANCH   5  18
TORSDOF 4
ENDMDL
MODEL 7
REMARK VINA RESULT:      -7.8      3.492     11.300
REMARK  Name = 
REMARK  5 active torsions:
REMARK  status: ('A' for Active; 'I' for Inactive)
REMARK    1  A    between atoms: C_1  and  C_2
REMARK    2  A    between atoms: C_5  and  C_6
REMARK    3  A    between atoms: N_8  and  C_9
REMARK    4  A    between atoms: C_13  and  C_14
REMARK    5  A    between atoms: C_15  and  C_16
REMARK                            x       y       z     vdW  Elec       q    Type
REMARK                         _______ _______ _______ _____ _____    ______ ____
ROOT
ATOM      1  C   UNL     1      -0.193  12.128  19.721  0.00  0.00    +0.000 A 
ATOM      2  C   UNL     1       0.537  13.218  19.236  0.00  0.00    +0.000 A 
ATOM      3  C   UNL     1       1.691  13.029  18.474  0.00  0.00    +0.000 A 
ATOM      4  C   UNL     1       2.141  11.741  18.189  0.00  0.00    +0.000 A 
ATOM      5  C   UNL     1       1.448  10.631  18.681  0.00  0.00    +0.000 A 
ATOM      6  C   UNL     1       0.287  10.828  19.458  0.00  0.00    +0.000 A 
ENDROOT
BRANCH   1   9
ATOM      7  C   UNL     1      -1.520  12.168  21.842  0.00  0.00    +0.000 C 
ATOM      8  O   UNL     1      -0.599  11.939  22.622  0.00  0.00    +0.000 OA
ATOM      9  N   UNL     1      -1.403  12.290  20.459  0.00  0.00    +0.000 N 
ATOM     10  H   UNL     1      -2.195  12.668  19.955  0.00  0.00    +0.000 HD
BRANCH   7  15
ATOM     11  C   UNL     1      -6.805  13.300  23.987  0.00  0.00    +0.000 C 
ATOM     12  C   UNL     1      -5.436  12.999  23.448  0.00  0.00    +0.000 A 
ATOM     13  C   UNL     1      -5.195  13.012  22.072  0.00  0.00    +0.000 A 
ATOM     14  C   UNL     1      -3.919  12.726  21.580  0.00  0.00    +0.000 A 
ATOM     15  C   UNL     1      -2.863  12.410  22.449  0.00  0.00    +0.000 A 
ATOM     16  C   UNL     1      -3.093  12.410  23.827  0.00  0.00    +0.000 A 
ATOM     17  C   UNL     1      -4.376  12.704  24.320  0.00  0.00    +0.000 A 
ENDBRANCH   7  15
ENDBRANCH   1   9
BRANCH   5  18
ATOM     18  C   UNL     1       1.918   9.305  18.352  0.00  0.00    +0.000 C 
ATOM     19  C   UNL     1       2.369   8.218  18.087  0.00  0.00    +0.000 C 
BRANCH  19  20
ATOM     20  C   UNL     1       2.965   6.939  17.745  0.00  0.00    +0.000 A 
ATOM     21  C   UNL     1       2.284   5.652  18.050  0.00  0.00    +0.000 A 
ATOM     22  C   UNL     1       2.937   4.526  17.735  0.00  0.00    +0.000 A 
ATOM     23  C   UNL     1       4.210   4.612  17.130  0.00  0.00    +0.000 A 
ATOM     24  N   UNL     1       5.051   3.675  16.746  0.00  0.00    +0.000 NA
ATOM     25  C   UNL     1       6.122   4.349  16.220  0.00  0.00    +0.000 A 
ATOM     26  C   UNL     1       5.927   5.712  16.285  0.00  0.00    +0.000 A 
ATOM     27  N   UNL     1       4.706   5.883  16.878  0.00  0.00    +0.000 N 
ATOM     28  N   UNL     1       4.120   7.084  17.174  0.00  0.00    +0.000 NA
ENDBRANCH  19  20
ENDBRANCH   5  18
TORSDOF 4
ENDMDL
MODEL 8
REMARK VINA RESULT:      -7.7      3.109     10.007
REMARK  Name = 
REMARK  5 active torsions:
REMARK  status: ('A' for Active; 'I' for Inactive)
REMARK    1  A    between atoms: C_1  and  C_2
REMARK    2  A    between atoms: C_5  and  C_6
REMARK    3  A    between atoms: N_8  and  C_9
REMARK    4  A    between atoms: C_13  and  C_14
REMARK    5  A    between atoms: C_15  and  C_16
REMARK                            x       y       z     vdW  Elec       q    Type
REMARK                         _______ _______ _______ _____ _____    ______ ____
ROOT
ATOM      1  C   UNL     1       0.415  11.236  20.545  0.00  0.00    +0.000 A 
ATOM      2  C   UNL     1      -0.100  10.923  21.807  0.00  0.00    +0.000 A 
ATOM      3  C   UNL     1       0.030   9.639  22.339  0.00  0.00    +0.000 A 
ATOM      4  C   UNL     1       0.675   8.640  21.611  0.00  0.00    +0.000 A 
ATOM      5  C   UNL     1       1.177   8.915  20.335  0.00  0.00    +0.000 A 
ATOM      6  C   UNL     1       1.034  10.212  19.799  0.00  0.00    +0.000 A 
ENDROOT
BRANCH   1   9
ATOM      7  C   UNL     1       1.389  13.469  19.976  0.00  0.00    +0.000 C 
ATOM      8  O   UNL     1       2.528  13.269  20.391  0.00  0.00    +0.000 OA
ATOM      9  N   UNL     1       0.341  12.552  19.998  0.00  0.00    +0.000 N 
ATOM     10  H   UNL     1      -0.484  12.771  19.454  0.00  0.00    +0.000 HD
BRANCH   7  15
ATOM     11  C   UNL     1       0.183  18.496  17.312  0.00  0.00    +0.000 C 
ATOM     12  C   UNL     1       0.511  17.205  18.005  0.00  0.00    +0.000 A 
ATOM     13  C   UNL     1      -0.507  16.348  18.429  0.00  0.00    +0.000 A 
ATOM     14  C   UNL     1      -0.194  15.150  19.076  0.00  0.00    +0.000 A 
ATOM     15  C   UNL     1       1.141  14.791  19.325  0.00  0.00    +0.000 A 
ATOM     16  C   UNL     1       2.165  15.636  18.890  0.00  0.00    +0.000 A 
ATOM     17  C   UNL     1       1.847  16.837  18.233  0.00  0.00    +0.000 A 
ENDBRANCH   7  15
ENDBRANCH   1   9
BRANCH   5  18
ATOM     18  C   UNL     1       1.863   7.871  19.609  0.00  0.00    +0.000 C 
ATOM     19  C   UNL     1       2.465   7.043  18.970  0.00  0.00    +0.000 C 
BRANCH  19  20
ATOM     20  C   UNL     1       3.191   6.089  18.152  0.00  0.00    +0.000 A 
ATOM     21  C   UNL     1       2.670   4.719  17.900  0.00  0.00    +0.000 A 
ATOM     22  C   UNL     1       3.436   3.898  17.170  0.00  0.00    +0.000 A 
ATOM     23  C   UNL     1       4.672   4.368  16.673  0.00  0.00    +0.000 A 
ATOM     24  N   UNL     1       5.602   3.769  15.958  0.00  0.00    +0.000 NA
ATOM     25  C   UNL     1       6.573   4.717  15.769  0.00  0.00    +0.000 A 
ATOM     26  C   UNL     1       6.227   5.905  16.373  0.00  0.00    +0.000 A 
ATOM     27  N   UNL     1       5.013   5.681  16.964  0.00  0.00    +0.000 N 
ATOM     28  N   UNL     1       4.304   6.585  17.709  0.00  0.00    +0.000 NA
ENDBRANCH  19  20
ENDBRANCH   5  18
TORSDOF 4
ENDMDL
MODEL 9
REMARK VINA RESULT:      -7.7      6.847     11.530
REMARK  Name = 
REMARK  5 active torsions:
REMARK  status: ('A' for Active; 'I' for Inactive)
REMARK    1  A    between atoms: C_1  and  C_2
REMARK    2  A    between atoms: C_5  and  C_6
REMARK    3  A    between atoms: N_8  and  C_9
REMARK    4  A    between atoms: C_13  and  C_14
REMARK    5  A    between atoms: C_15  and  C_16
REMARK                            x       y       z     vdW  Elec       q    Type
REMARK                         _______ _______ _______ _____ _____    ______ ____
ROOT
ATOM      1  C   UNL     1       9.654  11.645  20.500  0.00  0.00    +0.000 A 
ATOM      2  C   UNL     1      10.408  12.366  19.569  0.00  0.00    +0.000 A 
ATOM      3  C   UNL     1      10.516  11.939  18.244  0.00  0.00    +0.000 A 
ATOM      4  C   UNL     1       9.876  10.773  17.829  0.00  0.00    +0.000 A 
ATOM      5  C   UNL     1       9.137  10.014  18.742  0.00  0.00    +0.000 A 
ATOM      6  C   UNL     1       9.038  10.447  20.081  0.00  0.00    +0.000 A 
ENDROOT
BRANCH   1   9
ATOM      7  C   UNL     1       8.535  13.013  22.271  0.00  0.00    +0.000 C 
ATOM      8  O   UNL     1       7.695  13.558  21.559  0.00  0.00    +0.000 OA
ATOM      9  N   UNL     1       9.483  12.084  21.846  0.00  0.00    +0.000 N 
ATOM     10  H   UNL     1       9.984  11.569  22.558  0.00  0.00    +0.000 HD
BRANCH   7  15
ATOM     11  C   UNL     1       8.526  14.417  27.914  0.00  0.00    +0.000 C 
ATOM     12  C   UNL     1       8.516  14.041  26.460  0.00  0.00    +0.000 A 
ATOM     13  C   UNL     1       8.844  14.981  25.481  0.00  0.00    +0.000 A 
ATOM     14  C   UNL     1       8.830  14.624  24.131  0.00  0.00    +0.000 A 
ATOM     15  C   UNL     1       8.475  13.325  23.731  0.00  0.00    +0.000 A 
ATOM     16  C   UNL     1       8.161  12.375  24.706  0.00  0.00    +0.000 A 
ATOM     17  C   UNL     1       8.183  12.736  26.064  0.00  0.00    +0.000 A 
ENDBRANCH   7  15
ENDBRANCH   1   9
BRANCH   5  18
ATOM     18  C   UNL     1       8.462   8.822  18.283  0.00  0.00    +0.000 C 
ATOM     19  C   UNL     1       7.847   7.847  17.929  0.00  0.00    +0.000 C 
BRANCH  19  20
ATOM     20  C   UNL     1       7.071   6.678  17.556  0.00  0.00    +0.000 A 
ATOM     21  C   UNL     1       7.036   6.175  16.157  0.00  0.00    +0.000 A 
ATOM     22  C   UNL     1       6.255   5.117  15.907  0.00  0.00    +0.000 A 
ATOM     23  C   UNL     1       5.525   4.532  16.966  0.00  0.00    +0.000 A 
ATOM     24  N   UNL     1       4.687   3.516  16.982  0.00  0.00    +0.000 NA
ATOM     25  C   UNL     1       4.292   3.401  18.289  0.00  0.00    +0.000 A 
ATOM     26  C   UNL     1       4.897   4.357  19.074  0.00  0.00    +0.000 A 
ATOM     27  N   UNL     1       5.680   5.092  18.225  0.00  0.00    +0.000 N 
ATOM     28  N   UNL     1       6.443   6.175  18.572  0.00  0.00    +0.000 NA
ENDBRANCH  19  20
ENDBRANCH   5  18
TORSDOF 4
ENDMDL
