MODEL 1
REMARK VINA RESULT:      -8.0      0.000      0.000
REMARK  Name = 
REMARK  4 active torsions:
REMARK  status: ('A' for Active; 'I' for Inactive)
REMARK    1  A    between atoms: N_3  and  C_4
REMARK    2  A    between atoms: C_4  and  C_5
REMARK    3  A    between atoms: C_5  and  C_7
REMARK    4  A    between atoms: N_14  and  C_15
REMARK                            x       y       z     vdW  Elec       q    Type
REMARK                         _______ _______ _______ _____ _____    ______ ____
ROOT
ATOM      1  O   UNL     1       7.559   9.214  17.604  0.00  0.00    +0.000 OA
ATOM      2  C   UNL     1       8.259   8.622  18.418  0.00  0.00    +0.000 C 
ATOM      3  N   UNL     1       8.175   7.262  18.583  0.00  0.00    +0.000 N 
ATOM      4  N   UNL     1       9.227   9.171  19.229  0.00  0.00    +0.000 N 
ATOM      5  H   UNL     1       8.487   6.850  19.453  0.00  0.00    +0.000 HD
ATOM      6  H   UNL     1       9.883   8.509  19.617  0.00  0.00    +0.000 HD
ENDROOT
BRANCH   4   7
ATOM      7  C   UNL     1       9.562  10.539  19.320  0.00  0.00    +0.000 A 
ATOM      8  C   UNL     1       9.281  11.313  20.447  0.00  0.00    +0.000 A 
ATOM      9  C   UNL     1       9.579  12.683  20.482  0.00  0.00    +0.000 A 
ATOM     10  C   UNL     1      10.168  13.295  19.361  0.00  0.00    +0.000 A 
ATOM     11  N   UNL     1      10.491  14.641  19.225  0.00  0.00    +0.000 NA
ATOM     12  N   UNL     1      11.028  14.902  18.047  0.00  0.00    +0.000 NA
ATOM     13  S   UNL     1      11.173  13.547  17.081  0.00  0.00    +0.000 S 
ATOM     14  C   UNL     1      10.472  12.499  18.254  0.00  0.00    +0.000 A 
ATOM     15  C   UNL     1      10.201  11.120  18.215  0.00  0.00    +0.000 A 
ENDBRANCH   4   7
BRANCH   3  16
ATOM     16  C   UNL     1       7.186   6.505  17.837  0.00  0.00    +0.000 C 
BRANCH  16  17
ATOM     17  C   UNL     1       6.431   5.581  18.780  0.00  0.00    +0.000 C 
ATOM     18  O   UNL     1       6.946   5.151  19.815  0.00  0.00    +0.000 OA
BRANCH  17  19
ATOM     19  C   UNL     1       5.022   5.214  18.448  0.00  0.00    +0.000 A 
ATOM     20  C   UNL     1       4.627   3.890  18.200  0.00  0.00    +0.000 A 
ATOM     21  C   UNL     1       3.298   3.608  17.868  0.00  0.00    +0.000 A 
ATOM     22  C   UNL     1       2.370   4.640  17.785  0.00  0.00    +0.000 A 
ATOM     23  F   UNL     1       1.102   4.363  17.461  0.00  0.00    +0.000 F 
ATOM     24  C   UNL     1       2.743   5.955  18.032  0.00  0.00    +0.000 A 
ATOM     25  C   UNL     1       4.069   6.243  18.363  0.00  0.00    +0.000 A 
ENDBRANCH  17  19
ENDBRANCH  16  17
ENDBRANCH   3  16
TORSDOF 4
ENDMDL
MODEL 2
REMARK VINA RESULT:      -8.0      1.591      2.000
REMARK  Name = 
REMARK  4 active torsions:
REMARK  status: ('A' for Active; 'I' for Inactive)
REMARK    1  A    between atoms: N_3  and  C_4
REMARK    2  A    between atoms: C_4  and  C_5
REMARK    3  A    between atoms: C_5  and  C_7
REMARK    4  A    between atoms: N_14  and  C_15
REMARK                            x       y       z     vdW  Elec       q    Type
REMARK                         _______ _______ _______ _____ _____    ______ ____
ROOT
ATOM      1  O   UNL     1       8.549   7.725  18.842  0.00  0.00    +0.000 OA
ATOM      2  C   UNL     1       8.055   8.394  17.941  0.00  0.00    +0.000 C 
ATOM      3  N   UNL     1       7.145   7.858  17.065  0.00  0.00    +0.000 N 
ATOM      4  N   UNL     1       8.272   9.730  17.691  0.00  0.00    +0.000 N 
ATOM      5  H   UNL     1       7.014   8.295  16.161  0.00  0.00    +0.000 HD
ATOM      6  H   UNL     1       7.581  10.171  17.102  0.00  0.00    +0.000 HD
ENDROOT
BRANCH   4   7
ATOM      7  C   UNL     1       9.155  10.579  18.393  0.00  0.00    +0.000 A 
ATOM      8  C   UNL     1       9.225  10.611  19.787  0.00  0.00    +0.000 A 
ATOM      9  C   UNL     1      10.074  11.507  20.452  0.00  0.00    +0.000 A 
ATOM     10  C   UNL     1      10.870  12.394  19.707  0.00  0.00    +0.000 A 
ATOM     11  N   UNL     1      11.733  13.360  20.214  0.00  0.00    +0.000 NA
ATOM     12  N   UNL     1      12.333  14.038  19.252  0.00  0.00    +0.000 NA
ATOM     13  S   UNL     1      11.894  13.529  17.723  0.00  0.00    +0.000 S 
ATOM     14  C   UNL     1      10.811  12.326  18.313  0.00  0.00    +0.000 A 
ATOM     15  C   UNL     1       9.983  11.417  17.633  0.00  0.00    +0.000 A 
ENDBRANCH   4   7
BRANCH   3  16
ATOM     16  C   UNL     1       6.809   6.448  17.147  0.00  0.00    +0.000 C 
BRANCH  16  17
ATOM     17  C   UNL     1       5.561   6.170  16.323  0.00  0.00    +0.000 C 
ATOM     18  O   UNL     1       5.483   6.496  15.137  0.00  0.00    +0.000 OA
BRANCH  17  19
ATOM     19  C   UNL     1       4.418   5.460  16.972  0.00  0.00    +0.000 A 
ATOM     20  C   UNL     1       3.468   6.125  17.763  0.00  0.00    +0.000 A 
ATOM     21  C   UNL     1       2.434   5.404  18.367  0.00  0.00    +0.000 A 
ATOM     22  C   UNL     1       2.346   4.030  18.182  0.00  0.00    +0.000 A 
ATOM     23  F   UNL     1       1.357   3.346  18.768  0.00  0.00    +0.000 F 
ATOM     24  C   UNL     1       3.276   3.356  17.399  0.00  0.00    +0.000 A 
ATOM     25  C   UNL     1       4.312   4.070  16.794  0.00  0.00    +0.000 A 
ENDBRANCH  17  19
ENDBRANCH  16  17
ENDBRANCH   3  16
TORSDOF 4
ENDMDL
MODEL 3
REMARK VINA RESULT:      -8.0      1.116      1.566
REMARK  Name = 
REMARK  4 active torsions:
REMARK  status: ('A' for Active; 'I' for Inactive)
REMARK    1  A    between atoms: N_3  and  C_4
REMARK    2  A    between atoms: C_4  and  C_5
REMARK    3  A    between atoms: C_5  and  C_7
REMARK    4  A    between atoms: N_14  and  C_15
REMARK                            x       y       z     vdW  Elec       q    Type
REMARK                         _______ _______ _______ _____ _____    ______ ____
ROOT
ATOM      1  O   UNL     1       7.682   8.907  17.400  0.00  0.00    +0.000 OA
ATOM      2  C   UNL     1       8.292   8.458  18.364  0.00  0.00    +0.000 C 
ATOM      3  N   UNL     1       8.220   7.130  18.705  0.00  0.00    +0.000 N 
ATOM      4  N   UNL     1       9.143   9.149  19.197  0.00  0.00    +0.000 N 
ATOM      5  H   UNL     1       8.435   6.852  19.655  0.00  0.00    +0.000 HD
ATOM      6  H   UNL     1       9.763   8.572  19.746  0.00  0.00    +0.000 HD
ENDROOT
BRANCH   4   7
ATOM      7  C   UNL     1       9.435  10.528  19.135  0.00  0.00    +0.000 A 
ATOM      8  C   UNL     1       9.820  11.168  17.954  0.00  0.00    +0.000 A 
ATOM      9  C   UNL     1      10.156  12.529  17.941  0.00  0.00    +0.000 A 
ATOM     10  C   UNL     1      10.110  13.269  19.136  0.00  0.00    +0.000 A 
ATOM     11  N   UNL     1      10.444  14.609  19.296  0.00  0.00    +0.000 NA
ATOM     12  N   UNL     1      10.300  15.008  20.547  0.00  0.00    +0.000 NA
ATOM     13  S   UNL     1       9.750  13.797  21.558  0.00  0.00    +0.000 S 
ATOM     14  C   UNL     1       9.692  12.620  20.301  0.00  0.00    +0.000 A 
ATOM     15  C   UNL     1       9.330  11.263  20.324  0.00  0.00    +0.000 A 
ENDBRANCH   4   7
BRANCH   3  16
ATOM     16  C   UNL     1       7.344   6.242  17.963  0.00  0.00    +0.000 C 
BRANCH  16  17
ATOM     17  C   UNL     1       6.489   5.439  18.932  0.00  0.00    +0.000 C 
ATOM     18  O   UNL     1       6.913   5.097  20.038  0.00  0.00    +0.000 OA
BRANCH  17  19
ATOM     19  C   UNL     1       5.094   5.086  18.532  0.00  0.00    +0.000 A 
ATOM     20  C   UNL     1       4.813   4.205  17.477  0.00  0.00    +0.000 A 
ATOM     21  C   UNL     1       3.486   3.931  17.130  0.00  0.00    +0.000 A 
ATOM     22  C   UNL     1       2.448   4.530  17.833  0.00  0.00    +0.000 A 
ATOM     23  F   UNL     1       1.181   4.268  17.491  0.00  0.00    +0.000 F 
ATOM     24  C   UNL     1       2.708   5.402  18.883  0.00  0.00    +0.000 A 
ATOM     25  C   UNL     1       4.031   5.681  19.234  0.00  0.00    +0.000 A 
ENDBRANCH  17  19
ENDBRANCH  16  17
ENDBRANCH   3  16
TORSDOF 4
ENDMDL
MODEL 4
REMARK VINA RESULT:      -8.0      1.082      1.815
REMARK  Name = 
REMARK  4 active torsions:
REMARK  status: ('A' for Active; 'I' for Inactive)
REMARK    1  A    between atoms: N_3  and  C_4
REMARK    2  A    between atoms: C_4  and  C_5
REMARK    3  A    between atoms: C_5  and  C_7
REMARK    4  A    between atoms: N_14  and  C_15
REMARK                            x       y       z     vdW  Elec       q    Type
REMARK                         _______ _______ _______ _____ _____    ______ ____
ROOT
ATOM      1  O   UNL     1       7.638   8.873  17.379  0.00  0.00    +0.000 OA
ATOM      2  C   UNL     1       8.253   8.409  18.332  0.00  0.00    +0.000 C 
ATOM      3  N   UNL     1       8.179   7.077  18.656  0.00  0.00    +0.000 N 
ATOM      4  N   UNL     1       9.112   9.086  19.169  0.00  0.00    +0.000 N 
ATOM      5  H   UNL     1       8.400   6.786  19.601  0.00  0.00    +0.000 HD
ATOM      6  H   UNL     1       9.734   8.500  19.706  0.00  0.00    +0.000 HD
ENDROOT
BRANCH   4   7
ATOM      7  C   UNL     1       9.407  10.466  19.123  0.00  0.00    +0.000 A 
ATOM      8  C   UNL     1       9.803  11.117  17.953  0.00  0.00    +0.000 A 
ATOM      9  C   UNL     1      10.142  12.477  17.957  0.00  0.00    +0.000 A 
ATOM     10  C   UNL     1      10.090  13.204  19.159  0.00  0.00    +0.000 A 
ATOM     11  N   UNL     1      10.425  14.542  19.335  0.00  0.00    +0.000 NA
ATOM     12  N   UNL     1      10.273  14.928  20.589  0.00  0.00    +0.000 NA
ATOM     13  S   UNL     1       9.713  13.708  21.584  0.00  0.00    +0.000 S 
ATOM     14  C   UNL     1       9.661  12.545  20.314  0.00  0.00    +0.000 A 
ATOM     15  C   UNL     1       9.295  11.188  20.320  0.00  0.00    +0.000 A 
ENDBRANCH   4   7
BRANCH   3  16
ATOM     16  C   UNL     1       7.296   6.202  17.908  0.00  0.00    +0.000 C 
BRANCH  16  17
ATOM     17  C   UNL     1       6.396   5.441  18.869  0.00  0.00    +0.000 C 
ATOM     18  O   UNL     1       6.807   5.039  19.959  0.00  0.00    +0.000 OA
BRANCH  17  19
ATOM     19  C   UNL     1       4.972   5.204  18.482  0.00  0.00    +0.000 A 
ATOM     20  C   UNL     1       3.932   6.058  18.880  0.00  0.00    +0.000 A 
ATOM     21  C   UNL     1       2.614   5.773  18.510  0.00  0.00    +0.000 A 
ATOM     22  C   UNL     1       2.337   4.646  17.745  0.00  0.00    +0.000 A 
ATOM     23  F   UNL     1       1.073   4.376  17.400  0.00  0.00    +0.000 F 
ATOM     24  C   UNL     1       3.355   3.793  17.338  0.00  0.00    +0.000 A 
ATOM     25  C   UNL     1       4.673   4.071  17.706  0.00  0.00    +0.000 A 
ENDBRANCH  17  19
ENDBRANCH  16  17
ENDBRANCH   3  16
TORSDOF 4
ENDMDL
MODEL 5
REMARK VINA RESULT:      -7.9      1.639      1.807
REMARK  Name = 
REMARK  4 active torsions:
REMARK  status: ('A' for Active; 'I' for Inactive)
REMARK    1  A    between atoms: N_3  and  C_4
REMARK    2  A    between atoms: C_4  and  C_5
REMARK    3  A    between atoms: C_5  and  C_7
REMARK    4  A    between atoms: N_14  and  C_15
REMARK                            x       y       z     vdW  Elec       q    Type
REMARK                         _______ _______ _______ _____ _____    ______ ____
ROOT
ATOM      1  O   UNL     1       8.469   7.677  18.840  0.00  0.00    +0.000 OA
ATOM      2  C   UNL     1       8.019   8.275  17.870  0.00  0.00    +0.000 C 
ATOM      3  N   UNL     1       7.273   7.634  16.913  0.00  0.00    +0.000 N 
ATOM      4  N   UNL     1       8.133   9.621  17.605  0.00  0.00    +0.000 N 
ATOM      5  H   UNL     1       7.206   8.038  15.987  0.00  0.00    +0.000 HD
ATOM      6  H   UNL     1       7.475   9.979  16.928  0.00  0.00    +0.000 HD
ENDROOT
BRANCH   4   7
ATOM      7  C   UNL     1       8.842  10.567  18.376  0.00  0.00    +0.000 A 
ATOM      8  C   UNL     1       9.421  10.257  19.608  0.00  0.00    +0.000 A 
ATOM      9  C   UNL     1      10.071  11.237  20.373  0.00  0.00    +0.000 A 
ATOM     10  C   UNL     1      10.140  12.558  19.898  0.00  0.00    +0.000 A 
ATOM     11  N   UNL     1      10.714  13.645  20.549  0.00  0.00    +0.000 NA
ATOM     12  N   UNL     1      10.611  14.755  19.840  0.00  0.00    +0.000 NA
ATOM     13  S   UNL     1       9.839  14.525  18.376  0.00  0.00    +0.000 S 
ATOM     14  C   UNL     1       9.583  12.843  18.649  0.00  0.00    +0.000 A 
ATOM     15  C   UNL     1       8.950  11.867  17.861  0.00  0.00    +0.000 A 
ENDBRANCH   4   7
BRANCH   3  16
ATOM     16  C   UNL     1       7.069   6.199  16.999  0.00  0.00    +0.000 C 
BRANCH  16  17
ATOM     17  C   UNL     1       5.885   5.798  16.133  0.00  0.00    +0.000 C 
ATOM     18  O   UNL     1       5.934   5.857  14.902  0.00  0.00    +0.000 OA
BRANCH  17  19
ATOM     19  C   UNL     1       4.647   5.295  16.801  0.00  0.00    +0.000 A 
ATOM     20  C   UNL     1       4.227   3.959  16.701  0.00  0.00    +0.000 A 
ATOM     21  C   UNL     1       3.045   3.550  17.326  0.00  0.00    +0.000 A 
ATOM     22  C   UNL     1       2.289   4.466  18.048  0.00  0.00    +0.000 A 
ATOM     23  F   UNL     1       1.157   4.069  18.639  0.00  0.00    +0.000 F 
ATOM     24  C   UNL     1       2.693   5.791  18.161  0.00  0.00    +0.000 A 
ATOM     25  C   UNL     1       3.871   6.206  17.537  0.00  0.00    +0.000 A 
ENDBRANCH  17  19
ENDBRANCH  16  17
ENDBRANCH   3  16
TORSDOF 4
ENDMDL
MODEL 6
REMARK VINA RESULT:      -7.8      0.814      1.128
REMARK  Name = 
REMARK  4 active torsions:
REMARK  status: ('A' for Active; 'I' for Inactive)
REMARK    1  A    between atoms: N_3  and  C_4
REMARK    2  A    between atoms: C_4  and  C_5
REMARK    3  A    between atoms: C_5  and  C_7
REMARK    4  A    between atoms: N_14  and  C_15
REMARK                            x       y       z     vdW  Elec       q    Type
REMARK                         _______ _______ _______ _____ _____    ______ ____
ROOT
ATOM      1  O   UNL     1       7.956   9.512  17.666  0.00  0.00    +0.000 OA
ATOM      2  C   UNL     1       8.570   8.995  18.592  0.00  0.00    +0.000 C 
ATOM      3  N   UNL     1       8.474   7.651  18.857  0.00  0.00    +0.000 N 
ATOM      4  N   UNL     1       9.448   9.618  19.450  0.00  0.00    +0.000 N 
ATOM      5  H   UNL     1       8.696   7.314  19.786  0.00  0.00    +0.000 HD
ATOM      6  H   UNL     1      10.063   8.997  19.956  0.00  0.00    +0.000 HD
ENDROOT
BRANCH   4   7
ATOM      7  C   UNL     1       9.768  10.992  19.464  0.00  0.00    +0.000 A 
ATOM      8  C   UNL     1       9.449  11.833  20.533  0.00  0.00    +0.000 A 
ATOM      9  C   UNL     1       9.734  13.205  20.489  0.00  0.00    +0.000 A 
ATOM     10  C   UNL     1      10.348  13.752  19.348  0.00  0.00    +0.000 A 
ATOM     11  N   UNL     1      10.662  15.090  19.136  0.00  0.00    +0.000 NA
ATOM     12  N   UNL     1      11.229  15.283  17.958  0.00  0.00    +0.000 NA
ATOM     13  S   UNL     1      11.412  13.871  17.084  0.00  0.00    +0.000 S 
ATOM     14  C   UNL     1      10.689  12.891  18.302  0.00  0.00    +0.000 A 
ATOM     15  C   UNL     1      10.431  11.511  18.342  0.00  0.00    +0.000 A 
ENDBRANCH   4   7
BRANCH   3  16
ATOM     16  C   UNL     1       7.568   6.826  18.078  0.00  0.00    +0.000 C 
BRANCH  16  17
ATOM     17  C   UNL     1       6.947   5.764  18.972  0.00  0.00    +0.000 C 
ATOM     18  O   UNL     1       7.472   5.426  20.036  0.00  0.00    +0.000 OA
BRANCH  17  19
ATOM     19  C   UNL     1       5.656   5.141  18.554  0.00  0.00    +0.000 A 
ATOM     20  C   UNL     1       4.487   5.240  19.324  0.00  0.00    +0.000 A 
ATOM     21  C   UNL     1       3.312   4.614  18.895  0.00  0.00    +0.000 A 
ATOM     22  C   UNL     1       3.304   3.897  17.705  0.00  0.00    +0.000 A 
ATOM     23  F   UNL     1       2.178   3.296  17.304  0.00  0.00    +0.000 F 
ATOM     24  C   UNL     1       4.451   3.793  16.927  0.00  0.00    +0.000 A 
ATOM     25  C   UNL     1       5.627   4.414  17.351  0.00  0.00    +0.000 A 
ENDBRANCH  17  19
ENDBRANCH  16  17
ENDBRANCH   3  16
TORSDOF 4
ENDMDL
MODEL 7
REMARK VINA RESULT:      -7.7      6.178      7.953
REMARK  Name = 
REMARK  4 active torsions:
REMARK  status: ('A' for Active; 'I' for Inactive)
REMARK    1  A    between atoms: N_3  and  C_4
REMARK    2  A    between atoms: C_4  and  C_5
REMARK    3  A    between atoms: C_5  and  C_7
REMARK    4  A    between atoms: N_14  and  C_15
REMARK                            x       y       z     vdW  Elec       q    Type
REMARK                         _______ _______ _______ _____ _____    ______ ____
ROOT
ATOM      1  O   UNL     1       2.078   6.725  18.516  0.00  0.00    +0.000 OA
ATOM      2  C   UNL     1       2.278   6.503  19.705  0.00  0.00    +0.000 C 
ATOM      3  N   UNL     1       2.944   5.378  20.123  0.00  0.00    +0.000 N 
ATOM      4  N   UNL     1       1.936   7.312  20.764  0.00  0.00    +0.000 N 
ATOM      5  H   UNL     1       2.805   5.046  21.070  0.00  0.00    +0.000 HD
ATOM      6  H   UNL     1       2.421   7.112  21.627  0.00  0.00    +0.000 HD
ENDROOT
BRANCH   4   7
ATOM      7  C   UNL     1       1.234   8.535  20.689  0.00  0.00    +0.000 A 
ATOM      8  C   UNL     1       1.265   9.357  19.561  0.00  0.00    +0.000 A 
ATOM      9  C   UNL     1       0.600  10.591  19.542  0.00  0.00    +0.000 A 
ATOM     10  C   UNL     1      -0.110  11.017  20.679  0.00  0.00    +0.000 A 
ATOM     11  N   UNL     1      -0.788  12.221  20.831  0.00  0.00    +0.000 NA
ATOM     12  N   UNL     1      -1.349  12.324  22.022  0.00  0.00    +0.000 NA
ATOM     13  S   UNL     1      -1.093  10.981  22.983  0.00  0.00    +0.000 S 
ATOM     14  C   UNL     1      -0.157  10.167  21.787  0.00  0.00    +0.000 A 
ATOM     15  C   UNL     1       0.485   8.917  21.812  0.00  0.00    +0.000 A 
ENDBRANCH   4   7
BRANCH   3  16
ATOM     16  C   UNL     1       3.358   4.383  19.152  0.00  0.00    +0.000 C 
BRANCH  16  17
ATOM     17  C   UNL     1       4.868   4.205  19.213  0.00  0.00    +0.000 C 
ATOM     18  O   UNL     1       5.381   3.191  19.689  0.00  0.00    +0.000 OA
BRANCH  17  19
ATOM     19  C   UNL     1       5.738   5.283  18.654  0.00  0.00    +0.000 A 
ATOM     20  C   UNL     1       5.358   6.063  17.551  0.00  0.00    +0.000 A 
ATOM     21  C   UNL     1       6.225   7.041  17.054  0.00  0.00    +0.000 A 
ATOM     22  C   UNL     1       7.462   7.241  17.655  0.00  0.00    +0.000 A 
ATOM     23  F   UNL     1       8.289   8.174  17.170  0.00  0.00    +0.000 F 
ATOM     24  C   UNL     1       7.853   6.481  18.750  0.00  0.00    +0.000 A 
ATOM     25  C   UNL     1       6.992   5.501  19.250  0.00  0.00    +0.000 A 
ENDBRANCH  17  19
ENDBRANCH  16  17
ENDBRANCH   3  16
TORSDOF 4
ENDMDL
MODEL 8
REMARK VINA RESULT:      -7.6      1.806      1.996
REMARK  Name = 
REMARK  4 active torsions:
REMARK  status: ('A' for Active; 'I' for Inactive)
REMARK    1  A    between atoms: N_3  and  C_4
REMARK    2  A    between atoms: C_4  and  C_5
REMARK    3  A    between atoms: C_5  and  C_7
REMARK    4  A    between atoms: N_14  and  C_15
REMARK                            x       y       z     vdW  Elec       q    Type
REMARK                         _______ _______ _______ _____ _____    ______ ____
ROOT
ATOM      1  O   UNL     1       8.572   7.736  18.813  0.00  0.00    +0.000 OA
ATOM      2  C   UNL     1       8.067   8.366  17.890  0.00  0.00    +0.000 C 
ATOM      3  N   UNL     1       7.267   7.756  16.957  0.00  0.00    +0.000 N 
ATOM      4  N   UNL     1       8.166   9.721  17.665  0.00  0.00    +0.000 N 
ATOM      5  H   UNL     1       7.146   8.191  16.051  0.00  0.00    +0.000 HD
ATOM      6  H   UNL     1       7.470  10.100  17.040  0.00  0.00    +0.000 HD
ENDROOT
BRANCH   4   7
ATOM      7  C   UNL     1       8.919  10.641  18.424  0.00  0.00    +0.000 A 
ATOM      8  C   UNL     1       9.360  10.370  19.722  0.00  0.00    +0.000 A 
ATOM      9  C   UNL     1      10.058  11.330  20.468  0.00  0.00    +0.000 A 
ATOM     10  C   UNL     1      10.319  12.593  19.907  0.00  0.00    +0.000 A 
ATOM     11  N   UNL     1      10.965  13.658  20.525  0.00  0.00    +0.000 NA
ATOM     12  N   UNL     1      11.049  14.711  19.732  0.00  0.00    +0.000 NA
ATOM     13  S   UNL     1      10.372  14.450  18.227  0.00  0.00    +0.000 S 
ATOM     14  C   UNL     1       9.899  12.835  18.597  0.00  0.00    +0.000 A 
ATOM     15  C   UNL     1       9.219  11.875  17.829  0.00  0.00    +0.000 A 
ENDBRANCH   4   7
BRANCH   3  16
ATOM     16  C   UNL     1       7.067   6.319  17.007  0.00  0.00    +0.000 C 
BRANCH  16  17
ATOM     17  C   UNL     1       5.625   5.990  16.653  0.00  0.00    +0.000 C 
ATOM     18  O   UNL     1       5.309   5.599  15.528  0.00  0.00    +0.000 OA
BRANCH  17  19
ATOM     19  C   UNL     1       4.580   6.122  17.712  0.00  0.00    +0.000 A 
ATOM     20  C   UNL     1       4.510   5.255  18.814  0.00  0.00    +0.000 A 
ATOM     21  C   UNL     1       3.493   5.410  19.761  0.00  0.00    +0.000 A 
ATOM     22  C   UNL     1       2.554   6.424  19.611  0.00  0.00    +0.000 A 
ATOM     23  F   UNL     1       1.581   6.563  20.518  0.00  0.00    +0.000 F 
ATOM     24  C   UNL     1       2.611   7.294  18.529  0.00  0.00    +0.000 A 
ATOM     25  C   UNL     1       3.623   7.143  17.578  0.00  0.00    +0.000 A 
ENDBRANCH  17  19
ENDBRANCH  16  17
ENDBRANCH   3  16
TORSDOF 4
ENDMDL
MODEL 9
REMARK VINA RESULT:      -7.6      6.617      7.486
REMARK  Name = 
REMARK  4 active torsions:
REMARK  status: ('A' for Active; 'I' for Inactive)
REMARK    1  A    between atoms: N_3  and  C_4
REMARK    2  A    between atoms: C_4  and  C_5
REMARK    3  A    between atoms: C_5  and  C_7
REMARK    4  A    between atoms: N_14  and  C_15
REMARK                            x       y       z     vdW  Elec       q    Type
REMARK                         _______ _______ _______ _____ _____    ______ ____
ROOT
ATOM      1  O   UNL     1       1.652   5.245  19.003  0.00  0.00    +0.000 OA
ATOM      2  C   UNL     1       2.254   5.607  20.008  0.00  0.00    +0.000 C 
ATOM      3  N   UNL     1       2.957   4.718  20.782  0.00  0.00    +0.000 N 
ATOM      4  N   UNL     1       2.366   6.893  20.485  0.00  0.00    +0.000 N 
ATOM      5  H   UNL     1       3.150   4.951  21.749  0.00  0.00    +0.000 HD
ATOM      6  H   UNL     1       3.117   7.039  21.144  0.00  0.00    +0.000 HD
ENDROOT
BRANCH   4   7
ATOM      7  C   UNL     1       1.759   8.043  19.936  0.00  0.00    +0.000 A 
ATOM      8  C   UNL     1       1.971   8.455  18.619  0.00  0.00    +0.000 A 
ATOM      9  C   UNL     1       1.395   9.634  18.124  0.00  0.00    +0.000 A 
ATOM     10  C   UNL     1       0.591  10.423  18.966  0.00  0.00    +0.000 A 
ATOM     11  N   UNL     1      -0.020  11.628  18.640  0.00  0.00    +0.000 NA
ATOM     12  N   UNL     1      -0.704  12.125  19.655  0.00  0.00    +0.000 NA
ATOM     13  S   UNL     1      -0.645  11.159  21.016  0.00  0.00    +0.000 S 
ATOM     14  C   UNL     1       0.364   9.978  20.271  0.00  0.00    +0.000 A 
ATOM     15  C   UNL     1       0.915   8.787  20.773  0.00  0.00    +0.000 A 
ENDBRANCH   4   7
BRANCH   3  16
ATOM     16  C   UNL     1       2.933   3.303  20.459  0.00  0.00    +0.000 C 
BRANCH  16  17
ATOM     17  C   UNL     1       4.266   2.894  19.851  0.00  0.00    +0.000 C 
ATOM     18  O   UNL     1       4.908   1.935  20.285  0.00  0.00    +0.000 OA
BRANCH  17  19
ATOM     19  C   UNL     1       4.787   3.666  18.682  0.00  0.00    +0.000 A 
ATOM     20  C   UNL     1       5.792   4.637  18.809  0.00  0.00    +0.000 A 
ATOM     21  C   UNL     1       6.223   5.347  17.683  0.00  0.00    +0.000 A 
ATOM     22  C   UNL     1       5.657   5.087  16.441  0.00  0.00    +0.000 A 
ATOM     23  F   UNL     1       6.071   5.774  15.370  0.00  0.00    +0.000 F 
ATOM     24  C   UNL     1       4.665   4.125  16.297  0.00  0.00    +0.000 A 
ATOM     25  C   UNL     1       4.229   3.414  17.417  0.00  0.00    +0.000 A 
ENDBRANCH  17  19
ENDBRANCH  16  17
ENDBRANCH   3  16
TORSDOF 4
ENDMDL
