MODEL 1
REMARK VINA RESULT:      -6.9      0.000      0.000
REMARK  Name = 
REMARK  6 active torsions:
REMARK  status: ('A' for Active; 'I' for Inactive)
REMARK    1  A    between atoms: N_3  and  C_4
REMARK    2  A    between atoms: C_4  and  C_5
REMARK    3  A    between atoms: N_10  and  C_11
REMARK    4  A    between atoms: C_11  and  C_12
REMARK    5  A    between atoms: C_12  and  C_13
REMARK    6  A    between atoms: C_13  and  N_14
REMARK                            x       y       z     vdW  Elec       q    Type
REMARK                         _______ _______ _______ _____ _____    ______ ____
ROOT
ATOM      1  C   UNL     1       3.065   3.829  17.761  0.00  0.00    +0.000 C 
ATOM      2  C   UNL     1       2.317   2.482  17.775  0.00  0.00    +0.000 C 
ATOM      3  C   UNL     1       1.820   2.125  19.164  0.00  0.00    +0.000 C 
ATOM      4  C   UNL     1       0.965   3.261  19.719  0.00  0.00    +0.000 C 
ATOM      5  C   UNL     1       1.658   4.625  19.614  0.00  0.00    +0.000 C 
ATOM      6  N   UNL     1       2.142   4.891  18.249  0.00  0.00    +0.000 NA
ENDROOT
BRANCH   1   7
ATOM      7  C   UNL     1       4.418   3.776  18.507  0.00  0.00    +0.000 C 
BRANCH   7  10
ATOM      8  C   UNL     1       6.952   4.532  16.115  0.00  0.00    +0.000 A 
ATOM      9  C   UNL     1       5.651   4.158  16.344  0.00  0.00    +0.000 A 
ATOM     10  N   UNL     1       5.548   4.182  17.702  0.00  0.00    +0.000 N 
ATOM     11  N   UNL     1       6.708   4.530  18.278  0.00  0.00    +0.000 NA
ATOM     12  N   UNL     1       7.581   4.766  17.303  0.00  0.00    +0.000 NA
ENDBRANCH   7  10
ENDBRANCH   1   7
BRANCH   6  13
ATOM     13  C   UNL     1       2.698   6.260  18.131  0.00  0.00    +0.000 C 
BRANCH  13  14
ATOM     14  C   UNL     1       2.358   7.140  19.347  0.00  0.00    +0.000 C 
BRANCH  14  15
ATOM     15  C   UNL     1       1.692   8.474  18.997  0.00  0.00    +0.000 C 
BRANCH  15  16
ATOM     16  N   UNL     1       1.277   9.275  20.163  0.00  0.00    +0.000 NA
ATOM     17  C   UNL     1      -0.011   9.959  19.943  0.00  0.00    +0.000 C 
ATOM     18  C   UNL     1      -0.386  10.826  21.145  0.00  0.00    +0.000 C 
ATOM     19  C   UNL     1      -0.460   9.991  22.412  0.00  0.00    +0.000 C 
ATOM     20  C   UNL     1       0.837   9.214  22.604  0.00  0.00    +0.000 C 
ATOM     21  C   UNL     1       1.193   8.409  21.353  0.00  0.00    +0.000 C 
ENDBRANCH  15  16
ENDBRANCH  14  15
ENDBRANCH  13  14
ENDBRANCH   6  13
TORSDOF 6
ENDMDL
MODEL 2
REMARK VINA RESULT:      -6.7      0.648      1.235
REMARK  Name = 
REMARK  6 active torsions:
REMARK  status: ('A' for Active; 'I' for Inactive)
REMARK    1  A    between atoms: N_3  and  C_4
REMARK    2  A    between atoms: C_4  and  C_5
REMARK    3  A    between atoms: N_10  and  C_11
REMARK    4  A    between atoms: C_11  and  C_12
REMARK    5  A    between atoms: C_12  and  C_13
REMARK    6  A    between atoms: C_13  and  N_14
REMARK                            x       y       z     vdW  Elec       q    Type
REMARK                         _______ _______ _______ _____ _____    ______ ____
ROOT
ATOM      1  C   UNL     1       3.114   4.290  17.901  0.00  0.00    +0.000 C 
ATOM      2  C   UNL     1       2.334   3.002  17.578  0.00  0.00    +0.000 C 
ATOM      3  C   UNL     1       1.838   2.310  18.834  0.00  0.00    +0.000 C 
ATOM      4  C   UNL     1       1.014   3.282  19.673  0.00  0.00    +0.000 C 
ATOM      5  C   UNL     1       1.738   4.613  19.913  0.00  0.00    +0.000 C 
ATOM      6  N   UNL     1       2.219   5.211  18.657  0.00  0.00    +0.000 NA
ENDROOT
BRANCH   1   7
ATOM      7  C   UNL     1       4.470   4.020  18.591  0.00  0.00    +0.000 C 
BRANCH   7  10
ATOM      8  C   UNL     1       6.998   4.569  16.136  0.00  0.00    +0.000 A 
ATOM      9  C   UNL     1       5.663   4.387  16.403  0.00  0.00    +0.000 A 
ATOM     10  N   UNL     1       5.619   4.310  17.762  0.00  0.00    +0.000 N 
ATOM     11  N   UNL     1       6.841   4.421  18.303  0.00  0.00    +0.000 NA
ATOM     12  N   UNL     1       7.701   4.599  17.305  0.00  0.00    +0.000 NA
ENDBRANCH   7  10
ENDBRANCH   1   7
BRANCH   6  13
ATOM     13  C   UNL     1       2.806   6.552  18.888  0.00  0.00    +0.000 C 
BRANCH  13  14
ATOM     14  C   UNL     1       2.189   7.630  17.980  0.00  0.00    +0.000 C 
BRANCH  14  15
ATOM     15  C   UNL     1       2.113   9.023  18.611  0.00  0.00    +0.000 C 
BRANCH  15  16
ATOM     16  N   UNL     1       0.972   9.221  19.524  0.00  0.00    +0.000 NA
ATOM     17  C   UNL     1       1.246   8.711  20.880  0.00  0.00    +0.000 C 
ATOM     18  C   UNL     1       0.027   8.878  21.787  0.00  0.00    +0.000 C 
ATOM     19  C   UNL     1      -0.396  10.336  21.864  0.00  0.00    +0.000 C 
ATOM     20  C   UNL     1      -0.600  10.896  20.461  0.00  0.00    +0.000 C 
ATOM     21  C   UNL     1       0.627  10.653  19.581  0.00  0.00    +0.000 C 
ENDBRANCH  15  16
ENDBRANCH  14  15
ENDBRANCH  13  14
ENDBRANCH   6  13
TORSDOF 6
ENDMDL
MODEL 3
REMARK VINA RESULT:      -6.6      0.840      1.334
REMARK  Name = 
REMARK  6 active torsions:
REMARK  status: ('A' for Active; 'I' for Inactive)
REMARK    1  A    between atoms: N_3  and  C_4
REMARK    2  A    between atoms: C_4  and  C_5
REMARK    3  A    between atoms: N_10  and  C_11
REMARK    4  A    between atoms: C_11  and  C_12
REMARK    5  A    between atoms: C_12  and  C_13
REMARK    6  A    between atoms: C_13  and  N_14
REMARK                            x       y       z     vdW  Elec       q    Type
REMARK                         _______ _______ _______ _____ _____    ______ ____
ROOT
ATOM      1  C   UNL     1       3.116   4.448  18.016  0.00  0.00    +0.000 C 
ATOM      2  C   UNL     1       2.220   3.273  17.582  0.00  0.00    +0.000 C 
ATOM      3  C   UNL     1       1.689   2.496  18.773  0.00  0.00    +0.000 C 
ATOM      4  C   UNL     1       0.970   3.440  19.732  0.00  0.00    +0.000 C 
ATOM      5  C   UNL     1       1.813   4.671  20.089  0.00  0.00    +0.000 C 
ATOM      6  N   UNL     1       2.320   5.356  18.889  0.00  0.00    +0.000 NA
ENDROOT
BRANCH   1   7
ATOM      7  C   UNL     1       4.456   3.990  18.636  0.00  0.00    +0.000 C 
BRANCH   7  10
ATOM      8  C   UNL     1       7.023   4.525  16.219  0.00  0.00    +0.000 A 
ATOM      9  C   UNL     1       5.692   4.291  16.461  0.00  0.00    +0.000 A 
ATOM     10  N   UNL     1       5.612   4.290  17.821  0.00  0.00    +0.000 N 
ATOM     11  N   UNL     1       6.812   4.493  18.385  0.00  0.00    +0.000 NA
ATOM     12  N   UNL     1       7.690   4.657  17.401  0.00  0.00    +0.000 NA
ENDBRANCH   7  10
ENDBRANCH   1   7
BRANCH   6  13
ATOM     13  C   UNL     1       3.028   6.610  19.242  0.00  0.00    +0.000 C 
BRANCH  13  14
ATOM     14  C   UNL     1       2.143   7.856  19.062  0.00  0.00    +0.000 C 
BRANCH  14  15
ATOM     15  C   UNL     1       1.503   8.371  20.355  0.00  0.00    +0.000 C 
BRANCH  15  16
ATOM     16  N   UNL     1       0.895   9.710  20.245  0.00  0.00    +0.000 NA
ATOM     17  C   UNL     1       0.419   9.998  18.880  0.00  0.00    +0.000 C 
ATOM     18  C   UNL     1      -0.153  11.412  18.784  0.00  0.00    +0.000 C 
ATOM     19  C   UNL     1      -1.291  11.604  19.773  0.00  0.00    +0.000 C 
ATOM     20  C   UNL     1      -0.831  11.228  21.178  0.00  0.00    +0.000 C 
ATOM     21  C   UNL     1      -0.217   9.827  21.205  0.00  0.00    +0.000 C 
ENDBRANCH  15  16
ENDBRANCH  14  15
ENDBRANCH  13  14
ENDBRANCH   6  13
TORSDOF 6
ENDMDL
MODEL 4
REMARK VINA RESULT:      -6.5      2.212      5.925
REMARK  Name = 
REMARK  6 active torsions:
REMARK  status: ('A' for Active; 'I' for Inactive)
REMARK    1  A    between atoms: N_3  and  C_4
REMARK    2  A    between atoms: C_4  and  C_5
REMARK    3  A    between atoms: N_10  and  C_11
REMARK    4  A    between atoms: C_11  and  C_12
REMARK    5  A    between atoms: C_12  and  C_13
REMARK    6  A    between atoms: C_13  and  N_14
REMARK                            x       y       z     vdW  Elec       q    Type
REMARK                         _______ _______ _______ _____ _____    ______ ____
ROOT
ATOM      1  C   UNL     1       5.167   6.344  17.112  0.00  0.00    +0.000 C 
ATOM      2  C   UNL     1       6.473   7.138  17.308  0.00  0.00    +0.000 C 
ATOM      3  C   UNL     1       7.390   6.477  18.321  0.00  0.00    +0.000 C 
ATOM      4  C   UNL     1       7.655   5.030  17.917  0.00  0.00    +0.000 C 
ATOM      5  C   UNL     1       6.364   4.257  17.615  0.00  0.00    +0.000 C 
ATOM      6  N   UNL     1       5.510   4.970  16.651  0.00  0.00    +0.000 NA
ENDROOT
BRANCH   1   7
ATOM      7  C   UNL     1       4.244   6.383  18.351  0.00  0.00    +0.000 C 
BRANCH   7  10
ATOM      8  C   UNL     1       1.547   8.699  18.646  0.00  0.00    +0.000 A 
ATOM      9  C   UNL     1       2.282   7.697  19.230  0.00  0.00    +0.000 A 
ATOM     10  N   UNL     1       3.246   7.429  18.306  0.00  0.00    +0.000 N 
ATOM     11  N   UNL     1       3.112   8.200  17.217  0.00  0.00    +0.000 NA
ATOM     12  N   UNL     1       2.072   9.002  17.424  0.00  0.00    +0.000 NA
ENDBRANCH   7  10
ENDBRANCH   1   7
BRANCH   6  13
ATOM     13  C   UNL     1       4.328   4.158  16.275  0.00  0.00    +0.000 C 
BRANCH  13  14
ATOM     14  C   UNL     1       4.107   2.966  17.221  0.00  0.00    +0.000 C 
BRANCH  14  15
ATOM     15  C   UNL     1       2.638   2.598  17.446  0.00  0.00    +0.000 C 
BRANCH  15  16
ATOM     16  N   UNL     1       2.184   2.714  18.844  0.00  0.00    +0.000 NA
ATOM     17  C   UNL     1       3.291   2.558  19.805  0.00  0.00    +0.000 C 
ATOM     18  C   UNL     1       2.782   2.626  21.245  0.00  0.00    +0.000 C 
ATOM     19  C   UNL     1       2.061   3.940  21.503  0.00  0.00    +0.000 C 
ATOM     20  C   UNL     1       0.968   4.150  20.461  0.00  0.00    +0.000 C 
ATOM     21  C   UNL     1       1.521   4.016  19.041  0.00  0.00    +0.000 C 
ENDBRANCH  15  16
ENDBRANCH  14  15
ENDBRANCH  13  14
ENDBRANCH   6  13
TORSDOF 6
ENDMDL
MODEL 5
REMARK VINA RESULT:      -6.5      1.956      2.655
REMARK  Name = 
REMARK  6 active torsions:
REMARK  status: ('A' for Active; 'I' for Inactive)
REMARK    1  A    between atoms: N_3  and  C_4
REMARK    2  A    between atoms: C_4  and  C_5
REMARK    3  A    between atoms: N_10  and  C_11
REMARK    4  A    between atoms: C_11  and  C_12
REMARK    5  A    between atoms: C_12  and  C_13
REMARK    6  A    between atoms: C_13  and  N_14
REMARK                            x       y       z     vdW  Elec       q    Type
REMARK                         _______ _______ _______ _____ _____    ______ ____
ROOT
ATOM      1  C   UNL     1       3.301   5.601  17.729  0.00  0.00    +0.000 C 
ATOM      2  C   UNL     1       2.712   4.219  18.072  0.00  0.00    +0.000 C 
ATOM      3  C   UNL     1       2.628   3.995  19.570  0.00  0.00    +0.000 C 
ATOM      4  C   UNL     1       1.843   5.129  20.223  0.00  0.00    +0.000 C 
ATOM      5  C   UNL     1       2.353   6.514  19.806  0.00  0.00    +0.000 C 
ATOM      6  N   UNL     1       2.439   6.650  18.342  0.00  0.00    +0.000 NA
ENDROOT
BRANCH   1   7
ATOM      7  C   UNL     1       4.799   5.725  18.087  0.00  0.00    +0.000 C 
BRANCH   7  10
ATOM      8  C   UNL     1       6.895   4.579  15.438  0.00  0.00    +0.000 A 
ATOM      9  C   UNL     1       5.866   4.300  16.304  0.00  0.00    +0.000 A 
ATOM     10  N   UNL     1       5.691   5.471  16.977  0.00  0.00    +0.000 N 
ATOM     11  N   UNL     1       6.560   6.408  16.571  0.00  0.00    +0.000 NA
ATOM     12  N   UNL     1       7.299   5.871  15.605  0.00  0.00    +0.000 NA
ENDBRANCH   7  10
ENDBRANCH   1   7
BRANCH   6  13
ATOM     13  C   UNL     1       2.815   8.029  17.950  0.00  0.00    +0.000 C 
BRANCH  13  14
ATOM     14  C   UNL     1       1.588   8.920  17.685  0.00  0.00    +0.000 C 
BRANCH  14  15
ATOM     15  C   UNL     1       1.237   9.873  18.832  0.00  0.00    +0.000 C 
BRANCH  15  16
ATOM     16  N   UNL     1      -0.191  10.229  18.916  0.00  0.00    +0.000 NA
ATOM     17  C   UNL     1      -0.395  11.672  19.137  0.00  0.00    +0.000 C 
ATOM     18  C   UNL     1      -1.882  12.002  19.278  0.00  0.00    +0.000 C 
ATOM     19  C   UNL     1      -2.653  11.558  18.045  0.00  0.00    +0.000 C 
ATOM     20  C   UNL     1      -2.381  10.086  17.760  0.00  0.00    +0.000 C 
ATOM     21  C   UNL     1      -0.880   9.802  17.685  0.00  0.00    +0.000 C 
ENDBRANCH  15  16
ENDBRANCH  14  15
ENDBRANCH  13  14
ENDBRANCH   6  13
TORSDOF 6
ENDMDL
MODEL 6
REMARK VINA RESULT:      -6.4      1.725      2.183
REMARK  Name = 
REMARK  6 active torsions:
REMARK  status: ('A' for Active; 'I' for Inactive)
REMARK    1  A    between atoms: N_3  and  C_4
REMARK    2  A    between atoms: C_4  and  C_5
REMARK    3  A    between atoms: N_10  and  C_11
REMARK    4  A    between atoms: C_11  and  C_12
REMARK    5  A    between atoms: C_12  and  C_13
REMARK    6  A    between atoms: C_13  and  N_14
REMARK                            x       y       z     vdW  Elec       q    Type
REMARK                         _______ _______ _______ _____ _____    ______ ____
ROOT
ATOM      1  C   UNL     1       2.506   5.057  17.919  0.00  0.00    +0.000 C 
ATOM      2  C   UNL     1       1.759   3.714  17.806  0.00  0.00    +0.000 C 
ATOM      3  C   UNL     1       1.846   2.908  19.088  0.00  0.00    +0.000 C 
ATOM      4  C   UNL     1       1.346   3.744  20.263  0.00  0.00    +0.000 C 
ATOM      5  C   UNL     1       2.007   5.127  20.326  0.00  0.00    +0.000 C 
ATOM      6  N   UNL     1       1.913   5.838  19.040  0.00  0.00    +0.000 NA
ENDROOT
BRANCH   1   7
ATOM      7  C   UNL     1       4.040   4.889  18.008  0.00  0.00    +0.000 C 
BRANCH   7  10
ATOM      8  C   UNL     1       5.898   4.832  14.964  0.00  0.00    +0.000 A 
ATOM      9  C   UNL     1       5.300   4.112  15.969  0.00  0.00    +0.000 A 
ATOM     10  N   UNL     1       4.724   5.071  16.747  0.00  0.00    +0.000 N 
ATOM     11  N   UNL     1       4.962   6.301  16.269  0.00  0.00    +0.000 NA
ATOM     12  N   UNL     1       5.674   6.164  15.155  0.00  0.00    +0.000 NA
ENDBRANCH   7  10
ENDBRANCH   1   7
BRANCH   6  13
ATOM     13  C   UNL     1       2.444   7.218  19.147  0.00  0.00    +0.000 C 
BRANCH  13  14
ATOM     14  C   UNL     1       2.204   8.042  17.870  0.00  0.00    +0.000 C 
BRANCH  14  15
ATOM     15  C   UNL     1       2.023   9.544  18.110  0.00  0.00    +0.000 C 
BRANCH  15  16
ATOM     16  N   UNL     1       0.794   9.904  18.839  0.00  0.00    +0.000 NA
ATOM     17  C   UNL     1       0.973  11.100  19.682  0.00  0.00    +0.000 C 
ATOM     18  C   UNL     1      -0.299  11.415  20.468  0.00  0.00    +0.000 C 
ATOM     19  C   UNL     1      -1.478  11.623  19.530  0.00  0.00    +0.000 C 
ATOM     20  C   UNL     1      -1.619  10.426  18.596  0.00  0.00    +0.000 C 
ATOM     21  C   UNL     1      -0.304  10.122  17.879  0.00  0.00    +0.000 C 
ENDBRANCH  15  16
ENDBRANCH  14  15
ENDBRANCH  13  14
ENDBRANCH   6  13
TORSDOF 6
ENDMDL
MODEL 7
REMARK VINA RESULT:      -6.4      1.462      1.696
REMARK  Name = 
REMARK  6 active torsions:
REMARK  status: ('A' for Active; 'I' for Inactive)
REMARK    1  A    between atoms: N_3  and  C_4
REMARK    2  A    between atoms: C_4  and  C_5
REMARK    3  A    between atoms: N_10  and  C_11
REMARK    4  A    between atoms: C_11  and  C_12
REMARK    5  A    between atoms: C_12  and  C_13
REMARK    6  A    between atoms: C_13  and  N_14
REMARK                            x       y       z     vdW  Elec       q    Type
REMARK                         _______ _______ _______ _____ _____    ______ ____
ROOT
ATOM      1  C   UNL     1       3.122   4.338  17.629  0.00  0.00    +0.000 C 
ATOM      2  C   UNL     1       2.257   3.065  17.573  0.00  0.00    +0.000 C 
ATOM      3  C   UNL     1       1.827   2.611  18.955  0.00  0.00    +0.000 C 
ATOM      4  C   UNL     1       1.120   3.751  19.682  0.00  0.00    +0.000 C 
ATOM      5  C   UNL     1       1.926   5.057  19.654  0.00  0.00    +0.000 C 
ATOM      6  N   UNL     1       2.336   5.419  18.287  0.00  0.00    +0.000 NA
ENDROOT
BRANCH   1   7
ATOM      7  C   UNL     1       4.513   4.097  18.259  0.00  0.00    +0.000 C 
BRANCH   7  10
ATOM      8  C   UNL     1       6.931   4.415  15.656  0.00  0.00    +0.000 A 
ATOM      9  C   UNL     1       5.621   4.184  15.998  0.00  0.00    +0.000 A 
ATOM     10  N   UNL     1       5.616   4.328  17.352  0.00  0.00    +0.000 N 
ATOM     11  N   UNL     1       6.839   4.612  17.822  0.00  0.00    +0.000 NA
ATOM     12  N   UNL     1       7.659   4.685  16.778  0.00  0.00    +0.000 NA
ENDBRANCH   7  10
ENDBRANCH   1   7
BRANCH   6  13
ATOM     13  C   UNL     1       3.005   6.741  18.257  0.00  0.00    +0.000 C 
BRANCH  13  14
ATOM     14  C   UNL     1       2.081   7.880  18.724  0.00  0.00    +0.000 C 
BRANCH  14  15
ATOM     15  C   UNL     1       2.161   9.151  17.873  0.00  0.00    +0.000 C 
BRANCH  15  16
ATOM     16  N   UNL     1       1.070  10.114  18.107  0.00  0.00    +0.000 NA
ATOM     17  C   UNL     1      -0.259   9.522  17.866  0.00  0.00    +0.000 C 
ATOM     18  C   UNL     1      -1.366  10.559  18.060  0.00  0.00    +0.000 C 
ATOM     19  C   UNL     1      -1.315  11.149  19.460  0.00  0.00    +0.000 C 
ATOM     20  C   UNL     1       0.082  11.688  19.750  0.00  0.00    +0.000 C 
ATOM     21  C   UNL     1       1.153  10.628  19.486  0.00  0.00    +0.000 C 
ENDBRANCH  15  16
ENDBRANCH  14  15
ENDBRANCH  13  14
ENDBRANCH   6  13
TORSDOF 6
ENDMDL
MODEL 8
REMARK VINA RESULT:      -6.4      1.152      1.345
REMARK  Name = 
REMARK  6 active torsions:
REMARK  status: ('A' for Active; 'I' for Inactive)
REMARK    1  A    between atoms: N_3  and  C_4
REMARK    2  A    between atoms: C_4  and  C_5
REMARK    3  A    between atoms: N_10  and  C_11
REMARK    4  A    between atoms: C_11  and  C_12
REMARK    5  A    between atoms: C_12  and  C_13
REMARK    6  A    between atoms: C_13  and  N_14
REMARK                            x       y       z     vdW  Elec       q    Type
REMARK                         _______ _______ _______ _____ _____    ______ ____
ROOT
ATOM      1  C   UNL     1       2.927   4.753  18.170  0.00  0.00    +0.000 C 
ATOM      2  C   UNL     1       2.166   3.493  17.717  0.00  0.00    +0.000 C 
ATOM      3  C   UNL     1       1.756   2.626  18.893  0.00  0.00    +0.000 C 
ATOM      4  C   UNL     1       0.952   3.452  19.893  0.00  0.00    +0.000 C 
ATOM      5  C   UNL     1       1.651   4.764  20.272  0.00  0.00    +0.000 C 
ATOM      6  N   UNL     1       2.049   5.536  19.083  0.00  0.00    +0.000 NA
ENDROOT
BRANCH   1   7
ATOM      7  C   UNL     1       4.324   4.440  18.751  0.00  0.00    +0.000 C 
BRANCH   7  10
ATOM      8  C   UNL     1       6.989   5.897  16.881  0.00  0.00    +0.000 A 
ATOM      9  C   UNL     1       6.194   5.953  17.999  0.00  0.00    +0.000 A 
ATOM     10  N   UNL     1       5.419   4.837  17.894  0.00  0.00    +0.000 N 
ATOM     11  N   UNL     1       5.701   4.144  16.781  0.00  0.00    +0.000 NA
ATOM     12  N   UNL     1       6.685   4.783  16.155  0.00  0.00    +0.000 NA
ENDBRANCH   7  10
ENDBRANCH   1   7
BRANCH   6  13
ATOM     13  C   UNL     1       2.611   6.855  19.461  0.00  0.00    +0.000 C 
BRANCH  13  14
ATOM     14  C   UNL     1       1.753   7.582  20.510  0.00  0.00    +0.000 C 
BRANCH  14  15
ATOM     15  C   UNL     1       1.177   8.922  20.041  0.00  0.00    +0.000 C 
BRANCH  15  16
ATOM     16  N   UNL     1       0.749   9.819  21.129  0.00  0.00    +0.000 NA
ATOM     17  C   UNL     1       0.119  11.052  20.622  0.00  0.00    +0.000 C 
ATOM     18  C   UNL     1      -0.263  11.987  21.771  0.00  0.00    +0.000 C 
ATOM     19  C   UNL     1      -1.204  11.294  22.742  0.00  0.00    +0.000 C 
ATOM     20  C   UNL     1      -0.597   9.975  23.208  0.00  0.00    +0.000 C 
ATOM     21  C   UNL     1      -0.183   9.104  22.020  0.00  0.00    +0.000 C 
ENDBRANCH  15  16
ENDBRANCH  14  15
ENDBRANCH  13  14
ENDBRANCH   6  13
TORSDOF 6
ENDMDL
MODEL 9
REMARK VINA RESULT:      -6.4      1.825      3.978
REMARK  Name = 
REMARK  6 active torsions:
REMARK  status: ('A' for Active; 'I' for Inactive)
REMARK    1  A    between atoms: N_3  and  C_4
REMARK    2  A    between atoms: C_4  and  C_5
REMARK    3  A    between atoms: N_10  and  C_11
REMARK    4  A    between atoms: C_11  and  C_12
REMARK    5  A    between atoms: C_12  and  C_13
REMARK    6  A    between atoms: C_13  and  N_14
REMARK                            x       y       z     vdW  Elec       q    Type
REMARK                         _______ _______ _______ _____ _____    ______ ____
ROOT
ATOM      1  C   UNL     1       5.201   5.468  18.580  0.00  0.00    +0.000 C 
ATOM      2  C   UNL     1       6.497   5.439  19.413  0.00  0.00    +0.000 C 
ATOM      3  C   UNL     1       7.730   5.632  18.549  0.00  0.00    +0.000 C 
ATOM      4  C   UNL     1       7.600   6.916  17.735  0.00  0.00    +0.000 C 
ATOM      5  C   UNL     1       6.266   7.006  16.984  0.00  0.00    +0.000 C 
ATOM      6  N   UNL     1       5.117   6.778  17.876  0.00  0.00    +0.000 NA
ENDROOT
BRANCH   1   7
ATOM      7  C   UNL     1       5.052   4.242  17.651  0.00  0.00    +0.000 C 
BRANCH   7  10
ATOM      8  C   UNL     1       2.553   1.915  18.683  0.00  0.00    +0.000 A 
ATOM      9  C   UNL     1       3.794   2.458  18.910  0.00  0.00    +0.000 A 
ATOM     10  N   UNL     1       3.902   3.417  17.949  0.00  0.00    +0.000 N 
ATOM     11  N   UNL     1       2.812   3.458  17.168  0.00  0.00    +0.000 NA
ATOM     12  N   UNL     1       1.962   2.542  17.625  0.00  0.00    +0.000 NA
ENDBRANCH   7  10
ENDBRANCH   1   7
BRANCH   6  13
ATOM     13  C   UNL     1       3.833   6.989  17.166  0.00  0.00    +0.000 C 
BRANCH  13  14
ATOM     14  C   UNL     1       2.662   7.245  18.131  0.00  0.00    +0.000 C 
BRANCH  14  15
ATOM     15  C   UNL     1       2.212   8.707  18.208  0.00  0.00    +0.000 C 
BRANCH  15  16
ATOM     16  N   UNL     1       1.110   8.959  19.154  0.00  0.00    +0.000 NA
ATOM     17  C   UNL     1       1.412   8.462  20.510  0.00  0.00    +0.000 C 
ATOM     18  C   UNL     1       0.231   8.686  21.454  0.00  0.00    +0.000 C 
ATOM     19  C   UNL     1      -0.138  10.159  21.519  0.00  0.00    +0.000 C 
ATOM     20  C   UNL     1      -0.370  10.703  20.114  0.00  0.00    +0.000 C 
ATOM     21  C   UNL     1       0.818  10.403  19.199  0.00  0.00    +0.000 C 
ENDBRANCH  15  16
ENDBRANCH  14  15
ENDBRANCH  13  14
ENDBRANCH   6  13
TORSDOF 6
ENDMDL
