MODEL 1
REMARK VINA RESULT:      -7.7      0.000      0.000
REMARK  Name = 
REMARK  8 active torsions:
REMARK  status: ('A' for Active; 'I' for Inactive)
REMARK    1  A    between atoms: C_1  and  N_2
REMARK    2  A    between atoms: N_6  and  C_7
REMARK    3  A    between atoms: C_7  and  C_8
REMARK    4  A    between atoms: C_8  and  O_9
REMARK    5  A    between atoms: C_8  and  C_10
REMARK    6  A    between atoms: C_10  and  O_11
REMARK    7  A    between atoms: O_11  and  C_12
REMARK    8  A    between atoms: C_12  and  C_13
REMARK                            x       y       z     vdW  Elec       q    Type
REMARK                         _______ _______ _______ _____ _____    ______ ____
ROOT
ATOM      1  C   UNL     1       6.718   4.529  17.475  0.00  0.00    +0.000 C 
ENDROOT
BRANCH   1   2
ATOM      2  O   UNL     1       8.004   3.987  17.845  0.00  0.00    +0.000 OA
ATOM      3  H   UNL     1       8.485   4.678  18.328  0.00  0.00    +0.000 HD
ENDBRANCH   1   2
BRANCH   1   4
ATOM      4  C   UNL     1       5.660   4.226  18.572  0.00  0.00    +0.000 C 
BRANCH   4  10
ATOM      5  C   UNL     1       3.183   2.454  21.378  0.00  0.00    +0.000 C 
ATOM      6  N   UNL     1       2.555   2.955  20.169  0.00  0.00    +0.000 N 
ATOM      7  C   UNL     1       2.272   2.070  19.055  0.00  0.00    +0.000 C 
ATOM      8  C   UNL     1       3.434   1.961  18.090  0.00  0.00    +0.000 C 
ATOM      9  C   UNL     1       3.650   3.252  17.316  0.00  0.00    +0.000 C 
ATOM     10  N   UNL     1       4.261   4.335  18.093  0.00  0.00    +0.000 N 
ATOM     11  C   UNL     1       3.366   4.981  18.974  0.00  0.00    +0.000 A 
ATOM     12  C   UNL     1       3.236   6.374  18.819  0.00  0.00    +0.000 A 
ATOM     13  C   UNL     1       2.305   7.092  19.563  0.00  0.00    +0.000 A 
ATOM     14  F   UNL     1       2.153   8.405  19.344  0.00  0.00    +0.000 F 
ATOM     15  C   UNL     1       1.512   6.465  20.508  0.00  0.00    +0.000 A 
ATOM     16  C   UNL     1       1.658   5.095  20.712  0.00  0.00    +0.000 A 
ATOM     17  C   UNL     1       2.560   4.330  19.950  0.00  0.00    +0.000 A 
ENDBRANCH   4  10
ENDBRANCH   1   4
BRANCH   1  18
ATOM     18  C   UNL     1       6.917   6.038  17.216  0.00  0.00    +0.000 C 
BRANCH  18  19
ATOM     19  O   UNL     1       6.696   6.250  15.819  0.00  0.00    +0.000 OA
BRANCH  19  20
ATOM     20  C   UNL     1       5.594   5.543  15.264  0.00  0.00    +0.000 C 
BRANCH  20  21
ATOM     21  C   UNL     1       6.081   4.850  14.009  0.00  0.00    +0.000 A 
ATOM     22  C   UNL     1       7.355   5.158  13.466  0.00  0.00    +0.000 A 
ATOM     23  C   UNL     1       7.887   4.435  12.393  0.00  0.00    +0.000 A 
ATOM     24  C   UNL     1       7.128   3.405  11.891  0.00  0.00    +0.000 A 
ATOM     25  C   UNL     1       5.863   3.138  12.367  0.00  0.00    +0.000 A 
ATOM     26  C   UNL     1       5.297   3.861  13.397  0.00  0.00    +0.000 A 
ATOM     27  O   UNL     1       5.302   2.061  11.751  0.00  0.00    +0.000 OA
ATOM     28  C   UNL     1       6.456   1.547  11.055  0.00  0.00    +0.000 C 
ATOM     29  O   UNL     1       7.516   2.518  10.935  0.00  0.00    +0.000 OA
ENDBRANCH  20  21
ENDBRANCH  19  20
ENDBRANCH  18  19
ENDBRANCH   1  18
TORSDOF 7
ENDMDL
MODEL 2
REMARK VINA RESULT:      -7.7      3.710      6.257
REMARK  Name = 
REMARK  8 active torsions:
REMARK  status: ('A' for Active; 'I' for Inactive)
REMARK    1  A    between atoms: C_1  and  N_2
REMARK    2  A    between atoms: N_6  and  C_7
REMARK    3  A    between atoms: C_7  and  C_8
REMARK    4  A    between atoms: C_8  and  O_9
REMARK    5  A    between atoms: C_8  and  C_10
REMARK    6  A    between atoms: C_10  and  O_11
REMARK    7  A    between atoms: O_11  and  C_12
REMARK    8  A    between atoms: C_12  and  C_13
REMARK                            x       y       z     vdW  Elec       q    Type
REMARK                         _______ _______ _______ _____ _____    ______ ____
ROOT
ATOM      1  C   UNL     1       6.704   5.350  17.881  0.00  0.00    +0.000 C 
ENDROOT
BRANCH   1   2
ATOM      2  O   UNL     1       7.759   4.664  17.174  0.00  0.00    +0.000 OA
ATOM      3  H   UNL     1       8.589   4.839  17.646  0.00  0.00    +0.000 HD
ENDBRANCH   1   2
BRANCH   1   4
ATOM      4  C   UNL     1       5.718   4.331  18.518  0.00  0.00    +0.000 C 
BRANCH   4  10
ATOM      5  C   UNL     1       3.197   2.412  21.184  0.00  0.00    +0.000 C 
ATOM      6  N   UNL     1       2.590   2.968  19.988  0.00  0.00    +0.000 N 
ATOM      7  C   UNL     1       2.335   2.137  18.827  0.00  0.00    +0.000 C 
ATOM      8  C   UNL     1       3.516   2.081  17.881  0.00  0.00    +0.000 C 
ATOM      9  C   UNL     1       3.740   3.410  17.176  0.00  0.00    +0.000 C 
ATOM     10  N   UNL     1       4.329   4.456  18.017  0.00  0.00    +0.000 N 
ATOM     11  C   UNL     1       3.413   5.054  18.911  0.00  0.00    +0.000 A 
ATOM     12  C   UNL     1       3.277   6.452  18.821  0.00  0.00    +0.000 A 
ATOM     13  C   UNL     1       2.328   7.128  19.581  0.00  0.00    +0.000 A 
ATOM     14  F   UNL     1       2.172   8.449  19.423  0.00  0.00    +0.000 F 
ATOM     15  C   UNL     1       1.519   6.452  20.477  0.00  0.00    +0.000 A 
ATOM     16  C   UNL     1       1.670   5.074  20.617  0.00  0.00    +0.000 A 
ATOM     17  C   UNL     1       2.591   4.352  19.837  0.00  0.00    +0.000 A 
ENDBRANCH   4  10
ENDBRANCH   1   4
BRANCH   1  18
ATOM     18  C   UNL     1       7.376   6.279  18.914  0.00  0.00    +0.000 C 
BRANCH  18  19
ATOM     19  O   UNL     1       8.255   7.140  18.186  0.00  0.00    +0.000 OA
BRANCH  19  20
ATOM     20  C   UNL     1       7.634   8.267  17.578  0.00  0.00    +0.000 C 
BRANCH  20  21
ATOM     21  C   UNL     1       8.287   9.509  18.144  0.00  0.00    +0.000 A 
ATOM     22  C   UNL     1       9.086   9.433  19.315  0.00  0.00    +0.000 A 
ATOM     23  C   UNL     1       9.813  10.534  19.778  0.00  0.00    +0.000 A 
ATOM     24  C   UNL     1       9.730  11.695  19.047  0.00  0.00    +0.000 A 
ATOM     25  C   UNL     1       8.908  11.801  17.946  0.00  0.00    +0.000 A 
ATOM     26  C   UNL     1       8.149  10.743  17.491  0.00  0.00    +0.000 A 
ATOM     27  O   UNL     1       9.002  13.024  17.355  0.00  0.00    +0.000 OA
ATOM     28  C   UNL     1      10.156  13.544  18.046  0.00  0.00    +0.000 C 
ATOM     29  O   UNL     1      10.448  12.830  19.265  0.00  0.00    +0.000 OA
ENDBRANCH  20  21
ENDBRANCH  19  20
ENDBRANCH  18  19
ENDBRANCH   1  18
TORSDOF 7
ENDMDL
MODEL 3
REMARK VINA RESULT:      -7.5      4.549      7.033
REMARK  Name = 
REMARK  8 active torsions:
REMARK  status: ('A' for Active; 'I' for Inactive)
REMARK    1  A    between atoms: C_1  and  N_2
REMARK    2  A    between atoms: N_6  and  C_7
REMARK    3  A    between atoms: C_7  and  C_8
REMARK    4  A    between atoms: C_8  and  O_9
REMARK    5  A    between atoms: C_8  and  C_10
REMARK    6  A    between atoms: C_10  and  O_11
REMARK    7  A    between atoms: O_11  and  C_12
REMARK    8  A    between atoms: C_12  and  C_13
REMARK                            x       y       z     vdW  Elec       q    Type
REMARK                         _______ _______ _______ _____ _____    ______ ____
ROOT
ATOM      1  C   UNL     1       6.361   6.954  17.557  0.00  0.00    +0.000 C 
ENDROOT
BRANCH   1   2
ATOM      2  O   UNL     1       6.360   6.805  16.121  0.00  0.00    +0.000 OA
ATOM      3  H   UNL     1       6.500   7.685  15.737  0.00  0.00    +0.000 HD
ENDBRANCH   1   2
BRANCH   1   4
ATOM      4  C   UNL     1       5.763   5.691  18.239  0.00  0.00    +0.000 C 
BRANCH   4  10
ATOM      5  C   UNL     1       4.539   2.233  20.160  0.00  0.00    +0.000 C 
ATOM      6  N   UNL     1       3.587   2.859  19.262  0.00  0.00    +0.000 N 
ATOM      7  C   UNL     1       3.438   2.400  17.895  0.00  0.00    +0.000 C 
ATOM      8  C   UNL     1       4.389   3.093  16.942  0.00  0.00    +0.000 C 
ATOM      9  C   UNL     1       4.022   4.555  16.740  0.00  0.00    +0.000 C 
ATOM     10  N   UNL     1       4.352   5.429  17.871  0.00  0.00    +0.000 N 
ATOM     11  C   UNL     1       3.452   5.325  18.955  0.00  0.00    +0.000 A 
ATOM     12  C   UNL     1       2.833   6.519  19.368  0.00  0.00    +0.000 A 
ATOM     13  C   UNL     1       1.853   6.512  20.355  0.00  0.00    +0.000 A 
ATOM     14  F   UNL     1       1.230   7.654  20.678  0.00  0.00    +0.000 F 
ATOM     15  C   UNL     1       1.488   5.337  20.988  0.00  0.00    +0.000 A 
ATOM     16  C   UNL     1       2.122   4.150  20.628  0.00  0.00    +0.000 A 
ATOM     17  C   UNL     1       3.088   4.113  19.607  0.00  0.00    +0.000 A 
ENDBRANCH   4  10
ENDBRANCH   1   4
BRANCH   1  18
ATOM     18  C   UNL     1       7.813   7.250  17.985  0.00  0.00    +0.000 C 
BRANCH  18  19
ATOM     19  O   UNL     1       7.991   8.666  17.893  0.00  0.00    +0.000 OA
BRANCH  19  20
ATOM     20  C   UNL     1       8.901   9.226  18.833  0.00  0.00    +0.000 C 
BRANCH  20  21
ATOM     21  C   UNL     1       9.161  10.658  18.418  0.00  0.00    +0.000 A 
ATOM     22  C   UNL     1       8.183  11.387  17.694  0.00  0.00    +0.000 A 
ATOM     23  C   UNL     1       8.338  12.750  17.422  0.00  0.00    +0.000 A 
ATOM     24  C   UNL     1       9.477  13.360  17.893  0.00  0.00    +0.000 A 
ATOM     25  C   UNL     1      10.464  12.649  18.540  0.00  0.00    +0.000 A 
ATOM     26  C   UNL     1      10.355  11.297  18.787  0.00  0.00    +0.000 A 
ATOM     27  O   UNL     1      11.486  13.451  18.948  0.00  0.00    +0.000 OA
ATOM     28  C   UNL     1      10.890  14.745  18.722  0.00  0.00    +0.000 C 
ATOM     29  O   UNL     1       9.754  14.691  17.834  0.00  0.00    +0.000 OA
ENDBRANCH  20  21
ENDBRANCH  19  20
ENDBRANCH  18  19
ENDBRANCH   1  18
TORSDOF 7
ENDMDL
MODEL 4
REMARK VINA RESULT:      -7.5      4.399      6.992
REMARK  Name = 
REMARK  8 active torsions:
REMARK  status: ('A' for Active; 'I' for Inactive)
REMARK    1  A    between atoms: C_1  and  N_2
REMARK    2  A    between atoms: N_6  and  C_7
REMARK    3  A    between atoms: C_7  and  C_8
REMARK    4  A    between atoms: C_8  and  O_9
REMARK    5  A    between atoms: C_8  and  C_10
REMARK    6  A    between atoms: C_10  and  O_11
REMARK    7  A    between atoms: O_11  and  C_12
REMARK    8  A    between atoms: C_12  and  C_13
REMARK                            x       y       z     vdW  Elec       q    Type
REMARK                         _______ _______ _______ _____ _____    ______ ____
ROOT
ATOM      1  C   UNL     1       6.398   6.812  17.556  0.00  0.00    +0.000 C 
ENDROOT
BRANCH   1   2
ATOM      2  O   UNL     1       6.258   6.886  16.120  0.00  0.00    +0.000 OA
ATOM      3  H   UNL     1       5.857   7.744  15.910  0.00  0.00    +0.000 HD
ENDBRANCH   1   2
BRANCH   1   4
ATOM      4  C   UNL     1       5.759   5.506  18.103  0.00  0.00    +0.000 C 
BRANCH   4  10
ATOM      5  C   UNL     1       4.167   2.487  20.449  0.00  0.00    +0.000 C 
ATOM      6  N   UNL     1       3.285   3.094  19.469  0.00  0.00    +0.000 N 
ATOM      7  C   UNL     1       3.076   2.480  18.172  0.00  0.00    +0.000 C 
ATOM      8  C   UNL     1       4.093   2.931  17.145  0.00  0.00    +0.000 C 
ATOM      9  C   UNL     1       3.892   4.386  16.751  0.00  0.00    +0.000 C 
ATOM     10  N   UNL     1       4.325   5.358  17.760  0.00  0.00    +0.000 N 
ATOM     11  C   UNL     1       3.425   5.498  18.841  0.00  0.00    +0.000 A 
ATOM     12  C   UNL     1       2.948   6.798  19.090  0.00  0.00    +0.000 A 
ATOM     13  C   UNL     1       1.979   7.030  20.061  0.00  0.00    +0.000 A 
ATOM     14  F   UNL     1       1.491   8.266  20.227  0.00  0.00    +0.000 F 
ATOM     15  C   UNL     1       1.489   5.996  20.840  0.00  0.00    +0.000 A 
ATOM     16  C   UNL     1       1.983   4.708  20.643  0.00  0.00    +0.000 A 
ATOM     17  C   UNL     1       2.933   4.430  19.643  0.00  0.00    +0.000 A 
ENDBRANCH   4  10
ENDBRANCH   1   4
BRANCH   1  18
ATOM     18  C   UNL     1       7.903   6.937  17.874  0.00  0.00    +0.000 C 
BRANCH  18  19
ATOM     19  O   UNL     1       8.091   8.212  18.493  0.00  0.00    +0.000 OA
BRANCH  19  20
ATOM     20  C   UNL     1       8.200   9.312  17.597  0.00  0.00    +0.000 C 
BRANCH  20  21
ATOM     21  C   UNL     1       8.817  10.464  18.361  0.00  0.00    +0.000 A 
ATOM     22  C   UNL     1       9.454  10.240  19.610  0.00  0.00    +0.000 A 
ATOM     23  C   UNL     1      10.153  11.258  20.267  0.00  0.00    +0.000 A 
ATOM     24  C   UNL     1      10.207  12.484  19.649  0.00  0.00    +0.000 A 
ATOM     25  C   UNL     1       9.539  12.732  18.470  0.00  0.00    +0.000 A 
ATOM     26  C   UNL     1       8.808  11.758  17.820  0.00  0.00    +0.000 A 
ATOM     27  O   UNL     1       9.751  13.999  18.019  0.00  0.00    +0.000 OA
ATOM     28  C   UNL     1      10.824  14.397  18.897  0.00  0.00    +0.000 C 
ATOM     29  O   UNL     1      10.930  13.559  20.066  0.00  0.00    +0.000 OA
ENDBRANCH  20  21
ENDBRANCH  19  20
ENDBRANCH  18  19
ENDBRANCH   1  18
TORSDOF 7
ENDMDL
MODEL 5
REMARK VINA RESULT:      -7.4      5.448      8.520
REMARK  Name = 
REMARK  8 active torsions:
REMARK  status: ('A' for Active; 'I' for Inactive)
REMARK    1  A    between atoms: C_1  and  N_2
REMARK    2  A    between atoms: N_6  and  C_7
REMARK    3  A    between atoms: C_7  and  C_8
REMARK    4  A    between atoms: C_8  and  O_9
REMARK    5  A    between atoms: C_8  and  C_10
REMARK    6  A    between atoms: C_10  and  O_11
REMARK    7  A    between atoms: O_11  and  C_12
REMARK    8  A    between atoms: C_12  and  C_13
REMARK                            x       y       z     vdW  Elec       q    Type
REMARK                         _______ _______ _______ _____ _____    ______ ____
ROOT
ATOM      1  C   UNL     1       2.088  10.807  18.349  0.00  0.00    +0.000 C 
ENDROOT
BRANCH   1   2
ATOM      2  O   UNL     1       2.584  11.545  17.212  0.00  0.00    +0.000 OA
ATOM      3  H   UNL     1       3.486  11.235  17.033  0.00  0.00    +0.000 HD
ENDBRANCH   1   2
BRANCH   1   4
ATOM      4  C   UNL     1       1.003  11.625  19.103  0.00  0.00    +0.000 C 
BRANCH   4  10
ATOM      5  C   UNL     1      -1.958  14.149  20.521  0.00  0.00    +0.000 C 
ATOM      6  N   UNL     1      -2.160  12.725  20.713  0.00  0.00    +0.000 N 
ATOM      7  C   UNL     1      -1.816  12.085  21.967  0.00  0.00    +0.000 C 
ATOM      8  C   UNL     1      -0.376  11.616  22.005  0.00  0.00    +0.000 C 
ATOM      9  C   UNL     1      -0.139  10.442  21.069  0.00  0.00    +0.000 C 
ATOM     10  N   UNL     1      -0.097  10.793  19.646  0.00  0.00    +0.000 N 
ATOM     11  C   UNL     1      -1.370  11.024  19.077  0.00  0.00    +0.000 A 
ATOM     12  C   UNL     1      -1.702  10.243  17.955  0.00  0.00    +0.000 A 
ATOM     13  C   UNL     1      -2.968  10.315  17.383  0.00  0.00    +0.000 A 
ATOM     14  F   UNL     1      -3.280   9.507  16.360  0.00  0.00    +0.000 F 
ATOM     15  C   UNL     1      -3.923  11.189  17.874  0.00  0.00    +0.000 A 
ATOM     16  C   UNL     1      -3.599  12.007  18.954  0.00  0.00    +0.000 A 
ATOM     17  C   UNL     1      -2.343  11.932  19.582  0.00  0.00    +0.000 A 
ENDBRANCH   4  10
ENDBRANCH   1   4
BRANCH   1  18
ATOM     18  C   UNL     1       1.576   9.449  17.825  0.00  0.00    +0.000 C 
BRANCH  18  19
ATOM     19  O   UNL     1       2.135   8.441  18.672  0.00  0.00    +0.000 OA
BRANCH  19  20
ATOM     20  C   UNL     1       3.011   7.524  18.027  0.00  0.00    +0.000 C 
BRANCH  20  21
ATOM     21  C   UNL     1       3.110   6.295  18.904  0.00  0.00    +0.000 A 
ATOM     22  C   UNL     1       2.059   5.960  19.796  0.00  0.00    +0.000 A 
ATOM     23  C   UNL     1       2.061   4.759  20.512  0.00  0.00    +0.000 A 
ATOM     24  C   UNL     1       3.121   3.908  20.310  0.00  0.00    +0.000 A 
ATOM     25  C   UNL     1       4.179   4.250  19.497  0.00  0.00    +0.000 A 
ATOM     26  C   UNL     1       4.223   5.445  18.810  0.00  0.00    +0.000 A 
ATOM     27  O   UNL     1       5.103   3.252  19.415  0.00  0.00    +0.000 OA
ATOM     28  C   UNL     1       4.366   2.182  20.039  0.00  0.00    +0.000 C 
ATOM     29  O   UNL     1       3.247   2.652  20.819  0.00  0.00    +0.000 OA
ENDBRANCH  20  21
ENDBRANCH  19  20
ENDBRANCH  18  19
ENDBRANCH   1  18
TORSDOF 7
ENDMDL
MODEL 6
REMARK VINA RESULT:      -7.3      5.197      7.607
REMARK  Name = 
REMARK  8 active torsions:
REMARK  status: ('A' for Active; 'I' for Inactive)
REMARK    1  A    between atoms: C_1  and  N_2
REMARK    2  A    between atoms: N_6  and  C_7
REMARK    3  A    between atoms: C_7  and  C_8
REMARK    4  A    between atoms: C_8  and  O_9
REMARK    5  A    between atoms: C_8  and  C_10
REMARK    6  A    between atoms: C_10  and  O_11
REMARK    7  A    between atoms: O_11  and  C_12
REMARK    8  A    between atoms: C_12  and  C_13
REMARK                            x       y       z     vdW  Elec       q    Type
REMARK                         _______ _______ _______ _____ _____    ______ ____
ROOT
ATOM      1  C   UNL     1       1.944  10.145  18.754  0.00  0.00    +0.000 C 
ENDROOT
BRANCH   1   2
ATOM      2  O   UNL     1       1.833  10.301  17.323  0.00  0.00    +0.000 OA
ATOM      3  H   UNL     1       1.021  10.801  17.146  0.00  0.00    +0.000 HD
ENDBRANCH   1   2
BRANCH   1   4
ATOM      4  C   UNL     1       0.982  11.121  19.488  0.00  0.00    +0.000 C 
BRANCH   4  10
ATOM      5  C   UNL     1      -1.733  14.097  20.448  0.00  0.00    +0.000 C 
ATOM      6  N   UNL     1      -2.139  12.727  20.705  0.00  0.00    +0.000 N 
ATOM      7  C   UNL     1      -1.998  12.142  22.024  0.00  0.00    +0.000 C 
ATOM      8  C   UNL     1      -0.643  11.499  22.233  0.00  0.00    +0.000 C 
ATOM      9  C   UNL     1      -0.481  10.239  21.398  0.00  0.00    +0.000 C 
ATOM     10  N   UNL     1      -0.264  10.477  19.967  0.00  0.00    +0.000 N 
ATOM     11  C   UNL     1      -1.437  10.825  19.262  0.00  0.00    +0.000 A 
ATOM     12  C   UNL     1      -1.767  10.012  18.162  0.00  0.00    +0.000 A 
ATOM     13  C   UNL     1      -2.956  10.202  17.464  0.00  0.00    +0.000 A 
ATOM     14  F   UNL     1      -3.278   9.368  16.467  0.00  0.00    +0.000 F 
ATOM     15  C   UNL     1      -3.826  11.223  17.803  0.00  0.00    +0.000 A 
ATOM     16  C   UNL     1      -3.495  12.070  18.859  0.00  0.00    +0.000 A 
ATOM     17  C   UNL     1      -2.323  11.883  19.612  0.00  0.00    +0.000 A 
ENDBRANCH   4  10
ENDBRANCH   1   4
BRANCH   1  18
ATOM     18  C   UNL     1       1.671   8.661  19.075  0.00  0.00    +0.000 C 
BRANCH  18  19
ATOM     19  O   UNL     1       2.609   7.894  18.315  0.00  0.00    +0.000 OA
BRANCH  19  20
ATOM     20  C   UNL     1       2.840   6.573  18.790  0.00  0.00    +0.000 C 
BRANCH  20  21
ATOM     21  C   UNL     1       4.171   6.114  18.235  0.00  0.00    +0.000 A 
ATOM     22  C   UNL     1       5.070   5.371  19.043  0.00  0.00    +0.000 A 
ATOM     23  C   UNL     1       6.240   4.816  18.515  0.00  0.00    +0.000 A 
ATOM     24  C   UNL     1       6.481   5.012  17.176  0.00  0.00    +0.000 A 
ATOM     25  C   UNL     1       5.651   5.786  16.396  0.00  0.00    +0.000 A 
ATOM     26  C   UNL     1       4.511   6.379  16.900  0.00  0.00    +0.000 A 
ATOM     27  O   UNL     1       6.058   5.823  15.097  0.00  0.00    +0.000 OA
ATOM     28  C   UNL     1       7.054   4.780  15.122  0.00  0.00    +0.000 C 
ATOM     29  O   UNL     1       7.495   4.458  16.457  0.00  0.00    +0.000 OA
ENDBRANCH  20  21
ENDBRANCH  19  20
ENDBRANCH  18  19
ENDBRANCH   1  18
TORSDOF 7
ENDMDL
MODEL 7
REMARK VINA RESULT:      -7.3      5.553      8.539
REMARK  Name = 
REMARK  8 active torsions:
REMARK  status: ('A' for Active; 'I' for Inactive)
REMARK    1  A    between atoms: C_1  and  N_2
REMARK    2  A    between atoms: N_6  and  C_7
REMARK    3  A    between atoms: C_7  and  C_8
REMARK    4  A    between atoms: C_8  and  O_9
REMARK    5  A    between atoms: C_8  and  C_10
REMARK    6  A    between atoms: C_10  and  O_11
REMARK    7  A    between atoms: O_11  and  C_12
REMARK    8  A    between atoms: C_12  and  C_13
REMARK                            x       y       z     vdW  Elec       q    Type
REMARK                         _______ _______ _______ _____ _____    ______ ____
ROOT
ATOM      1  C   UNL     1       2.076  10.712  18.313  0.00  0.00    +0.000 C 
ENDROOT
BRANCH   1   2
ATOM      2  O   UNL     1       2.612  11.418  17.173  0.00  0.00    +0.000 OA
ATOM      3  H   UNL     1       2.031  12.176  17.000  0.00  0.00    +0.000 HD
ENDBRANCH   1   2
BRANCH   1   4
ATOM      4  C   UNL     1       0.923  11.524  18.968  0.00  0.00    +0.000 C 
BRANCH   4  10
ATOM      5  C   UNL     1      -1.996  14.008  20.535  0.00  0.00    +0.000 C 
ATOM      6  N   UNL     1      -2.207  12.578  20.669  0.00  0.00    +0.000 N 
ATOM      7  C   UNL     1      -1.849  11.883  21.890  0.00  0.00    +0.000 C 
ATOM      8  C   UNL     1      -0.413  11.403  21.887  0.00  0.00    +0.000 C 
ATOM      9  C   UNL     1      -0.200  10.267  20.898  0.00  0.00    +0.000 C 
ATOM     10  N   UNL     1      -0.176  10.678  19.491  0.00  0.00    +0.000 N 
ATOM     11  C   UNL     1      -1.454  10.943  18.951  0.00  0.00    +0.000 A 
ATOM     12  C   UNL     1      -1.809  10.212  17.802  0.00  0.00    +0.000 A 
ATOM     13  C   UNL     1      -3.083  10.318  17.253  0.00  0.00    +0.000 A 
ATOM     14  F   UNL     1      -3.416   9.557  16.202  0.00  0.00    +0.000 F 
ATOM     15  C   UNL     1      -4.023  11.177  17.794  0.00  0.00    +0.000 A 
ATOM     16  C   UNL     1      -3.677  11.946  18.903  0.00  0.00    +0.000 A 
ATOM     17  C   UNL     1      -2.413  11.835  19.509  0.00  0.00    +0.000 A 
ENDBRANCH   4  10
ENDBRANCH   1   4
BRANCH   1  18
ATOM     18  C   UNL     1       1.638   9.317  17.821  0.00  0.00    +0.000 C 
BRANCH  18  19
ATOM     19  O   UNL     1       2.376   8.359  18.584  0.00  0.00    +0.000 OA
BRANCH  19  20
ATOM     20  C   UNL     1       3.220   7.499  17.827  0.00  0.00    +0.000 C 
BRANCH  20  21
ATOM     21  C   UNL     1       3.195   6.137  18.487  0.00  0.00    +0.000 A 
ATOM     22  C   UNL     1       4.297   5.253  18.355  0.00  0.00    +0.000 A 
ATOM     23  C   UNL     1       4.360   4.051  19.067  0.00  0.00    +0.000 A 
ATOM     24  C   UNL     1       3.314   3.764  19.911  0.00  0.00    +0.000 A 
ATOM     25  C   UNL     1       2.210   4.582  20.000  0.00  0.00    +0.000 A 
ATOM     26  C   UNL     1       2.102   5.753  19.279  0.00  0.00    +0.000 A 
ATOM     27  O   UNL     1       1.309   4.128  20.915  0.00  0.00    +0.000 OA
ATOM     28  C   UNL     1       2.104   3.110  21.557  0.00  0.00    +0.000 C 
ATOM     29  O   UNL     1       3.246   2.712  20.771  0.00  0.00    +0.000 OA
ENDBRANCH  20  21
ENDBRANCH  19  20
ENDBRANCH  18  19
ENDBRANCH   1  18
TORSDOF 7
ENDMDL
MODEL 8
REMARK VINA RESULT:      -7.2      5.423      7.964
REMARK  Name = 
REMARK  8 active torsions:
REMARK  status: ('A' for Active; 'I' for Inactive)
REMARK    1  A    between atoms: C_1  and  N_2
REMARK    2  A    between atoms: N_6  and  C_7
REMARK    3  A    between atoms: C_7  and  C_8
REMARK    4  A    between atoms: C_8  and  O_9
REMARK    5  A    between atoms: C_8  and  C_10
REMARK    6  A    between atoms: C_10  and  O_11
REMARK    7  A    between atoms: O_11  and  C_12
REMARK    8  A    between atoms: C_12  and  C_13
REMARK                            x       y       z     vdW  Elec       q    Type
REMARK                         _______ _______ _______ _____ _____    ______ ____
ROOT
ATOM      1  C   UNL     1       2.046  10.150  18.701  0.00  0.00    +0.000 C 
ENDROOT
BRANCH   1   2
ATOM      2  O   UNL     1       1.864  10.284  17.275  0.00  0.00    +0.000 OA
ATOM      3  H   UNL     1       0.994  10.688  17.129  0.00  0.00    +0.000 HD
ENDBRANCH   1   2
BRANCH   1   4
ATOM      4  C   UNL     1       1.099  11.114  19.468  0.00  0.00    +0.000 C 
BRANCH   4  10
ATOM      5  C   UNL     1      -1.612  14.091  20.435  0.00  0.00    +0.000 C 
ATOM      6  N   UNL     1      -2.025  12.720  20.679  0.00  0.00    +0.000 N 
ATOM      7  C   UNL     1      -1.893  12.125  21.995  0.00  0.00    +0.000 C 
ATOM      8  C   UNL     1      -0.541  11.477  22.207  0.00  0.00    +0.000 C 
ATOM      9  C   UNL     1      -0.377  10.222  21.363  0.00  0.00    +0.000 C 
ATOM     10  N   UNL     1      -0.151  10.470  19.936  0.00  0.00    +0.000 N 
ATOM     11  C   UNL     1      -1.320  10.827  19.226  0.00  0.00    +0.000 A 
ATOM     12  C   UNL     1      -1.646  10.023  18.119  0.00  0.00    +0.000 A 
ATOM     13  C   UNL     1      -2.830  10.222  17.415  0.00  0.00    +0.000 A 
ATOM     14  F   UNL     1      -3.149   9.396  16.410  0.00  0.00    +0.000 F 
ATOM     15  C   UNL     1      -3.699  11.243  17.757  0.00  0.00    +0.000 A 
ATOM     16  C   UNL     1      -3.372  12.082  18.820  0.00  0.00    +0.000 A 
ATOM     17  C   UNL     1      -2.204  11.885  19.579  0.00  0.00    +0.000 A 
ENDBRANCH   4  10
ENDBRANCH   1   4
BRANCH   1  18
ATOM     18  C   UNL     1       1.821   8.664  19.052  0.00  0.00    +0.000 C 
BRANCH  18  19
ATOM     19  O   UNL     1       2.092   7.913  17.866  0.00  0.00    +0.000 OA
BRANCH  19  20
ATOM     20  C   UNL     1       3.407   7.376  17.775  0.00  0.00    +0.000 C 
BRANCH  20  21
ATOM     21  C   UNL     1       3.281   5.869  17.708  0.00  0.00    +0.000 A 
ATOM     22  C   UNL     1       4.382   5.072  17.303  0.00  0.00    +0.000 A 
ATOM     23  C   UNL     1       4.338   3.675  17.367  0.00  0.00    +0.000 A 
ATOM     24  C   UNL     1       3.185   3.104  17.848  0.00  0.00    +0.000 A 
ATOM     25  C   UNL     1       2.085   3.864  18.183  0.00  0.00    +0.000 A 
ATOM     26  C   UNL     1       2.087   5.240  18.092  0.00  0.00    +0.000 A 
ATOM     27  O   UNL     1       1.065   3.101  18.665  0.00  0.00    +0.000 OA
ATOM     28  C   UNL     1       1.756   1.847  18.839  0.00  0.00    +0.000 C 
ATOM     29  O   UNL     1       2.991   1.780  18.096  0.00  0.00    +0.000 OA
ENDBRANCH  20  21
ENDBRANCH  19  20
ENDBRANCH  18  19
ENDBRANCH   1  18
TORSDOF 7
ENDMDL
MODEL 9
REMARK VINA RESULT:      -7.2      4.618      7.196
REMARK  Name = 
REMARK  8 active torsions:
REMARK  status: ('A' for Active; 'I' for Inactive)
REMARK    1  A    between atoms: C_1  and  N_2
REMARK    2  A    between atoms: N_6  and  C_7
REMARK    3  A    between atoms: C_7  and  C_8
REMARK    4  A    between atoms: C_8  and  O_9
REMARK    5  A    between atoms: C_8  and  C_10
REMARK    6  A    between atoms: C_10  and  O_11
REMARK    7  A    between atoms: O_11  and  C_12
REMARK    8  A    between atoms: C_12  and  C_13
REMARK                            x       y       z     vdW  Elec       q    Type
REMARK                         _______ _______ _______ _____ _____    ______ ____
ROOT
ATOM      1  C   UNL     1       7.510   6.248  18.243  0.00  0.00    +0.000 C 
ENDROOT
BRANCH   1   2
ATOM      2  O   UNL     1       8.540   6.509  19.221  0.00  0.00    +0.000 OA
ATOM      3  H   UNL     1       8.165   6.320  20.096  0.00  0.00    +0.000 HD
ENDBRANCH   1   2
BRANCH   1   4
ATOM      4  C   UNL     1       6.313   5.500  18.893  0.00  0.00    +0.000 C 
BRANCH   4  10
ATOM      5  C   UNL     1       3.981   2.152  19.603  0.00  0.00    +0.000 C 
ATOM      6  N   UNL     1       3.456   3.135  18.673  0.00  0.00    +0.000 N 
ATOM      7  C   UNL     1       3.622   2.972  17.242  0.00  0.00    +0.000 C 
ATOM      8  C   UNL     1       4.916   3.573  16.735  0.00  0.00    +0.000 C 
ATOM      9  C   UNL     1       4.895   5.093  16.797  0.00  0.00    +0.000 C 
ATOM     10  N   UNL     1       5.042   5.651  18.145  0.00  0.00    +0.000 N 
ATOM     11  C   UNL     1       3.867   5.576  18.925  0.00  0.00    +0.000 A 
ATOM     12  C   UNL     1       3.385   6.793  19.444  0.00  0.00    +0.000 A 
ATOM     13  C   UNL     1       2.180   6.847  20.136  0.00  0.00    +0.000 A 
ATOM     14  F   UNL     1       1.711   8.029  20.557  0.00  0.00    +0.000 F 
ATOM     15  C   UNL     1       1.441   5.700  20.372  0.00  0.00    +0.000 A 
ATOM     16  C   UNL     1       1.924   4.478  19.909  0.00  0.00    +0.000 A 
ATOM     17  C   UNL     1       3.117   4.391  19.171  0.00  0.00    +0.000 A 
ENDBRANCH   4  10
ENDBRANCH   1   4
BRANCH   1  18
ATOM     18  C   UNL     1       7.118   7.605  17.621  0.00  0.00    +0.000 C 
BRANCH  18  19
ATOM     19  O   UNL     1       7.901   8.604  18.280  0.00  0.00    +0.000 OA
BRANCH  19  20
ATOM     20  C   UNL     1       8.359   9.664  17.449  0.00  0.00    +0.000 C 
BRANCH  20  21
ATOM     21  C   UNL     1       8.954  10.726  18.348  0.00  0.00    +0.000 A 
ATOM     22  C   UNL     1       9.412  10.393  19.649  0.00  0.00    +0.000 A 
ATOM     23  C   UNL     1      10.092  11.321  20.445  0.00  0.00    +0.000 A 
ATOM     24  C   UNL     1      10.308  12.569  19.911  0.00  0.00    +0.000 A 
ATOM     25  C   UNL     1       9.812  12.924  18.676  0.00  0.00    +0.000 A 
ATOM     26  C   UNL     1       9.103  12.042  17.887  0.00  0.00    +0.000 A 
ATOM     27  O   UNL     1      10.166  14.192  18.329  0.00  0.00    +0.000 OA
ATOM     28  C   UNL     1      11.145  14.463  19.353  0.00  0.00    +0.000 C 
ATOM     29  O   UNL     1      11.045  13.563  20.475  0.00  0.00    +0.000 OA
ENDBRANCH  20  21
ENDBRANCH  19  20
ENDBRANCH  18  19
ENDBRANCH   1  18
TORSDOF 7
ENDMDL
