MODEL 1
REMARK VINA RESULT:      -5.6      0.000      0.000
REMARK  Name = 
REMARK  7 active torsions:
REMARK  status: ('A' for Active; 'I' for Inactive)
REMARK    1  A    between atoms: C_1  and  N_2
REMARK    2  A    between atoms: N_2  and  C_3
REMARK    3  A    between atoms: C_3  and  C_4
REMARK    4  A    between atoms: C_3  and  C_5
REMARK    5  A    between atoms: C_5  and  O_6
REMARK    6  A    between atoms: C_5  and  C_7
REMARK    7  A    between atoms: C_10  and  O_11
REMARK                            x       y       z     vdW  Elec       q    Type
REMARK                         _______ _______ _______ _____ _____    ______ ____
ROOT
ATOM      1  C   UNL     1       5.326   6.482  16.874  0.00  0.00    +0.000 C 
ENDROOT
BRANCH   1   2
ATOM      2  C   UNL     1       4.205   5.519  17.231  0.00  0.00    +0.000 A 
ATOM      3  C   UNL     1       3.099   5.989  17.965  0.00  0.00    +0.000 A 
ATOM      4  C   UNL     1       2.032   5.145  18.281  0.00  0.00    +0.000 A 
ATOM      5  C   UNL     1       2.061   3.823  17.858  0.00  0.00    +0.000 A 
ATOM      6  C   UNL     1       3.144   3.332  17.140  0.00  0.00    +0.000 A 
ATOM      7  C   UNL     1       4.216   4.175  16.833  0.00  0.00    +0.000 A 
BRANCH   5   8
ATOM      8  O   UNL     1       1.034   2.966  18.128  0.00  0.00    +0.000 OA
ATOM      9  H   UNL     1       0.361   3.443  18.639  0.00  0.00    +0.000 HD
ENDBRANCH   5   8
ENDBRANCH   1   2
BRANCH   1  10
ATOM     10  C   UNL     1       6.777   6.004  17.204  0.00  0.00    +0.000 C 
ATOM     11  C   UNL     1       6.951   5.713  18.695  0.00  0.00    +0.000 C 
BRANCH  10  13
ATOM     12  C   UNL     1       7.793   8.208  17.629  0.00  0.00    +0.000 C 
ATOM     13  N   UNL     1       7.714   7.059  16.743  0.00  0.00    +0.000 NA
ATOM     14  H   UNL     1       8.639   6.621  16.659  0.00  0.00    +0.000 HD
ENDBRANCH  10  13
ENDBRANCH   1  10
BRANCH   1  15
ATOM     15  O   UNL     1       5.255   6.777  15.466  0.00  0.00    +0.000 OA
ATOM     16  H   UNL     1       5.907   6.219  15.014  0.00  0.00    +0.000 HD
ENDBRANCH   1  15
TORSDOF 5
ENDMDL
MODEL 2
REMARK VINA RESULT:      -5.6      2.926      5.639
REMARK  Name = 
REMARK  7 active torsions:
REMARK  status: ('A' for Active; 'I' for Inactive)
REMARK    1  A    between atoms: C_1  and  N_2
REMARK    2  A    between atoms: N_2  and  C_3
REMARK    3  A    between atoms: C_3  and  C_4
REMARK    4  A    between atoms: C_3  and  C_5
REMARK    5  A    between atoms: C_5  and  O_6
REMARK    6  A    between atoms: C_5  and  C_7
REMARK    7  A    between atoms: C_10  and  O_11
REMARK                            x       y       z     vdW  Elec       q    Type
REMARK                         _______ _______ _______ _____ _____    ______ ____
ROOT
ATOM      1  C   UNL     1       3.982   3.266  17.890  0.00  0.00    +0.000 C 
ENDROOT
BRANCH   1   2
ATOM      2  C   UNL     1       5.062   3.864  17.003  0.00  0.00    +0.000 A 
ATOM      3  C   UNL     1       4.981   3.693  15.608  0.00  0.00    +0.000 A 
ATOM      4  C   UNL     1       5.933   4.257  14.755  0.00  0.00    +0.000 A 
ATOM      5  C   UNL     1       6.971   5.006  15.294  0.00  0.00    +0.000 A 
ATOM      6  C   UNL     1       7.078   5.183  16.668  0.00  0.00    +0.000 A 
ATOM      7  C   UNL     1       6.130   4.610  17.521  0.00  0.00    +0.000 A 
BRANCH   5   8
ATOM      8  O   UNL     1       7.913   5.592  14.501  0.00  0.00    +0.000 OA
ATOM      9  H   UNL     1       8.756   5.607  14.982  0.00  0.00    +0.000 HD
ENDBRANCH   5   8
ENDBRANCH   1   2
BRANCH   1  10
ATOM     10  C   UNL     1       2.527   3.297  17.320  0.00  0.00    +0.000 C 
ATOM     11  C   UNL     1       1.797   4.584  17.708  0.00  0.00    +0.000 C 
BRANCH  10  13
ATOM     12  C   UNL     1       0.812   2.385  18.837  0.00  0.00    +0.000 C 
ATOM     13  N   UNL     1       1.819   2.096  17.829  0.00  0.00    +0.000 NA
ATOM     14  H   UNL     1       1.379   1.643  17.020  0.00  0.00    +0.000 HD
ENDBRANCH  10  13
ENDBRANCH   1  10
BRANCH   1  15
ATOM     15  O   UNL     1       4.325   1.897  18.183  0.00  0.00    +0.000 OA
ATOM     16  H   UNL     1       4.995   1.616  17.539  0.00  0.00    +0.000 HD
ENDBRANCH   1  15
TORSDOF 5
ENDMDL
MODEL 3
REMARK VINA RESULT:      -5.5      2.784      5.582
REMARK  Name = 
REMARK  7 active torsions:
REMARK  status: ('A' for Active; 'I' for Inactive)
REMARK    1  A    between atoms: C_1  and  N_2
REMARK    2  A    between atoms: N_2  and  C_3
REMARK    3  A    between atoms: C_3  and  C_4
REMARK    4  A    between atoms: C_3  and  C_5
REMARK    5  A    between atoms: C_5  and  O_6
REMARK    6  A    between atoms: C_5  and  C_7
REMARK    7  A    between atoms: C_10  and  O_11
REMARK                            x       y       z     vdW  Elec       q    Type
REMARK                         _______ _______ _______ _____ _____    ______ ____
ROOT
ATOM      1  C   UNL     1       3.803   3.289  18.376  0.00  0.00    +0.000 C 
ENDROOT
BRANCH   1   2
ATOM      2  C   UNL     1       4.887   4.232  17.881  0.00  0.00    +0.000 A 
ATOM      3  C   UNL     1       5.103   4.369  16.496  0.00  0.00    +0.000 A 
ATOM      4  C   UNL     1       6.064   5.252  15.999  0.00  0.00    +0.000 A 
ATOM      5  C   UNL     1       6.812   6.014  16.888  0.00  0.00    +0.000 A 
ATOM      6  C   UNL     1       6.624   5.892  18.259  0.00  0.00    +0.000 A 
ATOM      7  C   UNL     1       5.669   5.001  18.755  0.00  0.00    +0.000 A 
BRANCH   5   8
ATOM      8  O   UNL     1       7.749   6.903  16.449  0.00  0.00    +0.000 OA
ATOM      9  H   UNL     1       8.206   6.518  15.685  0.00  0.00    +0.000 HD
ENDBRANCH   5   8
ENDBRANCH   1   2
BRANCH   1  10
ATOM     10  C   UNL     1       2.487   3.249  17.533  0.00  0.00    +0.000 C 
ATOM     11  C   UNL     1       1.643   4.507  17.745  0.00  0.00    +0.000 C 
BRANCH  10  13
ATOM     12  C   UNL     1       0.708   2.250  18.915  0.00  0.00    +0.000 C 
ATOM     13  N   UNL     1       1.742   2.024  17.919  0.00  0.00    +0.000 NA
ATOM     14  H   UNL     1       1.321   1.648  17.062  0.00  0.00    +0.000 HD
ENDBRANCH  10  13
ENDBRANCH   1  10
BRANCH   1  15
ATOM     15  O   UNL     1       4.341   1.953  18.439  0.00  0.00    +0.000 OA
ATOM     16  H   UNL     1       3.599   1.342  18.577  0.00  0.00    +0.000 HD
ENDBRANCH   1  15
TORSDOF 5
ENDMDL
MODEL 4
REMARK VINA RESULT:      -5.5      1.694      2.043
REMARK  Name = 
REMARK  7 active torsions:
REMARK  status: ('A' for Active; 'I' for Inactive)
REMARK    1  A    between atoms: C_1  and  N_2
REMARK    2  A    between atoms: N_2  and  C_3
REMARK    3  A    between atoms: C_3  and  C_4
REMARK    4  A    between atoms: C_3  and  C_5
REMARK    5  A    between atoms: C_5  and  O_6
REMARK    6  A    between atoms: C_5  and  C_7
REMARK    7  A    between atoms: C_10  and  O_11
REMARK                            x       y       z     vdW  Elec       q    Type
REMARK                         _______ _______ _______ _____ _____    ______ ____
ROOT
ATOM      1  C   UNL     1       5.124   4.740  17.049  0.00  0.00    +0.000 C 
ENDROOT
BRANCH   1   2
ATOM      2  C   UNL     1       3.859   4.047  17.529  0.00  0.00    +0.000 A 
ATOM      3  C   UNL     1       2.701   4.813  17.765  0.00  0.00    +0.000 A 
ATOM      4  C   UNL     1       1.508   4.210  18.172  0.00  0.00    +0.000 A 
ATOM      5  C   UNL     1       1.464   2.831  18.338  0.00  0.00    +0.000 A 
ATOM      6  C   UNL     1       2.595   2.055  18.119  0.00  0.00    +0.000 A 
ATOM      7  C   UNL     1       3.790   2.660  17.721  0.00  0.00    +0.000 A 
BRANCH   5   8
ATOM      8  O   UNL     1       0.317   2.196  18.715  0.00  0.00    +0.000 OA
ATOM      9  H   UNL     1       0.312   1.309  18.322  0.00  0.00    +0.000 HD
ENDBRANCH   5   8
ENDBRANCH   1   2
BRANCH   1  10
ATOM     10  C   UNL     1       5.755   5.780  18.031  0.00  0.00    +0.000 C 
ATOM     11  C   UNL     1       6.606   6.812  17.290  0.00  0.00    +0.000 C 
BRANCH  10  13
ATOM     12  C   UNL     1       7.804   5.679  19.396  0.00  0.00    +0.000 C 
ATOM     13  N   UNL     1       6.558   5.028  19.028  0.00  0.00    +0.000 NA
ATOM     14  H   UNL     1       5.969   4.913  19.860  0.00  0.00    +0.000 HD
ENDBRANCH  10  13
ENDBRANCH   1  10
BRANCH   1  15
ATOM     15  O   UNL     1       6.117   3.740  16.748  0.00  0.00    +0.000 OA
ATOM     16  H   UNL     1       6.768   3.744  17.468  0.00  0.00    +0.000 HD
ENDBRANCH   1  15
TORSDOF 5
ENDMDL
MODEL 5
REMARK VINA RESULT:      -5.5      2.958      5.252
REMARK  Name = 
REMARK  7 active torsions:
REMARK  status: ('A' for Active; 'I' for Inactive)
REMARK    1  A    between atoms: C_1  and  N_2
REMARK    2  A    between atoms: N_2  and  C_3
REMARK    3  A    between atoms: C_3  and  C_4
REMARK    4  A    between atoms: C_3  and  C_5
REMARK    5  A    between atoms: C_5  and  O_6
REMARK    6  A    between atoms: C_5  and  C_7
REMARK    7  A    between atoms: C_10  and  O_11
REMARK                            x       y       z     vdW  Elec       q    Type
REMARK                         _______ _______ _______ _____ _____    ______ ____
ROOT
ATOM      1  C   UNL     1       4.548   3.830  19.173  0.00  0.00    +0.000 C 
ENDROOT
BRANCH   1   2
ATOM      2  C   UNL     1       5.327   4.263  17.942  0.00  0.00    +0.000 A 
ATOM      3  C   UNL     1       6.433   5.121  18.093  0.00  0.00    +0.000 A 
ATOM      4  C   UNL     1       7.198   5.513  16.992  0.00  0.00    +0.000 A 
ATOM      5  C   UNL     1       6.865   5.041  15.729  0.00  0.00    +0.000 A 
ATOM      6  C   UNL     1       5.773   4.199  15.552  0.00  0.00    +0.000 A 
ATOM      7  C   UNL     1       5.003   3.816  16.654  0.00  0.00    +0.000 A 
BRANCH   5   8
ATOM      8  O   UNL     1       7.593   5.381  14.627  0.00  0.00    +0.000 OA
ATOM      9  H   UNL     1       8.512   5.529  14.898  0.00  0.00    +0.000 HD
ENDBRANCH   5   8
ENDBRANCH   1   2
BRANCH   1  10
ATOM     10  C   UNL     1       3.007   3.644  18.983  0.00  0.00    +0.000 C 
ATOM     11  C   UNL     1       2.303   4.979  18.741  0.00  0.00    +0.000 C 
BRANCH  10  13
ATOM     12  C   UNL     1       2.088   3.871  21.258  0.00  0.00    +0.000 C 
ATOM     13  N   UNL     1       2.484   2.964  20.194  0.00  0.00    +0.000 NA
ATOM     14  H   UNL     1       1.676   2.405  19.898  0.00  0.00    +0.000 HD
ENDBRANCH  10  13
ENDBRANCH   1  10
BRANCH   1  15
ATOM     15  O   UNL     1       5.098   2.591  19.661  0.00  0.00    +0.000 OA
ATOM     16  H   UNL     1       6.003   2.768  19.963  0.00  0.00    +0.000 HD
ENDBRANCH   1  15
TORSDOF 5
ENDMDL
MODEL 6
REMARK VINA RESULT:      -5.5      1.688      2.410
REMARK  Name = 
REMARK  7 active torsions:
REMARK  status: ('A' for Active; 'I' for Inactive)
REMARK    1  A    between atoms: C_1  and  N_2
REMARK    2  A    between atoms: N_2  and  C_3
REMARK    3  A    between atoms: C_3  and  C_4
REMARK    4  A    between atoms: C_3  and  C_5
REMARK    5  A    between atoms: C_5  and  O_6
REMARK    6  A    between atoms: C_5  and  C_7
REMARK    7  A    between atoms: C_10  and  O_11
REMARK                            x       y       z     vdW  Elec       q    Type
REMARK                         _______ _______ _______ _____ _____    ______ ____
ROOT
ATOM      1  C   UNL     1       5.111   4.625  16.978  0.00  0.00    +0.000 C 
ENDROOT
BRANCH   1   2
ATOM      2  C   UNL     1       3.804   4.004  17.443  0.00  0.00    +0.000 A 
ATOM      3  C   UNL     1       3.739   2.614  17.656  0.00  0.00    +0.000 A 
ATOM      4  C   UNL     1       2.568   2.008  18.118  0.00  0.00    +0.000 A 
ATOM      5  C   UNL     1       1.452   2.794  18.377  0.00  0.00    +0.000 A 
ATOM      6  C   UNL     1       1.488   4.167  18.167  0.00  0.00    +0.000 A 
ATOM      7  C   UNL     1       2.658   4.770  17.696  0.00  0.00    +0.000 A 
BRANCH   5   8
ATOM      8  O   UNL     1       0.292   2.251  18.847  0.00  0.00    +0.000 OA
ATOM      9  H   UNL     1       0.499   1.708  19.624  0.00  0.00    +0.000 HD
ENDBRANCH   5   8
ENDBRANCH   1   2
BRANCH   1  10
ATOM     10  C   UNL     1       5.806   5.600  17.983  0.00  0.00    +0.000 C 
ATOM     11  C   UNL     1       6.327   6.855  17.283  0.00  0.00    +0.000 C 
BRANCH  10  13
ATOM     12  C   UNL     1       7.848   5.699  19.359  0.00  0.00    +0.000 C 
ATOM     13  N   UNL     1       6.903   4.853  18.648  0.00  0.00    +0.000 NA
ATOM     14  H   UNL     1       6.464   4.198  19.304  0.00  0.00    +0.000 HD
ENDBRANCH  10  13
ENDBRANCH   1  10
BRANCH   1  15
ATOM     15  O   UNL     1       6.038   3.571  16.654  0.00  0.00    +0.000 OA
ATOM     16  H   UNL     1       6.313   3.693  15.731  0.00  0.00    +0.000 HD
ENDBRANCH   1  15
TORSDOF 5
ENDMDL
MODEL 7
REMARK VINA RESULT:      -5.5      1.955      2.657
REMARK  Name = 
REMARK  7 active torsions:
REMARK  status: ('A' for Active; 'I' for Inactive)
REMARK    1  A    between atoms: C_1  and  N_2
REMARK    2  A    between atoms: N_2  and  C_3
REMARK    3  A    between atoms: C_3  and  C_4
REMARK    4  A    between atoms: C_3  and  C_5
REMARK    5  A    between atoms: C_5  and  O_6
REMARK    6  A    between atoms: C_5  and  C_7
REMARK    7  A    between atoms: C_10  and  O_11
REMARK                            x       y       z     vdW  Elec       q    Type
REMARK                         _______ _______ _______ _____ _____    ______ ____
ROOT
ATOM      1  C   UNL     1       5.645   4.510  17.466  0.00  0.00    +0.000 C 
ENDROOT
BRANCH   1   2
ATOM      2  C   UNL     1       4.299   4.427  18.167  0.00  0.00    +0.000 A 
ATOM      3  C   UNL     1       3.222   3.794  17.517  0.00  0.00    +0.000 A 
ATOM      4  C   UNL     1       1.979   3.664  18.141  0.00  0.00    +0.000 A 
ATOM      5  C   UNL     1       1.808   4.161  19.427  0.00  0.00    +0.000 A 
ATOM      6  C   UNL     1       2.853   4.796  20.087  0.00  0.00    +0.000 A 
ATOM      7  C   UNL     1       4.093   4.934  19.457  0.00  0.00    +0.000 A 
BRANCH   5   8
ATOM      8  O   UNL     1       0.618   4.041  20.084  0.00  0.00    +0.000 OA
ATOM      9  H   UNL     1       0.288   4.930  20.288  0.00  0.00    +0.000 HD
ENDBRANCH   5   8
ENDBRANCH   1   2
BRANCH   1  10
ATOM     10  C   UNL     1       6.063   5.922  16.941  0.00  0.00    +0.000 C 
ATOM     11  C   UNL     1       4.891   6.648  16.280  0.00  0.00    +0.000 C 
BRANCH  10  13
ATOM     12  C   UNL     1       6.968   4.693  15.006  0.00  0.00    +0.000 C 
ATOM     13  N   UNL     1       7.191   5.735  15.994  0.00  0.00    +0.000 NA
ATOM     14  H   UNL     1       7.337   6.635  15.522  0.00  0.00    +0.000 HD
ENDBRANCH  10  13
ENDBRANCH   1  10
BRANCH   1  15
ATOM     15  O   UNL     1       6.669   4.039  18.364  0.00  0.00    +0.000 OA
ATOM     16  H   UNL     1       7.253   3.448  17.863  0.00  0.00    +0.000 HD
ENDBRANCH   1  15
TORSDOF 5
ENDMDL
MODEL 8
REMARK VINA RESULT:      -5.5      2.726      3.550
REMARK  Name = 
REMARK  7 active torsions:
REMARK  status: ('A' for Active; 'I' for Inactive)
REMARK    1  A    between atoms: C_1  and  N_2
REMARK    2  A    between atoms: N_2  and  C_3
REMARK    3  A    between atoms: C_3  and  C_4
REMARK    4  A    between atoms: C_3  and  C_5
REMARK    5  A    between atoms: C_5  and  O_6
REMARK    6  A    between atoms: C_5  and  C_7
REMARK    7  A    between atoms: C_10  and  O_11
REMARK                            x       y       z     vdW  Elec       q    Type
REMARK                         _______ _______ _______ _____ _____    ______ ____
ROOT
ATOM      1  C   UNL     1       4.001   3.750  17.760  0.00  0.00    +0.000 C 
ENDROOT
BRANCH   1   2
ATOM      2  C   UNL     1       3.139   3.413  18.966  0.00  0.00    +0.000 A 
ATOM      3  C   UNL     1       3.725   2.777  20.076  0.00  0.00    +0.000 A 
ATOM      4  C   UNL     1       2.976   2.483  21.218  0.00  0.00    +0.000 A 
ATOM      5  C   UNL     1       1.633   2.832  21.259  0.00  0.00    +0.000 A 
ATOM      6  C   UNL     1       1.028   3.454  20.174  0.00  0.00    +0.000 A 
ATOM      7  C   UNL     1       1.777   3.739  19.028  0.00  0.00    +0.000 A 
BRANCH   5   8
ATOM      8  O   UNL     1       0.866   2.582  22.360  0.00  0.00    +0.000 OA
ATOM      9  H   UNL     1       0.500   3.423  22.678  0.00  0.00    +0.000 HD
ENDBRANCH   5   8
ENDBRANCH   1   2
BRANCH   1  10
ATOM     10  C   UNL     1       5.114   4.823  17.987  0.00  0.00    +0.000 C 
ATOM     11  C   UNL     1       5.252   5.758  16.785  0.00  0.00    +0.000 C 
BRANCH  10  13
ATOM     12  C   UNL     1       7.555   4.718  17.664  0.00  0.00    +0.000 C 
ATOM     13  N   UNL     1       6.383   4.104  18.265  0.00  0.00    +0.000 NA
ATOM     14  H   UNL     1       6.492   4.073  19.285  0.00  0.00    +0.000 HD
ENDBRANCH  10  13
ENDBRANCH   1  10
BRANCH   1  15
ATOM     15  O   UNL     1       4.625   2.543  17.282  0.00  0.00    +0.000 OA
ATOM     16  H   UNL     1       4.833   1.992  18.054  0.00  0.00    +0.000 HD
ENDBRANCH   1  15
TORSDOF 5
ENDMDL
MODEL 9
REMARK VINA RESULT:      -5.5      3.082      5.164
REMARK  Name = 
REMARK  7 active torsions:
REMARK  status: ('A' for Active; 'I' for Inactive)
REMARK    1  A    between atoms: C_1  and  N_2
REMARK    2  A    between atoms: N_2  and  C_3
REMARK    3  A    between atoms: C_3  and  C_4
REMARK    4  A    between atoms: C_3  and  C_5
REMARK    5  A    between atoms: C_5  and  O_6
REMARK    6  A    between atoms: C_5  and  C_7
REMARK    7  A    between atoms: C_10  and  O_11
REMARK                            x       y       z     vdW  Elec       q    Type
REMARK                         _______ _______ _______ _____ _____    ______ ____
ROOT
ATOM      1  C   UNL     1       3.799   3.346  19.428  0.00  0.00    +0.000 C 
ENDROOT
BRANCH   1   2
ATOM      2  C   UNL     1       4.206   4.252  18.278  0.00  0.00    +0.000 A 
ATOM      3  C   UNL     1       4.190   5.648  18.462  0.00  0.00    +0.000 A 
ATOM      4  C   UNL     1       4.592   6.514  17.442  0.00  0.00    +0.000 A 
ATOM      5  C   UNL     1       5.022   5.987  16.231  0.00  0.00    +0.000 A 
ATOM      6  C   UNL     1       5.040   4.614  16.022  0.00  0.00    +0.000 A 
ATOM      7  C   UNL     1       4.628   3.749  17.040  0.00  0.00    +0.000 A 
BRANCH   5   8
ATOM      8  O   UNL     1       5.441   6.793  15.213  0.00  0.00    +0.000 OA
ATOM      9  H   UNL     1       4.904   6.602  14.428  0.00  0.00    +0.000 HD
ENDBRANCH   5   8
ENDBRANCH   1   2
BRANCH   1  10
ATOM     10  C   UNL     1       2.426   2.614  19.277  0.00  0.00    +0.000 C 
ATOM     11  C   UNL     1       1.443   3.427  18.433  0.00  0.00    +0.000 C 
BRANCH  10  13
ATOM     12  C   UNL     1       2.051   3.487  21.550  0.00  0.00    +0.000 C 
ATOM     13  N   UNL     1       1.895   2.365  20.640  0.00  0.00    +0.000 NA
ATOM     14  H   UNL     1       0.900   2.138  20.537  0.00  0.00    +0.000 HD
ENDBRANCH  10  13
ENDBRANCH   1  10
BRANCH   1  15
ATOM     15  O   UNL     1       4.823   2.351  19.623  0.00  0.00    +0.000 OA
ATOM     16  H   UNL     1       5.584   2.788  20.039  0.00  0.00    +0.000 HD
ENDBRANCH   1  15
TORSDOF 5
ENDMDL
