MODEL 1
REMARK VINA RESULT:      -7.1      0.000      0.000
REMARK  Name = 
REMARK  7 active torsions:
REMARK  status: ('A' for Active; 'I' for Inactive)
REMARK    1  A    between atoms: C_1  and  C_2
REMARK    2  A    between atoms: C_2  and  O_3
REMARK    3  A    between atoms: C_4  and  N_5
REMARK    4  A    between atoms: N_10  and  O_11
REMARK    5  A    between atoms: C_17  and  C_18
REMARK    6  A    between atoms: C_18  and  O_19
REMARK    7  A    between atoms: C_20  and  O_21
REMARK                            x       y       z     vdW  Elec       q    Type
REMARK                         _______ _______ _______ _____ _____    ______ ____
ROOT
ATOM      1  C   UNL     1       3.538   3.122  21.013  0.00  0.00    +0.000 C 
ATOM      2  C   UNL     1       3.923   2.816  19.561  0.00  0.00    +0.000 C 
ATOM      3  C   UNL     1       3.572   3.994  18.635  0.00  0.00    +0.000 C 
ATOM      4  O   UNL     1       2.187   3.805  18.265  0.00  0.00    +0.000 OA
ATOM      5  C   UNL     1       1.891   2.384  18.312  0.00  0.00    +0.000 C 
ATOM      6  C   UNL     1       3.061   1.676  19.006  0.00  0.00    +0.000 C 
ENDROOT
BRANCH   3   7
ATOM      7  N   UNL     1       4.419   4.136  17.454  0.00  0.00    +0.000 N 
ATOM      8  C   UNL     1       4.259   3.408  16.297  0.00  0.00    +0.000 A 
ATOM      9  N   UNL     1       5.124   3.750  15.364  0.00  0.00    +0.000 NA
ATOM     10  C   UNL     1       5.879   4.750  15.935  0.00  0.00    +0.000 A 
ATOM     11  C   UNL     1       6.942   5.539  15.456  0.00  0.00    +0.000 A 
ATOM     12  N   UNL     1       7.432   5.450  14.149  0.00  0.00    +0.000 N 
ATOM     13  N   UNL     1       7.521   6.436  16.302  0.00  0.00    +0.000 NA
ATOM     14  C   UNL     1       7.024   6.560  17.540  0.00  0.00    +0.000 A 
ATOM     15  N   UNL     1       5.971   5.915  18.066  0.00  0.00    +0.000 NA
ATOM     16  C   UNL     1       5.461   4.991  17.233  0.00  0.00    +0.000 A 
ATOM     17  H   UNL     1       7.160   4.585  13.684  0.00  0.00    +0.000 HD
BRANCH  12  18
ATOM     18  O   UNL     1       8.744   5.871  13.903  0.00  0.00    +0.000 OA
ATOM     19  H   UNL     1       8.769   6.753  14.334  0.00  0.00    +0.000 HD
ENDBRANCH  12  18
ENDBRANCH   3   7
BRANCH   2  20
ATOM     20  O   UNL     1       5.316   2.491  19.570  0.00  0.00    +0.000 OA
ATOM     21  H   UNL     1       5.535   2.261  20.499  0.00  0.00    +0.000 HD
ENDBRANCH   2  20
BRANCH   6  22
ATOM     22  O   UNL     1       3.862   0.918  18.088  0.00  0.00    +0.000 OA
ATOM     23  H   UNL     1       3.992   0.016  18.448  0.00  0.00    +0.000 HD
ENDBRANCH   6  22
BRANCH   5  24
ATOM     24  C   UNL     1       0.527   2.165  18.961  0.00  0.00    +0.000 C 
BRANCH  24  25
ATOM     25  O   UNL     1       0.363   3.089  20.039  0.00  0.00    +0.000 OA
ATOM     26  H   UNL     1      -0.512   2.905  20.432  0.00  0.00    +0.000 HD
ENDBRANCH  24  25
ENDBRANCH   5  24
TORSDOF 6
ENDMDL
MODEL 2
REMARK VINA RESULT:      -7.0      0.959      1.918
REMARK  Name = 
REMARK  7 active torsions:
REMARK  status: ('A' for Active; 'I' for Inactive)
REMARK    1  A    between atoms: C_1  and  C_2
REMARK    2  A    between atoms: C_2  and  O_3
REMARK    3  A    between atoms: C_4  and  N_5
REMARK    4  A    between atoms: N_10  and  O_11
REMARK    5  A    between atoms: C_17  and  C_18
REMARK    6  A    between atoms: C_18  and  O_19
REMARK    7  A    between atoms: C_20  and  O_21
REMARK                            x       y       z     vdW  Elec       q    Type
REMARK                         _______ _______ _______ _____ _____    ______ ____
ROOT
ATOM      1  C   UNL     1       3.169   2.473  21.432  0.00  0.00    +0.000 C 
ATOM      2  C   UNL     1       3.835   2.634  20.061  0.00  0.00    +0.000 C 
ATOM      3  C   UNL     1       3.777   4.097  19.585  0.00  0.00    +0.000 C 
ATOM      4  O   UNL     1       2.494   4.249  18.935  0.00  0.00    +0.000 OA
ATOM      5  C   UNL     1       2.095   2.957  18.404  0.00  0.00    +0.000 C 
ATOM      6  C   UNL     1       3.036   1.893  18.984  0.00  0.00    +0.000 C 
ENDROOT
BRANCH   3   7
ATOM      7  N   UNL     1       4.867   4.515  18.708  0.00  0.00    +0.000 N 
ATOM      8  C   UNL     1       6.028   5.109  19.149  0.00  0.00    +0.000 A 
ATOM      9  N   UNL     1       6.870   5.355  18.168  0.00  0.00    +0.000 NA
ATOM     10  C   UNL     1       6.235   4.895  17.036  0.00  0.00    +0.000 A 
ATOM     11  C   UNL     1       6.611   4.848  15.680  0.00  0.00    +0.000 A 
ATOM     12  N   UNL     1       7.861   5.273  15.217  0.00  0.00    +0.000 N 
ATOM     13  N   UNL     1       5.719   4.361  14.773  0.00  0.00    +0.000 NA
ATOM     14  C   UNL     1       4.539   3.907  15.217  0.00  0.00    +0.000 A 
ATOM     15  N   UNL     1       4.117   3.838  16.489  0.00  0.00    +0.000 NA
ATOM     16  C   UNL     1       4.988   4.384  17.355  0.00  0.00    +0.000 A 
ATOM     17  H   UNL     1       8.343   5.875  15.882  0.00  0.00    +0.000 HD
BRANCH  12  18
ATOM     18  O   UNL     1       7.976   5.653  13.875  0.00  0.00    +0.000 OA
ATOM     19  H   UNL     1       7.119   5.360  13.496  0.00  0.00    +0.000 HD
ENDBRANCH  12  18
ENDBRANCH   3   7
BRANCH   2  20
ATOM     20  O   UNL     1       5.167   2.129  20.195  0.00  0.00    +0.000 OA
ATOM     21  H   UNL     1       5.403   1.750  19.321  0.00  0.00    +0.000 HD
ENDBRANCH   2  20
BRANCH   6  22
ATOM     22  O   UNL     1       3.960   1.391  18.008  0.00  0.00    +0.000 OA
ATOM     23  H   UNL     1       4.672   0.900  18.467  0.00  0.00    +0.000 HD
ENDBRANCH   6  22
BRANCH   5  24
ATOM     24  C   UNL     1       0.612   2.726  18.677  0.00  0.00    +0.000 C 
BRANCH  24  25
ATOM     25  O   UNL     1       0.299   3.176  19.997  0.00  0.00    +0.000 OA
ATOM     26  H   UNL     1       0.535   2.446  20.602  0.00  0.00    +0.000 HD
ENDBRANCH  24  25
ENDBRANCH   5  24
TORSDOF 6
ENDMDL
MODEL 3
REMARK VINA RESULT:      -7.0      2.718      6.262
REMARK  Name = 
REMARK  7 active torsions:
REMARK  status: ('A' for Active; 'I' for Inactive)
REMARK    1  A    between atoms: C_1  and  C_2
REMARK    2  A    between atoms: C_2  and  O_3
REMARK    3  A    between atoms: C_4  and  N_5
REMARK    4  A    between atoms: N_10  and  O_11
REMARK    5  A    between atoms: C_17  and  C_18
REMARK    6  A    between atoms: C_18  and  O_19
REMARK    7  A    between atoms: C_20  and  O_21
REMARK                            x       y       z     vdW  Elec       q    Type
REMARK                         _______ _______ _______ _____ _____    ______ ____
ROOT
ATOM      1  C   UNL     1       6.081   5.192  14.810  0.00  0.00    +0.000 C 
ATOM      2  C   UNL     1       6.012   4.641  16.239  0.00  0.00    +0.000 C 
ATOM      3  C   UNL     1       4.807   5.224  16.999  0.00  0.00    +0.000 C 
ATOM      4  O   UNL     1       5.259   6.483  17.549  0.00  0.00    +0.000 OA
ATOM      5  C   UNL     1       6.694   6.399  17.763  0.00  0.00    +0.000 C 
ATOM      6  C   UNL     1       7.206   5.134  17.062  0.00  0.00    +0.000 C 
ENDROOT
BRANCH   3   7
ATOM      7  N   UNL     1       4.247   4.365  18.038  0.00  0.00    +0.000 N 
ATOM      8  C   UNL     1       4.532   3.024  18.168  0.00  0.00    +0.000 A 
ATOM      9  N   UNL     1       3.933   2.481  19.207  0.00  0.00    +0.000 NA
ATOM     10  C   UNL     1       3.229   3.514  19.786  0.00  0.00    +0.000 A 
ATOM     11  C   UNL     1       2.410   3.591  20.928  0.00  0.00    +0.000 A 
ATOM     12  N   UNL     1       2.187   2.509  21.786  0.00  0.00    +0.000 N 
ATOM     13  N   UNL     1       1.806   4.777  21.218  0.00  0.00    +0.000 NA
ATOM     14  C   UNL     1       2.054   5.831  20.427  0.00  0.00    +0.000 A 
ATOM     15  N   UNL     1       2.874   5.880  19.366  0.00  0.00    +0.000 NA
ATOM     16  C   UNL     1       3.405   4.683  19.065  0.00  0.00    +0.000 A 
ATOM     17  H   UNL     1       2.422   1.614  21.359  0.00  0.00    +0.000 HD
BRANCH  12  18
ATOM     18  O   UNL     1       1.027   2.510  22.568  0.00  0.00    +0.000 OA
ATOM     19  H   UNL     1       0.909   1.558  22.776  0.00  0.00    +0.000 HD
ENDBRANCH  12  18
ENDBRANCH   3   7
BRANCH   2  20
ATOM     20  O   UNL     1       5.981   3.216  16.123  0.00  0.00    +0.000 OA
ATOM     21  H   UNL     1       6.419   2.868  16.929  0.00  0.00    +0.000 HD
ENDBRANCH   2  20
BRANCH   6  22
ATOM     22  O   UNL     1       7.564   4.102  17.993  0.00  0.00    +0.000 OA
ATOM     23  H   UNL     1       7.936   3.343  17.498  0.00  0.00    +0.000 HD
ENDBRANCH   6  22
BRANCH   5  24
ATOM     24  C   UNL     1       7.356   7.699  17.316  0.00  0.00    +0.000 C 
BRANCH  24  25
ATOM     25  O   UNL     1       8.320   8.099  18.292  0.00  0.00    +0.000 OA
ATOM     26  H   UNL     1       7.881   8.026  19.162  0.00  0.00    +0.000 HD
ENDBRANCH  24  25
ENDBRANCH   5  24
TORSDOF 6
ENDMDL
MODEL 4
REMARK VINA RESULT:      -7.0      1.672      2.143
REMARK  Name = 
REMARK  7 active torsions:
REMARK  status: ('A' for Active; 'I' for Inactive)
REMARK    1  A    between atoms: C_1  and  C_2
REMARK    2  A    between atoms: C_2  and  O_3
REMARK    3  A    between atoms: C_4  and  N_5
REMARK    4  A    between atoms: N_10  and  O_11
REMARK    5  A    between atoms: C_17  and  C_18
REMARK    6  A    between atoms: C_18  and  O_19
REMARK    7  A    between atoms: C_20  and  O_21
REMARK                            x       y       z     vdW  Elec       q    Type
REMARK                         _______ _______ _______ _____ _____    ______ ____
ROOT
ATOM      1  C   UNL     1       2.785   2.630  20.966  0.00  0.00    +0.000 C 
ATOM      2  C   UNL     1       2.914   3.185  19.543  0.00  0.00    +0.000 C 
ATOM      3  C   UNL     1       4.121   4.133  19.426  0.00  0.00    +0.000 C 
ATOM      4  O   UNL     1       3.644   5.432  19.846  0.00  0.00    +0.000 OA
ATOM      5  C   UNL     1       2.220   5.508  19.567  0.00  0.00    +0.000 C 
ATOM      6  C   UNL     1       1.729   4.098  19.213  0.00  0.00    +0.000 C 
ENDROOT
BRANCH   3   7
ATOM      7  N   UNL     1       4.740   4.198  18.105  0.00  0.00    +0.000 N 
ATOM      8  C   UNL     1       4.374   3.405  17.041  0.00  0.00    +0.000 A 
ATOM      9  N   UNL     1       5.056   3.683  15.949  0.00  0.00    +0.000 NA
ATOM     10  C   UNL     1       5.899   4.709  16.313  0.00  0.00    +0.000 A 
ATOM     11  C   UNL     1       6.856   5.458  15.604  0.00  0.00    +0.000 A 
ATOM     12  N   UNL     1       7.102   5.289  14.238  0.00  0.00    +0.000 N 
ATOM     13  N   UNL     1       7.578   6.398  16.276  0.00  0.00    +0.000 NA
ATOM     14  C   UNL     1       7.312   6.600  17.575  0.00  0.00    +0.000 A 
ATOM     15  N   UNL     1       6.373   5.996  18.319  0.00  0.00    +0.000 NA
ATOM     16  C   UNL     1       5.723   5.029  17.649  0.00  0.00    +0.000 A 
ATOM     17  H   UNL     1       6.752   4.401  13.882  0.00  0.00    +0.000 HD
BRANCH  12  18
ATOM     18  O   UNL     1       8.347   5.683  13.734  0.00  0.00    +0.000 OA
ATOM     19  H   UNL     1       8.775   6.091  14.518  0.00  0.00    +0.000 HD
ENDBRANCH  12  18
ENDBRANCH   3   7
BRANCH   2  20
ATOM     20  O   UNL     1       2.989   2.053  18.673  0.00  0.00    +0.000 OA
ATOM     21  H   UNL     1       2.921   2.407  17.760  0.00  0.00    +0.000 HD
ENDBRANCH   2  20
BRANCH   6  22
ATOM     22  O   UNL     1       1.433   3.959  17.816  0.00  0.00    +0.000 OA
ATOM     23  H   UNL     1       0.826   3.201  17.693  0.00  0.00    +0.000 HD
ENDBRANCH   6  22
BRANCH   5  24
ATOM     24  C   UNL     1       1.503   6.165  20.742  0.00  0.00    +0.000 C 
BRANCH  24  25
ATOM     25  O   UNL     1       1.952   7.516  20.875  0.00  0.00    +0.000 OA
ATOM     26  H   UNL     1       1.685   7.811  21.768  0.00  0.00    +0.000 HD
ENDBRANCH  24  25
ENDBRANCH   5  24
TORSDOF 6
ENDMDL
MODEL 5
REMARK VINA RESULT:      -6.9      1.056      1.058
REMARK  Name = 
REMARK  7 active torsions:
REMARK  status: ('A' for Active; 'I' for Inactive)
REMARK    1  A    between atoms: C_1  and  C_2
REMARK    2  A    between atoms: C_2  and  O_3
REMARK    3  A    between atoms: C_4  and  N_5
REMARK    4  A    between atoms: N_10  and  O_11
REMARK    5  A    between atoms: C_17  and  C_18
REMARK    6  A    between atoms: C_18  and  O_19
REMARK    7  A    between atoms: C_20  and  O_21
REMARK                            x       y       z     vdW  Elec       q    Type
REMARK                         _______ _______ _______ _____ _____    ______ ____
ROOT
ATOM      1  C   UNL     1       3.825   2.113  21.232  0.00  0.00    +0.000 C 
ATOM      2  C   UNL     1       3.776   2.366  19.721  0.00  0.00    +0.000 C 
ATOM      3  C   UNL     1       4.187   3.811  19.388  0.00  0.00    +0.000 C 
ATOM      4  O   UNL     1       2.985   4.604  19.519  0.00  0.00    +0.000 OA
ATOM      5  C   UNL     1       1.842   3.749  19.245  0.00  0.00    +0.000 C 
ATOM      6  C   UNL     1       2.333   2.296  19.211  0.00  0.00    +0.000 C 
ENDROOT
BRANCH   3   7
ATOM      7  N   UNL     1       4.805   4.001  18.079  0.00  0.00    +0.000 N 
ATOM      8  C   UNL     1       4.397   3.358  16.933  0.00  0.00    +0.000 A 
ATOM      9  N   UNL     1       5.089   3.728  15.875  0.00  0.00    +0.000 NA
ATOM     10  C   UNL     1       5.984   4.661  16.350  0.00  0.00    +0.000 A 
ATOM     11  C   UNL     1       6.975   5.440  15.725  0.00  0.00    +0.000 A 
ATOM     12  N   UNL     1       7.209   5.420  14.346  0.00  0.00    +0.000 N 
ATOM     13  N   UNL     1       7.745   6.257  16.496  0.00  0.00    +0.000 NA
ATOM     14  C   UNL     1       7.494   6.318  17.812  0.00  0.00    +0.000 A 
ATOM     15  N   UNL     1       6.528   5.677  18.488  0.00  0.00    +0.000 NA
ATOM     16  C   UNL     1       5.827   4.830  17.715  0.00  0.00    +0.000 A 
ATOM     17  H   UNL     1       6.813   4.598  13.891  0.00  0.00    +0.000 HD
BRANCH  12  18
ATOM     18  O   UNL     1       8.471   5.808  13.881  0.00  0.00    +0.000 OA
ATOM     19  H   UNL     1       8.791   4.997  13.430  0.00  0.00    +0.000 HD
ENDBRANCH  12  18
ENDBRANCH   3   7
BRANCH   2  20
ATOM     20  O   UNL     1       4.616   1.379  19.118  0.00  0.00    +0.000 OA
ATOM     21  H   UNL     1       4.014   0.741  18.678  0.00  0.00    +0.000 HD
ENDBRANCH   2  20
BRANCH   6  22
ATOM     22  O   UNL     1       2.355   1.758  17.881  0.00  0.00    +0.000 OA
ATOM     23  H   UNL     1       2.910   0.952  17.873  0.00  0.00    +0.000 HD
ENDBRANCH   6  22
BRANCH   5  24
ATOM     24  C   UNL     1       0.735   4.034  20.255  0.00  0.00    +0.000 C 
BRANCH  24  25
ATOM     25  O   UNL     1       0.608   2.922  21.144  0.00  0.00    +0.000 OA
ATOM     26  H   UNL     1       0.634   3.286  22.050  0.00  0.00    +0.000 HD
ENDBRANCH  24  25
ENDBRANCH   5  24
TORSDOF 6
ENDMDL
MODEL 6
REMARK VINA RESULT:      -6.8      4.320      5.474
REMARK  Name = 
REMARK  7 active torsions:
REMARK  status: ('A' for Active; 'I' for Inactive)
REMARK    1  A    between atoms: C_1  and  C_2
REMARK    2  A    between atoms: C_2  and  O_3
REMARK    3  A    between atoms: C_4  and  N_5
REMARK    4  A    between atoms: N_10  and  O_11
REMARK    5  A    between atoms: C_17  and  C_18
REMARK    6  A    between atoms: C_18  and  O_19
REMARK    7  A    between atoms: C_20  and  O_21
REMARK                            x       y       z     vdW  Elec       q    Type
REMARK                         _______ _______ _______ _____ _____    ______ ____
ROOT
ATOM      1  C   UNL     1       4.469   3.242  19.291  0.00  0.00    +0.000 C 
ATOM      2  C   UNL     1       3.416   4.233  18.783  0.00  0.00    +0.000 C 
ATOM      3  C   UNL     1       3.267   5.425  19.745  0.00  0.00    +0.000 C 
ATOM      4  O   UNL     1       2.323   5.001  20.755  0.00  0.00    +0.000 OA
ATOM      5  C   UNL     1       1.436   4.013  20.165  0.00  0.00    +0.000 C 
ATOM      6  C   UNL     1       2.022   3.597  18.810  0.00  0.00    +0.000 C 
ENDROOT
BRANCH   3   7
ATOM      7  N   UNL     1       2.852   6.681  19.128  0.00  0.00    +0.000 N 
ATOM      8  C   UNL     1       3.200   7.067  17.853  0.00  0.00    +0.000 A 
ATOM      9  N   UNL     1       2.668   8.223  17.515  0.00  0.00    +0.000 NA
ATOM     10  C   UNL     1       1.934   8.608  18.615  0.00  0.00    +0.000 A 
ATOM     11  C   UNL     1       1.122   9.725  18.880  0.00  0.00    +0.000 A 
ATOM     12  N   UNL     1       0.865  10.726  17.937  0.00  0.00    +0.000 N 
ATOM     13  N   UNL     1       0.554   9.841  20.113  0.00  0.00    +0.000 NA
ATOM     14  C   UNL     1       0.757   8.861  21.005  0.00  0.00    +0.000 A 
ATOM     15  N   UNL     1       1.447   7.725  20.825  0.00  0.00    +0.000 NA
ATOM     16  C   UNL     1       2.050   7.667  19.626  0.00  0.00    +0.000 A 
ATOM     17  H   UNL     1       1.535  10.726  17.170  0.00  0.00    +0.000 HD
BRANCH  12  18
ATOM     18  O   UNL     1       0.489  11.993  18.399  0.00  0.00    +0.000 OA
ATOM     19  H   UNL     1       0.606  11.908  19.370  0.00  0.00    +0.000 HD
ENDBRANCH  12  18
ENDBRANCH   3   7
BRANCH   2  20
ATOM     20  O   UNL     1       3.817   4.610  17.463  0.00  0.00    +0.000 OA
ATOM     21  H   UNL     1       4.568   5.232  17.574  0.00  0.00    +0.000 HD
ENDBRANCH   2  20
BRANCH   6  22
ATOM     22  O   UNL     1       1.270   4.122  17.706  0.00  0.00    +0.000 OA
ATOM     23  H   UNL     1       1.745   4.895  17.336  0.00  0.00    +0.000 HD
ENDBRANCH   6  22
BRANCH   5  24
ATOM     24  C   UNL     1       1.214   2.869  21.151  0.00  0.00    +0.000 C 
BRANCH  24  25
ATOM     25  O   UNL     1       2.101   3.023  22.261  0.00  0.00    +0.000 OA
ATOM     26  H   UNL     1       1.902   3.894  22.657  0.00  0.00    +0.000 HD
ENDBRANCH  24  25
ENDBRANCH   5  24
TORSDOF 6
ENDMDL
MODEL 7
REMARK VINA RESULT:      -6.6      2.621      6.452
REMARK  Name = 
REMARK  7 active torsions:
REMARK  status: ('A' for Active; 'I' for Inactive)
REMARK    1  A    between atoms: C_1  and  C_2
REMARK    2  A    between atoms: C_2  and  O_3
REMARK    3  A    between atoms: C_4  and  N_5
REMARK    4  A    between atoms: N_10  and  O_11
REMARK    5  A    between atoms: C_17  and  C_18
REMARK    6  A    between atoms: C_18  and  O_19
REMARK    7  A    between atoms: C_20  and  O_21
REMARK                            x       y       z     vdW  Elec       q    Type
REMARK                         _______ _______ _______ _____ _____    ______ ____
ROOT
ATOM      1  C   UNL     1       7.459   4.801  16.029  0.00  0.00    +0.000 C 
ATOM      2  C   UNL     1       6.745   5.002  17.371  0.00  0.00    +0.000 C 
ATOM      3  C   UNL     1       5.411   5.746  17.182  0.00  0.00    +0.000 C 
ATOM      4  O   UNL     1       5.739   7.154  17.191  0.00  0.00    +0.000 OA
ATOM      5  C   UNL     1       6.938   7.338  17.990  0.00  0.00    +0.000 C 
ATOM      6  C   UNL     1       7.544   5.956  18.266  0.00  0.00    +0.000 C 
ENDROOT
BRANCH   3   7
ATOM      7  N   UNL     1       4.378   5.438  18.166  0.00  0.00    +0.000 N 
ATOM      8  C   UNL     1       3.852   6.357  19.046  0.00  0.00    +0.000 A 
ATOM      9  N   UNL     1       2.906   5.842  19.805  0.00  0.00    +0.000 NA
ATOM     10  C   UNL     1       2.805   4.530  19.399  0.00  0.00    +0.000 A 
ATOM     11  C   UNL     1       1.975   3.467  19.798  0.00  0.00    +0.000 A 
ATOM     12  N   UNL     1       0.967   3.601  20.759  0.00  0.00    +0.000 N 
ATOM     13  N   UNL     1       2.155   2.246  19.221  0.00  0.00    +0.000 NA
ATOM     14  C   UNL     1       3.087   2.123  18.265  0.00  0.00    +0.000 A 
ATOM     15  N   UNL     1       3.872   3.087  17.762  0.00  0.00    +0.000 NA
ATOM     16  C   UNL     1       3.719   4.264  18.394  0.00  0.00    +0.000 A 
ATOM     17  H   UNL     1       1.083   4.432  21.338  0.00  0.00    +0.000 HD
BRANCH  12  18
ATOM     18  O   UNL     1       0.543   2.455  21.440  0.00  0.00    +0.000 OA
ATOM     19  H   UNL     1      -0.435   2.519  21.377  0.00  0.00    +0.000 HD
ENDBRANCH  12  18
ENDBRANCH   3   7
BRANCH   2  20
ATOM     20  O   UNL     1       6.599   3.704  17.952  0.00  0.00    +0.000 OA
ATOM     21  H   UNL     1       6.585   3.070  17.202  0.00  0.00    +0.000 HD
ENDBRANCH   2  20
BRANCH   6  22
ATOM     22  O   UNL     1       7.365   5.544  19.629  0.00  0.00    +0.000 OA
ATOM     23  H   UNL     1       6.447   5.225  19.747  0.00  0.00    +0.000 HD
ENDBRANCH   6  22
BRANCH   5  24
ATOM     24  C   UNL     1       7.872   8.325  17.294  0.00  0.00    +0.000 C 
BRANCH  24  25
ATOM     25  O   UNL     1       8.278   9.329  18.226  0.00  0.00    +0.000 OA
ATOM     26  H   UNL     1       8.121  10.191  17.793  0.00  0.00    +0.000 HD
ENDBRANCH  24  25
ENDBRANCH   5  24
TORSDOF 6
ENDMDL
MODEL 8
REMARK VINA RESULT:      -6.6      1.465      2.275
REMARK  Name = 
REMARK  7 active torsions:
REMARK  status: ('A' for Active; 'I' for Inactive)
REMARK    1  A    between atoms: C_1  and  C_2
REMARK    2  A    between atoms: C_2  and  O_3
REMARK    3  A    between atoms: C_4  and  N_5
REMARK    4  A    between atoms: N_10  and  O_11
REMARK    5  A    between atoms: C_17  and  C_18
REMARK    6  A    between atoms: C_18  and  O_19
REMARK    7  A    between atoms: C_20  and  O_21
REMARK                            x       y       z     vdW  Elec       q    Type
REMARK                         _______ _______ _______ _____ _____    ______ ____
ROOT
ATOM      1  C   UNL     1       2.181   5.042  20.528  0.00  0.00    +0.000 C 
ATOM      2  C   UNL     1       3.360   4.784  19.584  0.00  0.00    +0.000 C 
ATOM      3  C   UNL     1       3.010   5.181  18.138  0.00  0.00    +0.000 C 
ATOM      4  O   UNL     1       2.350   4.031  17.562  0.00  0.00    +0.000 OA
ATOM      5  C   UNL     1       2.842   2.839  18.233  0.00  0.00    +0.000 C 
ATOM      6  C   UNL     1       3.637   3.282  19.467  0.00  0.00    +0.000 C 
ENDROOT
BRANCH   3   7
ATOM      7  N   UNL     1       4.137   5.611  17.316  0.00  0.00    +0.000 N 
ATOM      8  C   UNL     1       4.655   6.886  17.321  0.00  0.00    +0.000 A 
ATOM      9  N   UNL     1       5.694   7.010  16.521  0.00  0.00    +0.000 NA
ATOM     10  C   UNL     1       5.866   5.759  15.973  0.00  0.00    +0.000 A 
ATOM     11  C   UNL     1       6.806   5.232  15.068  0.00  0.00    +0.000 A 
ATOM     12  N   UNL     1       7.872   5.977  14.550  0.00  0.00    +0.000 N 
ATOM     13  N   UNL     1       6.679   3.934  14.676  0.00  0.00    +0.000 NA
ATOM     14  C   UNL     1       5.689   3.201  15.206  0.00  0.00    +0.000 A 
ATOM     15  N   UNL     1       4.793   3.585  16.129  0.00  0.00    +0.000 NA
ATOM     16  C   UNL     1       4.901   4.886  16.447  0.00  0.00    +0.000 A 
ATOM     17  H   UNL     1       7.736   6.981  14.651  0.00  0.00    +0.000 HD
BRANCH  12  18
ATOM     18  O   UNL     1       8.436   5.571  13.336  0.00  0.00    +0.000 OA
ATOM     19  H   UNL     1       8.402   6.393  12.800  0.00  0.00    +0.000 HD
ENDBRANCH  12  18
ENDBRANCH   3   7
BRANCH   2  20
ATOM     20  O   UNL     1       4.474   5.504  20.120  0.00  0.00    +0.000 OA
ATOM     21  H   UNL     1       4.507   5.281  21.075  0.00  0.00    +0.000 HD
ENDBRANCH   2  20
BRANCH   6  22
ATOM     22  O   UNL     1       5.051   3.100  19.299  0.00  0.00    +0.000 OA
ATOM     23  H   UNL     1       5.523   3.804  19.789  0.00  0.00    +0.000 HD
ENDBRANCH   6  22
BRANCH   5  24
ATOM     24  C   UNL     1       1.678   1.895  18.519  0.00  0.00    +0.000 C 
BRANCH  24  25
ATOM     25  O   UNL     1       0.451   2.628  18.473  0.00  0.00    +0.000 OA
ATOM     26  H   UNL     1       0.490   3.279  19.200  0.00  0.00    +0.000 HD
ENDBRANCH  24  25
ENDBRANCH   5  24
TORSDOF 6
ENDMDL
MODEL 9
REMARK VINA RESULT:      -6.6      2.594      6.449
REMARK  Name = 
REMARK  7 active torsions:
REMARK  status: ('A' for Active; 'I' for Inactive)
REMARK    1  A    between atoms: C_1  and  C_2
REMARK    2  A    between atoms: C_2  and  O_3
REMARK    3  A    between atoms: C_4  and  N_5
REMARK    4  A    between atoms: N_10  and  O_11
REMARK    5  A    between atoms: C_17  and  C_18
REMARK    6  A    between atoms: C_18  and  O_19
REMARK    7  A    between atoms: C_20  and  O_21
REMARK                            x       y       z     vdW  Elec       q    Type
REMARK                         _______ _______ _______ _____ _____    ______ ____
ROOT
ATOM      1  C   UNL     1       5.598   4.407  14.980  0.00  0.00    +0.000 C 
ATOM      2  C   UNL     1       5.506   4.360  16.509  0.00  0.00    +0.000 C 
ATOM      3  C   UNL     1       4.476   5.377  17.033  0.00  0.00    +0.000 C 
ATOM      4  O   UNL     1       5.186   6.631  17.154  0.00  0.00    +0.000 OA
ATOM      5  C   UNL     1       6.589   6.340  17.396  0.00  0.00    +0.000 C 
ATOM      6  C   UNL     1       6.815   4.844  17.141  0.00  0.00    +0.000 C 
ENDROOT
BRANCH   3   7
ATOM      7  N   UNL     1       3.822   5.017  18.288  0.00  0.00    +0.000 N 
ATOM      8  C   UNL     1       3.945   5.735  19.456  0.00  0.00    +0.000 A 
ATOM      9  N   UNL     1       3.227   5.227  20.436  0.00  0.00    +0.000 NA
ATOM     10  C   UNL     1       2.602   4.131  19.883  0.00  0.00    +0.000 A 
ATOM     11  C   UNL     1       1.694   3.187  20.396  0.00  0.00    +0.000 A 
ATOM     12  N   UNL     1       1.186   3.243  21.698  0.00  0.00    +0.000 N 
ATOM     13  N   UNL     1       1.284   2.170  19.588  0.00  0.00    +0.000 NA
ATOM     14  C   UNL     1       1.729   2.138  18.324  0.00  0.00    +0.000 A 
ATOM     15  N   UNL     1       2.532   3.028  17.719  0.00  0.00    +0.000 NA
ATOM     16  C   UNL     1       2.972   3.983  18.556  0.00  0.00    +0.000 A 
ATOM     17  H   UNL     1       1.742   3.834  22.313  0.00  0.00    +0.000 HD
BRANCH  12  18
ATOM     18  O   UNL     1       0.713   2.059  22.277  0.00  0.00    +0.000 OA
ATOM     19  H   UNL     1       0.860   1.400  21.564  0.00  0.00    +0.000 HD
ENDBRANCH  12  18
ENDBRANCH   3   7
BRANCH   2  20
ATOM     20  O   UNL     1       5.201   3.007  16.856  0.00  0.00    +0.000 OA
ATOM     21  H   UNL     1       5.409   2.469  16.061  0.00  0.00    +0.000 HD
ENDBRANCH   2  20
BRANCH   6  22
ATOM     22  O   UNL     1       7.023   4.110  18.356  0.00  0.00    +0.000 OA
ATOM     23  H   UNL     1       7.699   3.418  18.198  0.00  0.00    +0.000 HD
ENDBRANCH   6  22
BRANCH   5  24
ATOM     24  C   UNL     1       7.458   7.276  16.561  0.00  0.00    +0.000 C 
BRANCH  24  25
ATOM     25  O   UNL     1       7.786   8.432  17.335  0.00  0.00    +0.000 OA
ATOM     26  H   UNL     1       7.424   8.280  18.230  0.00  0.00    +0.000 HD
ENDBRANCH  24  25
ENDBRANCH   5  24
TORSDOF 6
ENDMDL
