MODEL 1
REMARK VINA RESULT:      -8.7      0.000      0.000
REMARK  Name = 
REMARK  3 active torsions:
REMARK  status: ('A' for Active; 'I' for Inactive)
REMARK    1  A    between atoms: C_1  and  C_2
REMARK    2  A    between atoms: C_10  and  O_11
REMARK    3  A    between atoms: N_14  and  C_15
REMARK                            x       y       z     vdW  Elec       q    Type
REMARK                         _______ _______ _______ _____ _____    ______ ____
ROOT
ATOM      1  C   UNL     1       1.031   2.689  21.110  0.00  0.00    +0.000 C 
ATOM      2  C   UNL     1       1.842   3.009  19.889  0.00  0.00    +0.000 A 
ATOM      3  C   UNL     1       2.147   2.006  18.957  0.00  0.00    +0.000 A 
ATOM      4  C   UNL     1       3.009   2.260  17.892  0.00  0.00    +0.000 A 
ATOM      5  C   UNL     1       3.611   3.510  17.755  0.00  0.00    +0.000 A 
ATOM      6  C   UNL     1       3.274   4.520  18.666  0.00  0.00    +0.000 A 
ATOM      7  C   UNL     1       2.384   4.291  19.718  0.00  0.00    +0.000 A 
ATOM      8  C   UNL     1       4.059   5.770  18.586  0.00  0.00    +0.000 C 
ATOM      9  O   UNL     1       3.637   6.840  19.006  0.00  0.00    +0.000 OA
ATOM     10  C   UNL     1       5.487   5.522  18.122  0.00  0.00    +0.000 C 
ATOM     11  C   UNL     1       6.294   6.713  17.611  0.00  0.00    +0.000 C 
ATOM     12  C   UNL     1       7.214   6.103  16.539  0.00  0.00    +0.000 C 
ATOM     13  N   UNL     1       6.399   5.037  15.967  0.00  0.00    +0.000 N 
ATOM     14  C   UNL     1       5.424   4.636  16.856  0.00  0.00    +0.000 C 
ATOM     15  N   UNL     1       4.542   3.694  16.720  0.00  0.00    +0.000 NA
ENDROOT
BRANCH  13  16
ATOM     16  C   UNL     1       6.529   4.697  14.614  0.00  0.00    +0.000 A 
ATOM     17  C   UNL     1       5.669   3.766  14.010  0.00  0.00    +0.000 A 
ATOM     18  C   UNL     1       5.829   3.382  12.668  0.00  0.00    +0.000 A 
ATOM     19  C   UNL     1       6.853   3.926  11.903  0.00  0.00    +0.000 A 
ATOM     20  C   UNL     1       7.705   4.867  12.467  0.00  0.00    +0.000 A 
ATOM     21  C   UNL     1       7.536   5.253  13.805  0.00  0.00    +0.000 A 
ENDBRANCH  13  16
BRANCH  10  22
ATOM     22  O   UNL     1       6.201   4.950  19.213  0.00  0.00    +0.000 OA
ATOM     23  H   UNL     1       6.842   5.626  19.511  0.00  0.00    +0.000 HD
ENDBRANCH  10  22
TORSDOF 2
ENDMDL
MODEL 2
REMARK VINA RESULT:      -8.7      0.168      1.036
REMARK  Name = 
REMARK  3 active torsions:
REMARK  status: ('A' for Active; 'I' for Inactive)
REMARK    1  A    between atoms: C_1  and  C_2
REMARK    2  A    between atoms: C_10  and  O_11
REMARK    3  A    between atoms: N_14  and  C_15
REMARK                            x       y       z     vdW  Elec       q    Type
REMARK                         _______ _______ _______ _____ _____    ______ ____
ROOT
ATOM      1  C   UNL     1       1.080   2.712  21.124  0.00  0.00    +0.000 C 
ATOM      2  C   UNL     1       1.891   3.017  19.900  0.00  0.00    +0.000 A 
ATOM      3  C   UNL     1       2.297   1.983  19.043  0.00  0.00    +0.000 A 
ATOM      4  C   UNL     1       3.161   2.237  17.979  0.00  0.00    +0.000 A 
ATOM      5  C   UNL     1       3.664   3.520  17.770  0.00  0.00    +0.000 A 
ATOM      6  C   UNL     1       3.226   4.557  18.606  0.00  0.00    +0.000 A 
ATOM      7  C   UNL     1       2.333   4.325  19.654  0.00  0.00    +0.000 A 
ATOM      8  C   UNL     1       3.911   5.858  18.457  0.00  0.00    +0.000 C 
ATOM      9  O   UNL     1       3.396   6.916  18.798  0.00  0.00    +0.000 OA
ATOM     10  C   UNL     1       5.365   5.697  18.037  0.00  0.00    +0.000 C 
ATOM     11  C   UNL     1       6.087   6.914  17.463  0.00  0.00    +0.000 C 
ATOM     12  C   UNL     1       7.077   6.312  16.450  0.00  0.00    +0.000 C 
ATOM     13  N   UNL     1       6.363   5.149  15.936  0.00  0.00    +0.000 N 
ATOM     14  C   UNL     1       5.402   4.729  16.832  0.00  0.00    +0.000 C 
ATOM     15  N   UNL     1       4.602   3.711  16.742  0.00  0.00    +0.000 NA
ENDROOT
BRANCH  13  16
ATOM     16  C   UNL     1       6.551   4.734  14.611  0.00  0.00    +0.000 A 
ATOM     17  C   UNL     1       7.556   5.295  13.806  0.00  0.00    +0.000 A 
ATOM     18  C   UNL     1       7.712   4.921  12.462  0.00  0.00    +0.000 A 
ATOM     19  C   UNL     1       6.867   3.975  11.895  0.00  0.00    +0.000 A 
ATOM     20  C   UNL     1       5.879   3.386  12.673  0.00  0.00    +0.000 A 
ATOM     21  C   UNL     1       5.731   3.757  14.018  0.00  0.00    +0.000 A 
ENDBRANCH  13  16
BRANCH  10  22
ATOM     22  O   UNL     1       6.096   5.257  19.177  0.00  0.00    +0.000 OA
ATOM     23  H   UNL     1       6.579   6.037  19.516  0.00  0.00    +0.000 HD
ENDBRANCH  10  22
TORSDOF 2
ENDMDL
MODEL 3
REMARK VINA RESULT:      -8.4      2.567      4.180
REMARK  Name = 
REMARK  3 active torsions:
REMARK  status: ('A' for Active; 'I' for Inactive)
REMARK    1  A    between atoms: C_1  and  C_2
REMARK    2  A    between atoms: C_10  and  O_11
REMARK    3  A    between atoms: N_14  and  C_15
REMARK                            x       y       z     vdW  Elec       q    Type
REMARK                         _______ _______ _______ _____ _____    ______ ____
ROOT
ATOM      1  C   UNL     1      -0.086   9.013  21.612  0.00  0.00    +0.000 C 
ATOM      2  C   UNL     1       0.927   8.298  20.768  0.00  0.00    +0.000 A 
ATOM      3  C   UNL     1       1.371   8.862  19.563  0.00  0.00    +0.000 A 
ATOM      4  C   UNL     1       2.209   8.148  18.707  0.00  0.00    +0.000 A 
ATOM      5  C   UNL     1       2.591   6.845  19.021  0.00  0.00    +0.000 A 
ATOM      6  C   UNL     1       2.176   6.300  20.243  0.00  0.00    +0.000 A 
ATOM      7  C   UNL     1       1.367   7.015  21.128  0.00  0.00    +0.000 A 
ATOM      8  C   UNL     1       2.461   4.865  20.456  0.00  0.00    +0.000 C 
ATOM      9  O   UNL     1       2.534   4.368  21.573  0.00  0.00    +0.000 OA
ATOM     10  C   UNL     1       2.444   4.077  19.155  0.00  0.00    +0.000 C 
ATOM     11  C   UNL     1       3.096   2.697  19.141  0.00  0.00    +0.000 C 
ATOM     12  C   UNL     1       3.643   2.561  17.709  0.00  0.00    +0.000 C 
ATOM     13  N   UNL     1       4.019   3.927  17.365  0.00  0.00    +0.000 N 
ATOM     14  C   UNL     1       3.323   4.835  18.133  0.00  0.00    +0.000 C 
ATOM     15  N   UNL     1       3.361   6.132  18.087  0.00  0.00    +0.000 NA
ENDROOT
BRANCH  13  16
ATOM     16  C   UNL     1       5.109   4.166  16.516  0.00  0.00    +0.000 A 
ATOM     17  C   UNL     1       6.362   4.541  17.026  0.00  0.00    +0.000 A 
ATOM     18  C   UNL     1       7.441   4.835  16.177  0.00  0.00    +0.000 A 
ATOM     19  C   UNL     1       7.289   4.756  14.798  0.00  0.00    +0.000 A 
ATOM     20  C   UNL     1       6.067   4.364  14.266  0.00  0.00    +0.000 A 
ATOM     21  C   UNL     1       4.994   4.065  15.118  0.00  0.00    +0.000 A 
ENDBRANCH  13  16
BRANCH  10  22
ATOM     22  O   UNL     1       1.084   3.918  18.766  0.00  0.00    +0.000 OA
ATOM     23  H   UNL     1       0.905   2.956  18.765  0.00  0.00    +0.000 HD
ENDBRANCH  10  22
TORSDOF 2
ENDMDL
MODEL 4
REMARK VINA RESULT:      -8.4      2.614      4.150
REMARK  Name = 
REMARK  3 active torsions:
REMARK  status: ('A' for Active; 'I' for Inactive)
REMARK    1  A    between atoms: C_1  and  C_2
REMARK    2  A    between atoms: C_10  and  O_11
REMARK    3  A    between atoms: N_14  and  C_15
REMARK                            x       y       z     vdW  Elec       q    Type
REMARK                         _______ _______ _______ _____ _____    ______ ____
ROOT
ATOM      1  C   UNL     1      -0.143   9.103  21.608  0.00  0.00    +0.000 C 
ATOM      2  C   UNL     1       0.867   8.391  20.758  0.00  0.00    +0.000 A 
ATOM      3  C   UNL     1       1.309   8.960  19.554  0.00  0.00    +0.000 A 
ATOM      4  C   UNL     1       2.143   8.249  18.693  0.00  0.00    +0.000 A 
ATOM      5  C   UNL     1       2.525   6.944  18.999  0.00  0.00    +0.000 A 
ATOM      6  C   UNL     1       2.112   6.393  20.221  0.00  0.00    +0.000 A 
ATOM      7  C   UNL     1       1.306   7.106  21.110  0.00  0.00    +0.000 A 
ATOM      8  C   UNL     1       2.396   4.957  20.426  0.00  0.00    +0.000 C 
ATOM      9  O   UNL     1       2.471   4.455  21.540  0.00  0.00    +0.000 OA
ATOM     10  C   UNL     1       2.375   4.176  19.121  0.00  0.00    +0.000 C 
ATOM     11  C   UNL     1       3.026   2.795  19.099  0.00  0.00    +0.000 C 
ATOM     12  C   UNL     1       3.569   2.665  17.665  0.00  0.00    +0.000 C 
ATOM     13  N   UNL     1       3.946   4.032  17.326  0.00  0.00    +0.000 N 
ATOM     14  C   UNL     1       3.252   4.938  18.101  0.00  0.00    +0.000 C 
ATOM     15  N   UNL     1       3.291   6.234  18.061  0.00  0.00    +0.000 NA
ENDROOT
BRANCH  13  16
ATOM     16  C   UNL     1       5.034   4.275  16.476  0.00  0.00    +0.000 A 
ATOM     17  C   UNL     1       4.910   4.159  15.082  0.00  0.00    +0.000 A 
ATOM     18  C   UNL     1       6.011   4.348  14.230  0.00  0.00    +0.000 A 
ATOM     19  C   UNL     1       7.258   4.659  14.757  0.00  0.00    +0.000 A 
ATOM     20  C   UNL     1       7.405   4.803  16.131  0.00  0.00    +0.000 A 
ATOM     21  C   UNL     1       6.301   4.621  16.977  0.00  0.00    +0.000 A 
ENDBRANCH  13  16
BRANCH  10  22
ATOM     22  O   UNL     1       1.013   4.020  18.735  0.00  0.00    +0.000 OA
ATOM     23  H   UNL     1       0.607   4.908  18.779  0.00  0.00    +0.000 HD
ENDBRANCH  10  22
TORSDOF 2
ENDMDL
MODEL 5
REMARK VINA RESULT:      -7.9      3.280      7.002
REMARK  Name = 
REMARK  3 active torsions:
REMARK  status: ('A' for Active; 'I' for Inactive)
REMARK    1  A    between atoms: C_1  and  C_2
REMARK    2  A    between atoms: C_10  and  O_11
REMARK    3  A    between atoms: N_14  and  C_15
REMARK                            x       y       z     vdW  Elec       q    Type
REMARK                         _______ _______ _______ _____ _____    ______ ____
ROOT
ATOM      1  C   UNL     1       6.723   3.940  14.399  0.00  0.00    +0.000 C 
ATOM      2  C   UNL     1       5.799   4.725  15.282  0.00  0.00    +0.000 A 
ATOM      3  C   UNL     1       6.095   6.056  15.614  0.00  0.00    +0.000 A 
ATOM      4  C   UNL     1       5.317   6.750  16.538  0.00  0.00    +0.000 A 
ATOM      5  C   UNL     1       4.249   6.121  17.175  0.00  0.00    +0.000 A 
ATOM      6  C   UNL     1       3.934   4.804  16.812  0.00  0.00    +0.000 A 
ATOM      7  C   UNL     1       4.682   4.107  15.862  0.00  0.00    +0.000 A 
ATOM      8  C   UNL     1       2.908   4.122  17.630  0.00  0.00    +0.000 C 
ATOM      9  O   UNL     1       2.256   3.174  17.210  0.00  0.00    +0.000 OA
ATOM     10  C   UNL     1       2.914   4.600  19.074  0.00  0.00    +0.000 C 
ATOM     11  C   UNL     1       1.688   4.303  19.935  0.00  0.00    +0.000 C 
ATOM     12  C   UNL     1       1.614   5.502  20.897  0.00  0.00    +0.000 C 
ATOM     13  N   UNL     1       2.112   6.609  20.090  0.00  0.00    +0.000 N 
ATOM     14  C   UNL     1       2.903   6.146  19.060  0.00  0.00    +0.000 C 
ATOM     15  N   UNL     1       3.549   6.830  18.165  0.00  0.00    +0.000 NA
ENDROOT
BRANCH  13  16
ATOM     16  C   UNL     1       1.615   7.905  20.285  0.00  0.00    +0.000 A 
ATOM     17  C   UNL     1       1.203   8.345  21.553  0.00  0.00    +0.000 A 
ATOM     18  C   UNL     1       0.654   9.623  21.742  0.00  0.00    +0.000 A 
ATOM     19  C   UNL     1       0.509  10.489  20.666  0.00  0.00    +0.000 A 
ATOM     20  C   UNL     1       0.930  10.090  19.404  0.00  0.00    +0.000 A 
ATOM     21  C   UNL     1       1.485   8.814  19.221  0.00  0.00    +0.000 A 
ENDBRANCH  13  16
BRANCH  10  22
ATOM     22  O   UNL     1       4.045   4.019  19.715  0.00  0.00    +0.000 OA
ATOM     23  H   UNL     1       4.239   4.574  20.496  0.00  0.00    +0.000 HD
ENDBRANCH  10  22
TORSDOF 2
ENDMDL
MODEL 6
REMARK VINA RESULT:      -7.9      3.249      6.991
REMARK  Name = 
REMARK  3 active torsions:
REMARK  status: ('A' for Active; 'I' for Inactive)
REMARK    1  A    between atoms: C_1  and  C_2
REMARK    2  A    between atoms: C_10  and  O_11
REMARK    3  A    between atoms: N_14  and  C_15
REMARK                            x       y       z     vdW  Elec       q    Type
REMARK                         _______ _______ _______ _____ _____    ______ ____
ROOT
ATOM      1  C   UNL     1       6.705   3.904  14.317  0.00  0.00    +0.000 C 
ATOM      2  C   UNL     1       5.789   4.689  15.208  0.00  0.00    +0.000 A 
ATOM      3  C   UNL     1       6.094   6.016  15.546  0.00  0.00    +0.000 A 
ATOM      4  C   UNL     1       5.323   6.710  16.477  0.00  0.00    +0.000 A 
ATOM      5  C   UNL     1       4.255   6.083  17.115  0.00  0.00    +0.000 A 
ATOM      6  C   UNL     1       3.931   4.770  16.746  0.00  0.00    +0.000 A 
ATOM      7  C   UNL     1       4.671   4.074  15.789  0.00  0.00    +0.000 A 
ATOM      8  C   UNL     1       2.904   4.089  17.564  0.00  0.00    +0.000 C 
ATOM      9  O   UNL     1       2.246   3.147  17.142  0.00  0.00    +0.000 OA
ATOM     10  C   UNL     1       2.919   4.558  19.011  0.00  0.00    +0.000 C 
ATOM     11  C   UNL     1       1.696   4.264  19.876  0.00  0.00    +0.000 C 
ATOM     12  C   UNL     1       1.632   5.457  20.845  0.00  0.00    +0.000 C 
ATOM     13  N   UNL     1       2.133   6.566  20.042  0.00  0.00    +0.000 N 
ATOM     14  C   UNL     1       2.917   6.105  19.006  0.00  0.00    +0.000 C 
ATOM     15  N   UNL     1       3.563   6.790  18.112  0.00  0.00    +0.000 NA
ENDROOT
BRANCH  13  16
ATOM     16  C   UNL     1       1.644   7.864  20.246  0.00  0.00    +0.000 A 
ATOM     17  C   UNL     1       1.508   8.768  19.181  0.00  0.00    +0.000 A 
ATOM     18  C   UNL     1       1.071  10.086  19.389  0.00  0.00    +0.000 A 
ATOM     19  C   UNL     1       0.756  10.525  20.670  0.00  0.00    +0.000 A 
ATOM     20  C   UNL     1       0.858   9.645  21.740  0.00  0.00    +0.000 A 
ATOM     21  C   UNL     1       1.289   8.327  21.525  0.00  0.00    +0.000 A 
ENDBRANCH  13  16
BRANCH  10  22
ATOM     22  O   UNL     1       4.050   3.968  19.644  0.00  0.00    +0.000 OA
ATOM     23  H   UNL     1       4.530   4.693  20.090  0.00  0.00    +0.000 HD
ENDBRANCH  10  22
TORSDOF 2
ENDMDL
MODEL 7
REMARK VINA RESULT:      -7.6      3.755      7.070
REMARK  Name = 
REMARK  3 active torsions:
REMARK  status: ('A' for Active; 'I' for Inactive)
REMARK    1  A    between atoms: C_1  and  C_2
REMARK    2  A    between atoms: C_10  and  O_11
REMARK    3  A    between atoms: N_14  and  C_15
REMARK                            x       y       z     vdW  Elec       q    Type
REMARK                         _______ _______ _______ _____ _____    ______ ____
ROOT
ATOM      1  C   UNL     1       6.362   3.689  15.118  0.00  0.00    +0.000 C 
ATOM      2  C   UNL     1       5.426   4.646  15.795  0.00  0.00    +0.000 A 
ATOM      3  C   UNL     1       5.644   6.029  15.714  0.00  0.00    +0.000 A 
ATOM      4  C   UNL     1       4.861   6.918  16.449  0.00  0.00    +0.000 A 
ATOM      5  C   UNL     1       3.868   6.443  17.304  0.00  0.00    +0.000 A 
ATOM      6  C   UNL     1       3.629   5.063  17.352  0.00  0.00    +0.000 A 
ATOM      7  C   UNL     1       4.381   4.162  16.596  0.00  0.00    +0.000 A 
ATOM      8  C   UNL     1       2.689   4.592  18.392  0.00  0.00    +0.000 C 
ATOM      9  O   UNL     1       2.087   3.530  18.302  0.00  0.00    +0.000 OA
ATOM     10  C   UNL     1       2.726   5.466  19.637  0.00  0.00    +0.000 C 
ATOM     11  C   UNL     1       1.563   5.366  20.622  0.00  0.00    +0.000 C 
ATOM     12  C   UNL     1       1.448   6.785  21.204  0.00  0.00    +0.000 C 
ATOM     13  N   UNL     1       1.833   7.637  20.085  0.00  0.00    +0.000 N 
ATOM     14  C   UNL     1       2.608   6.939  19.183  0.00  0.00    +0.000 C 
ATOM     15  N   UNL     1       3.165   7.369  18.092  0.00  0.00    +0.000 NA
ENDROOT
BRANCH  13  16
ATOM     16  C   UNL     1       1.257   8.906  19.932  0.00  0.00    +0.000 A 
ATOM     17  C   UNL     1       0.906   9.686  21.046  0.00  0.00    +0.000 A 
ATOM     18  C   UNL     1       0.278  10.933  20.898  0.00  0.00    +0.000 A 
ATOM     19  C   UNL     1      -0.008  11.427  19.631  0.00  0.00    +0.000 A 
ATOM     20  C   UNL     1       0.349  10.688  18.511  0.00  0.00    +0.000 A 
ATOM     21  C   UNL     1       0.983   9.445  18.663  0.00  0.00    +0.000 A 
ENDBRANCH  13  16
BRANCH  10  22
ATOM     22  O   UNL     1       3.922   5.156  20.345  0.00  0.00    +0.000 OA
ATOM     23  H   UNL     1       4.098   5.912  20.940  0.00  0.00    +0.000 HD
ENDBRANCH  10  22
TORSDOF 2
ENDMDL
MODEL 8
REMARK VINA RESULT:      -7.5      3.759      7.055
REMARK  Name = 
REMARK  3 active torsions:
REMARK  status: ('A' for Active; 'I' for Inactive)
REMARK    1  A    between atoms: C_1  and  C_2
REMARK    2  A    between atoms: C_10  and  O_11
REMARK    3  A    between atoms: N_14  and  C_15
REMARK                            x       y       z     vdW  Elec       q    Type
REMARK                         _______ _______ _______ _____ _____    ______ ____
ROOT
ATOM      1  C   UNL     1       6.338   3.634  15.160  0.00  0.00    +0.000 C 
ATOM      2  C   UNL     1       5.405   4.604  15.823  0.00  0.00    +0.000 A 
ATOM      3  C   UNL     1       5.627   5.985  15.719  0.00  0.00    +0.000 A 
ATOM      4  C   UNL     1       4.847   6.889  16.439  0.00  0.00    +0.000 A 
ATOM      5  C   UNL     1       3.853   6.430  17.303  0.00  0.00    +0.000 A 
ATOM      6  C   UNL     1       3.610   5.052  17.374  0.00  0.00    +0.000 A 
ATOM      7  C   UNL     1       4.359   4.137  16.632  0.00  0.00    +0.000 A 
ATOM      8  C   UNL     1       2.669   4.601  18.421  0.00  0.00    +0.000 C 
ATOM      9  O   UNL     1       2.064   3.539  18.349  0.00  0.00    +0.000 OA
ATOM     10  C   UNL     1       2.709   5.495  19.652  0.00  0.00    +0.000 C 
ATOM     11  C   UNL     1       1.547   5.414  20.638  0.00  0.00    +0.000 C 
ATOM     12  C   UNL     1       1.436   6.843  21.198  0.00  0.00    +0.000 C 
ATOM     13  N   UNL     1       1.823   7.675  20.065  0.00  0.00    +0.000 N 
ATOM     14  C   UNL     1       2.595   6.961  19.173  0.00  0.00    +0.000 C 
ATOM     15  N   UNL     1       3.153   7.371  18.075  0.00  0.00    +0.000 NA
ENDROOT
BRANCH  13  16
ATOM     16  C   UNL     1       1.250   8.943  19.892  0.00  0.00    +0.000 A 
ATOM     17  C   UNL     1       1.187   9.548  18.626  0.00  0.00    +0.000 A 
ATOM     18  C   UNL     1       0.664  10.840  18.457  0.00  0.00    +0.000 A 
ATOM     19  C   UNL     1       0.189  11.552  19.552  0.00  0.00    +0.000 A 
ATOM     20  C   UNL     1       0.218  10.969  20.812  0.00  0.00    +0.000 A 
ATOM     21  C   UNL     1       0.735   9.675  20.975  0.00  0.00    +0.000 A 
ENDBRANCH  13  16
BRANCH  10  22
ATOM     22  O   UNL     1       3.904   5.193  20.364  0.00  0.00    +0.000 OA
ATOM     23  H   UNL     1       3.819   5.614  21.242  0.00  0.00    +0.000 HD
ENDBRANCH  10  22
TORSDOF 2
ENDMDL
MODEL 9
REMARK VINA RESULT:      -7.4      5.571      7.789
REMARK  Name = 
REMARK  3 active torsions:
REMARK  status: ('A' for Active; 'I' for Inactive)
REMARK    1  A    between atoms: C_1  and  C_2
REMARK    2  A    between atoms: C_10  and  O_11
REMARK    3  A    between atoms: N_14  and  C_15
REMARK                            x       y       z     vdW  Elec       q    Type
REMARK                         _______ _______ _______ _____ _____    ______ ____
ROOT
ATOM      1  C   UNL     1      -2.132  13.003  22.634  0.00  0.00    +0.000 C 
ATOM      2  C   UNL     1      -1.463  11.730  22.207  0.00  0.00    +0.000 A 
ATOM      3  C   UNL     1      -0.894  10.873  23.160  0.00  0.00    +0.000 A 
ATOM      4  C   UNL     1      -0.155   9.758  22.766  0.00  0.00    +0.000 A 
ATOM      5  C   UNL     1       0.058   9.496  21.414  0.00  0.00    +0.000 A 
ATOM      6  C   UNL     1      -0.544  10.333  20.465  0.00  0.00    +0.000 A 
ATOM      7  C   UNL     1      -1.316  11.433  20.844  0.00  0.00    +0.000 A 
ATOM      8  C   UNL     1      -0.154  10.121  19.055  0.00  0.00    +0.000 C 
ATOM      9  O   UNL     1      -0.861  10.467  18.117  0.00  0.00    +0.000 OA
ATOM     10  C   UNL     1       1.278   9.625  18.925  0.00  0.00    +0.000 C 
ATOM     11  C   UNL     1       1.701   8.987  17.603  0.00  0.00    +0.000 C 
ATOM     12  C   UNL     1       2.744   7.934  18.018  0.00  0.00    +0.000 C 
ATOM     13  N   UNL     1       2.264   7.484  19.319  0.00  0.00    +0.000 N 
ATOM     14  C   UNL     1       1.458   8.439  19.901  0.00  0.00    +0.000 C 
ATOM     15  N   UNL     1       0.884   8.414  21.065  0.00  0.00    +0.000 NA
ENDROOT
BRANCH  13  16
ATOM     16  C   UNL     1       2.468   6.159  19.728  0.00  0.00    +0.000 A 
ATOM     17  C   UNL     1       3.614   5.445  19.340  0.00  0.00    +0.000 A 
ATOM     18  C   UNL     1       3.797   4.100  19.702  0.00  0.00    +0.000 A 
ATOM     19  C   UNL     1       2.837   3.443  20.462  0.00  0.00    +0.000 A 
ATOM     20  C   UNL     1       1.705   4.131  20.879  0.00  0.00    +0.000 A 
ATOM     21  C   UNL     1       1.530   5.477  20.522  0.00  0.00    +0.000 A 
ENDBRANCH  13  16
BRANCH  10  22
ATOM     22  O   UNL     1       2.141  10.731  19.168  0.00  0.00    +0.000 OA
ATOM     23  H   UNL     1       2.993  10.359  19.469  0.00  0.00    +0.000 HD
ENDBRANCH  10  22
TORSDOF 2
ENDMDL
