MODEL 1
REMARK VINA RESULT:      -9.5      0.000      0.000
REMARK  Name = 
REMARK  5 active torsions:
REMARK  status: ('A' for Active; 'I' for Inactive)
REMARK    1  A    between atoms: S_2  and  N_4
REMARK    2  A    between atoms: S_2  and  C_10
REMARK    3  A    between atoms: N_4  and  C_5
REMARK    4  A    between atoms: C_15  and  C_16
REMARK    5  A    between atoms: C_25  and  O_26
REMARK                            x       y       z     vdW  Elec       q    Type
REMARK                         _______ _______ _______ _____ _____    ______ ____
ROOT
ATOM      1  C   UNL     1       6.691   5.484  17.097  0.00  0.00    +0.000 A 
ATOM      2  C   UNL     1       7.316   4.992  18.247  0.00  0.00    +0.000 A 
ATOM      3  C   UNL     1       8.076   5.839  19.059  0.00  0.00    +0.000 A 
ATOM      4  C   UNL     1       8.182   7.181  18.674  0.00  0.00    +0.000 A 
ATOM      5  N   UNL     1       8.857   8.228  19.261  0.00  0.00    +0.000 N 
ATOM      6  C   UNL     1       8.720   9.388  18.526  0.00  0.00    +0.000 A 
ATOM      7  C   UNL     1       7.905   9.063  17.452  0.00  0.00    +0.000 A 
ATOM      8  C   UNL     1       7.563   7.690  17.535  0.00  0.00    +0.000 A 
ATOM      9  C   UNL     1       6.795   6.833  16.731  0.00  0.00    +0.000 A 
ATOM     10  H   UNL     1       9.415   8.162  20.104  0.00  0.00    +0.000 HD
ENDROOT
BRANCH   6  11
ATOM     11  C   UNL     1       9.395  10.647  18.868  0.00  0.00    +0.000 A 
ATOM     12  C   UNL     1       9.877  11.483  17.859  0.00  0.00    +0.000 A 
ATOM     13  C   UNL     1      10.631  12.622  18.170  0.00  0.00    +0.000 A 
ATOM     14  C   UNL     1      11.178  13.426  17.157  0.00  0.00    +0.000 A 
ATOM     15  C   UNL     1      11.984  14.512  17.482  0.00  0.00    +0.000 A 
ATOM     16  C   UNL     1      12.223  14.810  18.820  0.00  0.00    +0.000 A 
ATOM     17  C   UNL     1      11.649  14.023  19.824  0.00  0.00    +0.000 A 
ATOM     18  C   UNL     1      10.855  12.922  19.528  0.00  0.00    +0.000 A 
ATOM     19  N   UNL     1      10.351  12.170  20.522  0.00  0.00    +0.000 NA
ATOM     20  C   UNL     1       9.653  11.072  20.169  0.00  0.00    +0.000 A 
BRANCH  20  21
ATOM     21  O   UNL     1       9.231  10.368  21.254  0.00  0.00    +0.000 OA
ATOM     22  H   UNL     1      10.084   9.976  21.524  0.00  0.00    +0.000 HD
ENDBRANCH  20  21
ENDBRANCH   6  11
BRANCH   1  24
ATOM     23  O   UNL     1       6.633   3.639  15.225  0.00  0.00    +0.000 OA
ATOM     24  S   UNL     1       5.739   4.387  16.082  0.00  0.00    +0.000 S 
ATOM     25  O   UNL     1       4.632   5.146  15.553  0.00  0.00    +0.000 OA
BRANCH  24  26
ATOM     26  N   UNL     1       5.067   3.301  17.192  0.00  0.00    +0.000 NA
ATOM     27  H   UNL     1       5.777   3.039  17.877  0.00  0.00    +0.000 HD
BRANCH  26  28
ATOM     28  C   UNL     1       3.706   3.575  17.713  0.00  0.00    +0.000 C 
ATOM     29  C   UNL     1       3.803   4.030  19.166  0.00  0.00    +0.000 C 
ATOM     30  C   UNL     1       3.655   2.742  19.950  0.00  0.00    +0.000 C 
ATOM     31  N   UNL     1       2.621   2.001  19.227  0.00  0.00    +0.000 NA
ATOM     32  C   UNL     1       2.830   2.315  17.798  0.00  0.00    +0.000 C 
ATOM     33  H   UNL     1       1.704   2.348  19.507  0.00  0.00    +0.000 HD
ENDBRANCH  26  28
ENDBRANCH  24  26
ENDBRANCH   1  24
TORSDOF 5
ENDMDL
MODEL 2
REMARK VINA RESULT:      -8.9      8.471     11.109
REMARK  Name = 
REMARK  5 active torsions:
REMARK  status: ('A' for Active; 'I' for Inactive)
REMARK    1  A    between atoms: S_2  and  N_4
REMARK    2  A    between atoms: S_2  and  C_10
REMARK    3  A    between atoms: N_4  and  C_5
REMARK    4  A    between atoms: C_15  and  C_16
REMARK    5  A    between atoms: C_25  and  O_26
REMARK                            x       y       z     vdW  Elec       q    Type
REMARK                         _______ _______ _______ _____ _____    ______ ____
ROOT
ATOM      1  C   UNL     1      -0.804  11.283  21.881  0.00  0.00    +0.000 A 
ATOM      2  C   UNL     1      -0.686  10.433  22.984  0.00  0.00    +0.000 A 
ATOM      3  C   UNL     1       0.050   9.247  22.891  0.00  0.00    +0.000 A 
ATOM      4  C   UNL     1       0.652   8.954  21.662  0.00  0.00    +0.000 A 
ATOM      5  N   UNL     1       1.416   7.876  21.276  0.00  0.00    +0.000 N 
ATOM      6  C   UNL     1       1.786   7.972  19.950  0.00  0.00    +0.000 A 
ATOM      7  C   UNL     1       1.257   9.170  19.494  0.00  0.00    +0.000 A 
ATOM      8  C   UNL     1       0.549   9.791  20.553  0.00  0.00    +0.000 A 
ATOM      9  C   UNL     1      -0.185  10.984  20.659  0.00  0.00    +0.000 A 
ATOM     10  H   UNL     1       1.655   7.089  21.867  0.00  0.00    +0.000 HD
ENDROOT
BRANCH   6  11
ATOM     11  C   UNL     1       2.539   6.929  19.242  0.00  0.00    +0.000 A 
ATOM     12  C   UNL     1       3.406   7.270  18.202  0.00  0.00    +0.000 A 
ATOM     13  C   UNL     1       4.035   6.279  17.437  0.00  0.00    +0.000 A 
ATOM     14  C   UNL     1       4.851   6.617  16.344  0.00  0.00    +0.000 A 
ATOM     15  C   UNL     1       5.408   5.619  15.552  0.00  0.00    +0.000 A 
ATOM     16  C   UNL     1       5.173   4.284  15.865  0.00  0.00    +0.000 A 
ATOM     17  C   UNL     1       4.385   3.955  16.973  0.00  0.00    +0.000 A 
ATOM     18  C   UNL     1       3.800   4.930  17.771  0.00  0.00    +0.000 A 
ATOM     19  N   UNL     1       3.020   4.573  18.806  0.00  0.00    +0.000 NA
ATOM     20  C   UNL     1       2.420   5.564  19.495  0.00  0.00    +0.000 A 
BRANCH  20  21
ATOM     21  O   UNL     1       1.624   5.083  20.488  0.00  0.00    +0.000 OA
ATOM     22  H   UNL     1       0.993   5.825  20.551  0.00  0.00    +0.000 HD
ENDBRANCH  20  21
ENDBRANCH   6  11
BRANCH   1  24
ATOM     23  O   UNL     1      -2.161  13.204  20.707  0.00  0.00    +0.000 OA
ATOM     24  S   UNL     1      -1.748  12.776  22.025  0.00  0.00    +0.000 S 
ATOM     25  O   UNL     1      -1.030  13.651  22.921  0.00  0.00    +0.000 OA
BRANCH  24  26
ATOM     26  N   UNL     1      -3.134  12.291  22.864  0.00  0.00    +0.000 NA
ATOM     27  H   UNL     1      -3.110  11.278  22.993  0.00  0.00    +0.000 HD
BRANCH  26  28
ATOM     28  C   UNL     1      -3.579  13.101  24.022  0.00  0.00    +0.000 C 
ATOM     29  C   UNL     1      -4.594  12.305  24.836  0.00  0.00    +0.000 C 
ATOM     30  C   UNL     1      -5.926  12.728  24.251  0.00  0.00    +0.000 C 
ATOM     31  N   UNL     1      -5.774  14.164  24.019  0.00  0.00    +0.000 NA
ATOM     32  C   UNL     1      -4.366  14.356  23.612  0.00  0.00    +0.000 C 
ATOM     33  H   UNL     1      -5.931  14.663  24.895  0.00  0.00    +0.000 HD
ENDBRANCH  26  28
ENDBRANCH  24  26
ENDBRANCH   1  24
TORSDOF 5
ENDMDL
MODEL 3
REMARK VINA RESULT:      -8.9      7.376     10.040
REMARK  Name = 
REMARK  5 active torsions:
REMARK  status: ('A' for Active; 'I' for Inactive)
REMARK    1  A    between atoms: S_2  and  N_4
REMARK    2  A    between atoms: S_2  and  C_10
REMARK    3  A    between atoms: N_4  and  C_5
REMARK    4  A    between atoms: C_15  and  C_16
REMARK    5  A    between atoms: C_25  and  O_26
REMARK                            x       y       z     vdW  Elec       q    Type
REMARK                         _______ _______ _______ _____ _____    ______ ____
ROOT
ATOM      1  C   UNL     1      -0.488  11.219  19.819  0.00  0.00    +0.000 A 
ATOM      2  C   UNL     1      -0.435  10.544  21.042  0.00  0.00    +0.000 A 
ATOM      3  C   UNL     1       0.342   9.389  21.181  0.00  0.00    +0.000 A 
ATOM      4  C   UNL     1       1.051   8.947  20.058  0.00  0.00    +0.000 A 
ATOM      5  N   UNL     1       1.877   7.857  19.895  0.00  0.00    +0.000 N 
ATOM      6  C   UNL     1       2.350   7.775  18.601  0.00  0.00    +0.000 A 
ATOM      7  C   UNL     1       1.824   8.871  17.934  0.00  0.00    +0.000 A 
ATOM      8  C   UNL     1       1.013   9.608  18.833  0.00  0.00    +0.000 A 
ATOM      9  C   UNL     1       0.237  10.772  18.706  0.00  0.00    +0.000 A 
ATOM     10  H   UNL     1       2.090   7.175  20.612  0.00  0.00    +0.000 HD
ENDROOT
BRANCH   6  11
ATOM     11  C   UNL     1       3.190   6.673  18.115  0.00  0.00    +0.000 A 
ATOM     12  C   UNL     1       4.088   6.882  17.066  0.00  0.00    +0.000 A 
ATOM     13  C   UNL     1       4.804   5.815  16.509  0.00  0.00    +0.000 A 
ATOM     14  C   UNL     1       5.654   6.009  15.408  0.00  0.00    +0.000 A 
ATOM     15  C   UNL     1       6.300   4.926  14.823  0.00  0.00    +0.000 A 
ATOM     16  C   UNL     1       6.119   3.652  15.352  0.00  0.00    +0.000 A 
ATOM     17  C   UNL     1       5.295   3.471  16.468  0.00  0.00    +0.000 A 
ATOM     18  C   UNL     1       4.623   4.531  17.062  0.00  0.00    +0.000 A 
ATOM     19  N   UNL     1       3.812   4.310  18.112  0.00  0.00    +0.000 NA
ATOM     20  C   UNL     1       3.129   5.367  18.595  0.00  0.00    +0.000 A 
BRANCH  20  21
ATOM     21  O   UNL     1       2.310   5.015  19.624  0.00  0.00    +0.000 OA
ATOM     22  H   UNL     1       2.668   4.126  19.807  0.00  0.00    +0.000 HD
ENDBRANCH  20  21
ENDBRANCH   6  11
BRANCH   1  24
ATOM     23  O   UNL     1      -0.626  13.817  19.442  0.00  0.00    +0.000 OA
ATOM     24  S   UNL     1      -1.485  12.676  19.668  0.00  0.00    +0.000 S 
ATOM     25  O   UNL     1      -2.449  12.648  20.742  0.00  0.00    +0.000 OA
BRANCH  24  26
ATOM     26  N   UNL     1      -2.367  12.409  18.249  0.00  0.00    +0.000 NA
ATOM     27  H   UNL     1      -1.734  12.451  17.449  0.00  0.00    +0.000 HD
BRANCH  26  28
ATOM     28  C   UNL     1      -3.383  11.331  18.240  0.00  0.00    +0.000 C 
ATOM     29  C   UNL     1      -3.090  10.369  17.093  0.00  0.00    +0.000 C 
ATOM     30  C   UNL     1      -3.918  10.919  15.950  0.00  0.00    +0.000 C 
ATOM     31  N   UNL     1      -5.173  11.329  16.583  0.00  0.00    +0.000 NA
ATOM     32  C   UNL     1      -4.797  11.839  17.919  0.00  0.00    +0.000 C 
ATOM     33  H   UNL     1      -5.769  10.510  16.702  0.00  0.00    +0.000 HD
ENDBRANCH  26  28
ENDBRANCH  24  26
ENDBRANCH   1  24
TORSDOF 5
ENDMDL
MODEL 4
REMARK VINA RESULT:      -8.4      8.131     10.753
REMARK  Name = 
REMARK  5 active torsions:
REMARK  status: ('A' for Active; 'I' for Inactive)
REMARK    1  A    between atoms: S_2  and  N_4
REMARK    2  A    between atoms: S_2  and  C_10
REMARK    3  A    between atoms: N_4  and  C_5
REMARK    4  A    between atoms: C_15  and  C_16
REMARK    5  A    between atoms: C_25  and  O_26
REMARK                            x       y       z     vdW  Elec       q    Type
REMARK                         _______ _______ _______ _____ _____    ______ ____
ROOT
ATOM      1  C   UNL     1      -0.579  11.199  20.959  0.00  0.00    +0.000 A 
ATOM      2  C   UNL     1      -0.421  10.456  22.132  0.00  0.00    +0.000 A 
ATOM      3  C   UNL     1       0.360   9.295  22.137  0.00  0.00    +0.000 A 
ATOM      4  C   UNL     1       0.965   8.917  20.932  0.00  0.00    +0.000 A 
ATOM      5  N   UNL     1       1.768   7.838  20.636  0.00  0.00    +0.000 N 
ATOM      6  C   UNL     1       2.125   7.831  19.303  0.00  0.00    +0.000 A 
ATOM      7  C   UNL     1       1.547   8.962  18.748  0.00  0.00    +0.000 A 
ATOM      8  C   UNL     1       0.822   9.647  19.755  0.00  0.00    +0.000 A 
ATOM      9  C   UNL     1       0.043  10.816  19.762  0.00  0.00    +0.000 A 
ATOM     10  H   UNL     1       2.041   7.117  21.292  0.00  0.00    +0.000 HD
ENDROOT
BRANCH   6  11
ATOM     11  C   UNL     1       2.914   6.757  18.684  0.00  0.00    +0.000 A 
ATOM     12  C   UNL     1       3.785   7.043  17.631  0.00  0.00    +0.000 A 
ATOM     13  C   UNL     1       4.449   6.016  16.948  0.00  0.00    +0.000 A 
ATOM     14  C   UNL     1       5.271   6.293  15.843  0.00  0.00    +0.000 A 
ATOM     15  C   UNL     1       5.864   5.255  15.133  0.00  0.00    +0.000 A 
ATOM     16  C   UNL     1       5.658   3.941  15.542  0.00  0.00    +0.000 A 
ATOM     17  C   UNL     1       4.863   3.674  16.662  0.00  0.00    +0.000 A 
ATOM     18  C   UNL     1       4.244   4.690  17.379  0.00  0.00    +0.000 A 
ATOM     19  N   UNL     1       3.459   4.389  18.429  0.00  0.00    +0.000 NA
ATOM     20  C   UNL     1       2.825   5.413  19.035  0.00  0.00    +0.000 A 
BRANCH  20  21
ATOM     21  O   UNL     1       2.028   4.985  20.052  0.00  0.00    +0.000 OA
ATOM     22  H   UNL     1       1.803   4.100  19.708  0.00  0.00    +0.000 HD
ENDBRANCH  20  21
ENDBRANCH   6  11
BRANCH   1  24
ATOM     23  O   UNL     1      -2.804  12.408  20.254  0.00  0.00    +0.000 OA
ATOM     24  S   UNL     1      -1.579  12.662  20.979  0.00  0.00    +0.000 S 
ATOM     25  O   UNL     1      -0.717  13.773  20.655  0.00  0.00    +0.000 OA
BRANCH  24  26
ATOM     26  N   UNL     1      -1.979  12.847  22.612  0.00  0.00    +0.000 NA
ATOM     27  H   UNL     1      -1.251  13.393  23.076  0.00  0.00    +0.000 HD
BRANCH  26  28
ATOM     28  C   UNL     1      -3.382  13.172  22.964  0.00  0.00    +0.000 C 
ATOM     29  C   UNL     1      -3.472  14.634  23.386  0.00  0.00    +0.000 C 
ATOM     30  C   UNL     1      -3.293  14.579  24.890  0.00  0.00    +0.000 C 
ATOM     31  N   UNL     1      -4.053  13.398  25.298  0.00  0.00    +0.000 NA
ATOM     32  C   UNL     1      -3.882  12.416  24.205  0.00  0.00    +0.000 C 
ATOM     33  H   UNL     1      -5.041  13.643  25.363  0.00  0.00    +0.000 HD
ENDBRANCH  26  28
ENDBRANCH  24  26
ENDBRANCH   1  24
TORSDOF 5
ENDMDL
MODEL 5
REMARK VINA RESULT:      -8.4      6.026      7.273
REMARK  Name = 
REMARK  5 active torsions:
REMARK  status: ('A' for Active; 'I' for Inactive)
REMARK    1  A    between atoms: S_2  and  N_4
REMARK    2  A    between atoms: S_2  and  C_10
REMARK    3  A    between atoms: N_4  and  C_5
REMARK    4  A    between atoms: C_15  and  C_16
REMARK    5  A    between atoms: C_25  and  O_26
REMARK                            x       y       z     vdW  Elec       q    Type
REMARK                         _______ _______ _______ _____ _____    ______ ____
ROOT
ATOM      1  C   UNL     1       2.749   5.319  18.672  0.00  0.00    +0.000 A 
ATOM      2  C   UNL     1       2.362   5.394  20.012  0.00  0.00    +0.000 A 
ATOM      3  C   UNL     1       1.869   6.591  20.543  0.00  0.00    +0.000 A 
ATOM      4  C   UNL     1       1.785   7.693  19.684  0.00  0.00    +0.000 A 
ATOM      5  N   UNL     1       1.355   8.980  19.921  0.00  0.00    +0.000 N 
ATOM      6  C   UNL     1       1.469   9.763  18.791  0.00  0.00    +0.000 A 
ATOM      7  C   UNL     1       1.962   8.929  17.799  0.00  0.00    +0.000 A 
ATOM      8  C   UNL     1       2.162   7.636  18.345  0.00  0.00    +0.000 A 
ATOM      9  C   UNL     1       2.647   6.427  17.819  0.00  0.00    +0.000 A 
ATOM     10  H   UNL     1       1.029   9.330  20.814  0.00  0.00    +0.000 HD
ENDROOT
BRANCH   6  11
ATOM     11  C   UNL     1       1.158  11.198  18.767  0.00  0.00    +0.000 A 
ATOM     12  C   UNL     1       2.119  12.118  18.341  0.00  0.00    +0.000 A 
ATOM     13  C   UNL     1       1.883  13.496  18.430  0.00  0.00    +0.000 A 
ATOM     14  C   UNL     1       2.873  14.425  18.071  0.00  0.00    +0.000 A 
ATOM     15  C   UNL     1       2.648  15.787  18.234  0.00  0.00    +0.000 A 
ATOM     16  C   UNL     1       1.425  16.224  18.732  0.00  0.00    +0.000 A 
ATOM     17  C   UNL     1       0.432  15.295  19.059  0.00  0.00    +0.000 A 
ATOM     18  C   UNL     1       0.636  13.927  18.924  0.00  0.00    +0.000 A 
ATOM     19  N   UNL     1      -0.332  13.065  19.282  0.00  0.00    +0.000 NA
ATOM     20  C   UNL     1      -0.044  11.750  19.200  0.00  0.00    +0.000 A 
BRANCH  20  21
ATOM     21  O   UNL     1      -1.079  10.977  19.629  0.00  0.00    +0.000 OA
ATOM     22  H   UNL     1      -0.591  10.399  20.246  0.00  0.00    +0.000 HD
ENDBRANCH  20  21
ENDBRANCH   6  11
BRANCH   1  24
ATOM     23  O   UNL     1       2.322   3.115  17.304  0.00  0.00    +0.000 OA
ATOM     24  S   UNL     1       3.376   3.792  18.027  0.00  0.00    +0.000 S 
ATOM     25  O   UNL     1       4.108   3.148  19.090  0.00  0.00    +0.000 OA
BRANCH  24  26
ATOM     26  N   UNL     1       4.536   4.284  16.898  0.00  0.00    +0.000 NA
ATOM     27  H   UNL     1       4.166   5.066  16.356  0.00  0.00    +0.000 HD
BRANCH  26  28
ATOM     28  C   UNL     1       5.949   4.384  17.334  0.00  0.00    +0.000 C 
ATOM     29  C   UNL     1       6.137   5.657  18.154  0.00  0.00    +0.000 C 
ATOM     30  C   UNL     1       6.566   6.681  17.122  0.00  0.00    +0.000 C 
ATOM     31  N   UNL     1       7.474   5.944  16.243  0.00  0.00    +0.000 NA
ATOM     32  C   UNL     1       6.928   4.572  16.165  0.00  0.00    +0.000 C 
ATOM     33  H   UNL     1       8.397   5.903  16.676  0.00  0.00    +0.000 HD
ENDBRANCH  26  28
ENDBRANCH  24  26
ENDBRANCH   1  24
TORSDOF 5
ENDMDL
MODEL 6
REMARK VINA RESULT:      -8.4      5.973      8.079
REMARK  Name = 
REMARK  5 active torsions:
REMARK  status: ('A' for Active; 'I' for Inactive)
REMARK    1  A    between atoms: S_2  and  N_4
REMARK    2  A    between atoms: S_2  and  C_10
REMARK    3  A    between atoms: N_4  and  C_5
REMARK    4  A    between atoms: C_15  and  C_16
REMARK    5  A    between atoms: C_25  and  O_26
REMARK                            x       y       z     vdW  Elec       q    Type
REMARK                         _______ _______ _______ _____ _____    ______ ____
ROOT
ATOM      1  C   UNL     1       5.792   5.382  17.411  0.00  0.00    +0.000 A 
ATOM      2  C   UNL     1       5.456   4.590  18.513  0.00  0.00    +0.000 A 
ATOM      3  C   UNL     1       4.395   4.952  19.350  0.00  0.00    +0.000 A 
ATOM      4  C   UNL     1       3.697   6.126  19.039  0.00  0.00    +0.000 A 
ATOM      5  N   UNL     1       2.634   6.727  19.675  0.00  0.00    +0.000 N 
ATOM      6  C   UNL     1       2.272   7.901  19.045  0.00  0.00    +0.000 A 
ATOM      7  C   UNL     1       3.123   8.026  17.957  0.00  0.00    +0.000 A 
ATOM      8  C   UNL     1       4.015   6.925  17.945  0.00  0.00    +0.000 A 
ATOM      9  C   UNL     1       5.076   6.548  17.105  0.00  0.00    +0.000 A 
ATOM     10  H   UNL     1       2.187   6.383  20.516  0.00  0.00    +0.000 HD
ENDROOT
BRANCH   6  11
ATOM     11  C   UNL     1       1.220   8.796  19.544  0.00  0.00    +0.000 A 
ATOM     12  C   UNL     1       0.412   9.499  18.649  0.00  0.00    +0.000 A 
ATOM     13  C   UNL     1      -0.510  10.449  19.108  0.00  0.00    +0.000 A 
ATOM     14  C   UNL     1      -1.274  11.211  18.208  0.00  0.00    +0.000 A 
ATOM     15  C   UNL     1      -2.131  12.199  18.678  0.00  0.00    +0.000 A 
ATOM     16  C   UNL     1      -2.245  12.411  20.048  0.00  0.00    +0.000 A 
ATOM     17  C   UNL     1      -1.505  11.628  20.940  0.00  0.00    +0.000 A 
ATOM     18  C   UNL     1      -0.627  10.646  20.498  0.00  0.00    +0.000 A 
ATOM     19  N   UNL     1       0.093   9.939  21.387  0.00  0.00    +0.000 NA
ATOM     20  C   UNL     1       0.982   9.055  20.892  0.00  0.00    +0.000 A 
BRANCH  20  21
ATOM     21  O   UNL     1       1.682   8.432  21.879  0.00  0.00    +0.000 OA
ATOM     22  H   UNL     1       0.937   8.023  22.359  0.00  0.00    +0.000 HD
ENDBRANCH  20  21
ENDBRANCH   6  11
BRANCH   1  24
ATOM     23  O   UNL     1       8.029   4.034  17.114  0.00  0.00    +0.000 OA
ATOM     24  S   UNL     1       7.144   4.904  16.371  0.00  0.00    +0.000 S 
ATOM     25  O   UNL     1       7.621   6.096  15.714  0.00  0.00    +0.000 OA
BRANCH  24  26
ATOM     26  N   UNL     1       6.408   3.974  15.164  0.00  0.00    +0.000 NA
ATOM     27  H   UNL     1       5.671   3.403  15.583  0.00  0.00    +0.000 HD
BRANCH  26  28
ATOM     28  C   UNL     1       6.095   4.618  13.867  0.00  0.00    +0.000 C 
ATOM     29  C   UNL     1       5.149   3.724  13.072  0.00  0.00    +0.000 C 
ATOM     30  C   UNL     1       6.085   2.881  12.229  0.00  0.00    +0.000 C 
ATOM     31  N   UNL     1       7.127   3.818  11.806  0.00  0.00    +0.000 NA
ATOM     32  C   UNL     1       7.319   4.741  12.946  0.00  0.00    +0.000 C 
ATOM     33  H   UNL     1       6.790   4.354  11.007  0.00  0.00    +0.000 HD
ENDBRANCH  26  28
ENDBRANCH  24  26
ENDBRANCH   1  24
TORSDOF 5
ENDMDL
MODEL 7
REMARK VINA RESULT:      -8.4      6.171      7.968
REMARK  Name = 
REMARK  5 active torsions:
REMARK  status: ('A' for Active; 'I' for Inactive)
REMARK    1  A    between atoms: S_2  and  N_4
REMARK    2  A    between atoms: S_2  and  C_10
REMARK    3  A    between atoms: N_4  and  C_5
REMARK    4  A    between atoms: C_15  and  C_16
REMARK    5  A    between atoms: C_25  and  O_26
REMARK                            x       y       z     vdW  Elec       q    Type
REMARK                         _______ _______ _______ _____ _____    ______ ____
ROOT
ATOM      1  C   UNL     1       5.398   5.080  16.245  0.00  0.00    +0.000 A 
ATOM      2  C   UNL     1       4.616   4.074  16.820  0.00  0.00    +0.000 A 
ATOM      3  C   UNL     1       3.507   4.400  17.608  0.00  0.00    +0.000 A 
ATOM      4  C   UNL     1       3.221   5.758  17.792  0.00  0.00    +0.000 A 
ATOM      5  N   UNL     1       2.218   6.370  18.510  0.00  0.00    +0.000 N 
ATOM      6  C   UNL     1       2.325   7.744  18.449  0.00  0.00    +0.000 A 
ATOM      7  C   UNL     1       3.420   8.005  17.640  0.00  0.00    +0.000 A 
ATOM      8  C   UNL     1       3.986   6.773  17.225  0.00  0.00    +0.000 A 
ATOM      9  C   UNL     1       5.093   6.436  16.428  0.00  0.00    +0.000 A 
ATOM     10  H   UNL     1       1.508   5.887  19.047  0.00  0.00    +0.000 HD
ENDROOT
BRANCH   6  11
ATOM     11  C   UNL     1       1.439   8.657  19.183  0.00  0.00    +0.000 A 
ATOM     12  C   UNL     1       0.767   9.678  18.507  0.00  0.00    +0.000 A 
ATOM     13  C   UNL     1       0.018  10.632  19.209  0.00  0.00    +0.000 A 
ATOM     14  C   UNL     1      -0.601  11.702  18.541  0.00  0.00    +0.000 A 
ATOM     15  C   UNL     1      -1.279  12.679  19.261  0.00  0.00    +0.000 A 
ATOM     16  C   UNL     1      -1.361  12.576  20.646  0.00  0.00    +0.000 A 
ATOM     17  C   UNL     1      -0.769  11.491  21.302  0.00  0.00    +0.000 A 
ATOM     18  C   UNL     1      -0.070  10.510  20.610  0.00  0.00    +0.000 A 
ATOM     19  N   UNL     1       0.515   9.502  21.281  0.00  0.00    +0.000 NA
ATOM     20  C   UNL     1       1.243   8.626  20.561  0.00  0.00    +0.000 A 
BRANCH  20  21
ATOM     21  O   UNL     1       1.822   7.679  21.349  0.00  0.00    +0.000 OA
ATOM     22  H   UNL     1       1.069   7.061  21.423  0.00  0.00    +0.000 HD
ENDBRANCH  20  21
ENDBRANCH   6  11
BRANCH   1  24
ATOM     23  O   UNL     1       7.775   3.968  16.090  0.00  0.00    +0.000 OA
ATOM     24  S   UNL     1       6.802   4.639  15.258  0.00  0.00    +0.000 S 
ATOM     25  O   UNL     1       7.144   5.794  14.462  0.00  0.00    +0.000 OA
BRANCH  24  26
ATOM     26  N   UNL     1       6.182   3.498  14.173  0.00  0.00    +0.000 NA
ATOM     27  H   UNL     1       5.295   3.141  14.533  0.00  0.00    +0.000 HD
BRANCH  26  28
ATOM     28  C   UNL     1       6.243   3.795  12.723  0.00  0.00    +0.000 C 
ATOM     29  C   UNL     1       5.090   3.092  12.014  0.00  0.00    +0.000 C 
ATOM     30  C   UNL     1       5.691   1.768  11.589  0.00  0.00    +0.000 C 
ATOM     31  N   UNL     1       7.042   2.115  11.146  0.00  0.00    +0.000 NA
ATOM     32  C   UNL     1       7.487   3.207  12.039  0.00  0.00    +0.000 C 
ATOM     33  H   UNL     1       6.999   2.471  10.192  0.00  0.00    +0.000 HD
ENDBRANCH  26  28
ENDBRANCH  24  26
ENDBRANCH   1  24
TORSDOF 5
ENDMDL
MODEL 8
REMARK VINA RESULT:      -8.4      7.928      9.581
REMARK  Name = 
REMARK  5 active torsions:
REMARK  status: ('A' for Active; 'I' for Inactive)
REMARK    1  A    between atoms: S_2  and  N_4
REMARK    2  A    between atoms: S_2  and  C_10
REMARK    3  A    between atoms: N_4  and  C_5
REMARK    4  A    between atoms: C_15  and  C_16
REMARK    5  A    between atoms: C_25  and  O_26
REMARK                            x       y       z     vdW  Elec       q    Type
REMARK                         _______ _______ _______ _____ _____    ______ ____
ROOT
ATOM      1  C   UNL     1       2.329   6.972  19.131  0.00  0.00    +0.000 A 
ATOM      2  C   UNL     1       2.277   7.849  18.043  0.00  0.00    +0.000 A 
ATOM      3  C   UNL     1       1.749   9.135  18.192  0.00  0.00    +0.000 A 
ATOM      4  C   UNL     1       1.281   9.499  19.461  0.00  0.00    +0.000 A 
ATOM      5  N   UNL     1       0.710  10.673  19.899  0.00  0.00    +0.000 N 
ATOM      6  C   UNL     1       0.362  10.594  21.232  0.00  0.00    +0.000 A 
ATOM      7  C   UNL     1       0.753   9.332  21.653  0.00  0.00    +0.000 A 
ATOM      8  C   UNL     1       1.327   8.641  20.556  0.00  0.00    +0.000 A 
ATOM      9  C   UNL     1       1.868   7.354  20.398  0.00  0.00    +0.000 A 
ATOM     10  H   UNL     1       0.532  11.486  19.322  0.00  0.00    +0.000 HD
ENDROOT
BRANCH   6  11
ATOM     11  C   UNL     1      -0.336  11.668  21.951  0.00  0.00    +0.000 A 
ATOM     12  C   UNL     1      -1.524  11.400  22.634  0.00  0.00    +0.000 A 
ATOM     13  C   UNL     1      -2.266  12.436  23.218  0.00  0.00    +0.000 A 
ATOM     14  C   UNL     1      -3.497  12.181  23.844  0.00  0.00    +0.000 A 
ATOM     15  C   UNL     1      -4.254  13.229  24.354  0.00  0.00    +0.000 A 
ATOM     16  C   UNL     1      -3.770  14.531  24.262  0.00  0.00    +0.000 A 
ATOM     17  C   UNL     1      -2.529  14.774  23.665  0.00  0.00    +0.000 A 
ATOM     18  C   UNL     1      -1.760  13.748  23.131  0.00  0.00    +0.000 A 
ATOM     19  N   UNL     1      -0.588  14.028  22.534  0.00  0.00    +0.000 NA
ATOM     20  C   UNL     1       0.074  12.999  21.967  0.00  0.00    +0.000 A 
BRANCH  20  21
ATOM     21  O   UNL     1       1.220  13.407  21.357  0.00  0.00    +0.000 OA
ATOM     22  H   UNL     1       1.063  14.370  21.365  0.00  0.00    +0.000 HD
ENDBRANCH  20  21
ENDBRANCH   6  11
BRANCH   1  24
ATOM     23  O   UNL     1       2.375   4.729  17.762  0.00  0.00    +0.000 OA
ATOM     24  S   UNL     1       2.997   5.346  18.912  0.00  0.00    +0.000 S 
ATOM     25  O   UNL     1       3.007   4.710  20.207  0.00  0.00    +0.000 OA
BRANCH  24  26
ATOM     26  N   UNL     1       4.619   5.631  18.524  0.00  0.00    +0.000 NA
ATOM     27  H   UNL     1       5.215   5.097  19.159  0.00  0.00    +0.000 HD
BRANCH  26  28
ATOM     28  C   UNL     1       5.013   5.647  17.096  0.00  0.00    +0.000 C 
ATOM     29  C   UNL     1       5.744   4.352  16.758  0.00  0.00    +0.000 C 
ATOM     30  C   UNL     1       7.202   4.701  16.983  0.00  0.00    +0.000 C 
ATOM     31  N   UNL     1       7.329   6.059  16.454  0.00  0.00    +0.000 NA
ATOM     32  C   UNL     1       6.051   6.732  16.769  0.00  0.00    +0.000 C 
ATOM     33  H   UNL     1       7.432   6.015  15.440  0.00  0.00    +0.000 HD
ENDBRANCH  26  28
ENDBRANCH  24  26
ENDBRANCH   1  24
TORSDOF 5
ENDMDL
MODEL 9
REMARK VINA RESULT:      -8.4      1.470      2.095
REMARK  Name = 
REMARK  5 active torsions:
REMARK  status: ('A' for Active; 'I' for Inactive)
REMARK    1  A    between atoms: S_2  and  N_4
REMARK    2  A    between atoms: S_2  and  C_10
REMARK    3  A    between atoms: N_4  and  C_5
REMARK    4  A    between atoms: C_15  and  C_16
REMARK    5  A    between atoms: C_25  and  O_26
REMARK                            x       y       z     vdW  Elec       q    Type
REMARK                         _______ _______ _______ _____ _____    ______ ____
ROOT
ATOM      1  C   UNL     1       6.653   5.961  17.059  0.00  0.00    +0.000 A 
ATOM      2  C   UNL     1       7.313   5.377  18.143  0.00  0.00    +0.000 A 
ATOM      3  C   UNL     1       8.123   6.150  18.981  0.00  0.00    +0.000 A 
ATOM      4  C   UNL     1       8.242   7.514  18.687  0.00  0.00    +0.000 A 
ATOM      5  N   UNL     1       8.964   8.504  19.317  0.00  0.00    +0.000 N 
ATOM      6  C   UNL     1       8.822   9.715  18.672  0.00  0.00    +0.000 A 
ATOM      7  C   UNL     1       7.957   9.483  17.613  0.00  0.00    +0.000 A 
ATOM      8  C   UNL     1       7.590   8.114  17.614  0.00  0.00    +0.000 A 
ATOM      9  C   UNL     1       6.771   7.331  16.784  0.00  0.00    +0.000 A 
ATOM     10  H   UNL     1       9.553   8.368  20.129  0.00  0.00    +0.000 HD
ENDROOT
BRANCH   6  11
ATOM     11  C   UNL     1       9.537  10.934  19.073  0.00  0.00    +0.000 A 
ATOM     12  C   UNL     1       9.209  11.580  20.266  0.00  0.00    +0.000 A 
ATOM     13  C   UNL     1       9.793  12.809  20.602  0.00  0.00    +0.000 A 
ATOM     14  C   UNL     1       9.414  13.497  21.766  0.00  0.00    +0.000 A 
ATOM     15  C   UNL     1       9.951  14.749  22.045  0.00  0.00    +0.000 A 
ATOM     16  C   UNL     1      10.886  15.303  21.177  0.00  0.00    +0.000 A 
ATOM     17  C   UNL     1      11.282  14.597  20.035  0.00  0.00    +0.000 A 
ATOM     18  C   UNL     1      10.749  13.354  19.721  0.00  0.00    +0.000 A 
ATOM     19  N   UNL     1      11.131  12.724  18.596  0.00  0.00    +0.000 NA
ATOM     20  C   UNL     1      10.520  11.557  18.309  0.00  0.00    +0.000 A 
BRANCH  20  21
ATOM     21  O   UNL     1      10.953  11.035  17.129  0.00  0.00    +0.000 OA
ATOM     22  H   UNL     1      11.837  11.447  17.094  0.00  0.00    +0.000 HD
ENDBRANCH  20  21
ENDBRANCH   6  11
BRANCH   1  24
ATOM     23  O   UNL     1       6.234   3.645  15.887  0.00  0.00    +0.000 OA
ATOM     24  S   UNL     1       5.637   4.957  16.010  0.00  0.00    +0.000 S 
ATOM     25  O   UNL     1       5.299   5.752  14.854  0.00  0.00    +0.000 OA
BRANCH  24  26
ATOM     26  N   UNL     1       4.203   4.786  16.890  0.00  0.00    +0.000 NA
ATOM     27  H   UNL     1       3.420   5.117  16.323  0.00  0.00    +0.000 HD
BRANCH  26  28
ATOM     28  C   UNL     1       3.989   3.537  17.658  0.00  0.00    +0.000 C 
ATOM     29  C   UNL     1       2.590   3.000  17.371  0.00  0.00    +0.000 C 
ATOM     30  C   UNL     1       1.745   3.613  18.469  0.00  0.00    +0.000 C 
ATOM     31  N   UNL     1       2.594   3.537  19.659  0.00  0.00    +0.000 NA
ATOM     32  C   UNL     1       3.974   3.761  19.178  0.00  0.00    +0.000 C 
ATOM     33  H   UNL     1       2.534   2.598  20.052  0.00  0.00    +0.000 HD
ENDBRANCH  26  28
ENDBRANCH  24  26
ENDBRANCH   1  24
TORSDOF 5
ENDMDL
