MODEL 1
REMARK VINA RESULT:      -6.7      0.000      0.000
REMARK  Name = 
REMARK  6 active torsions:
REMARK  status: ('A' for Active; 'I' for Inactive)
REMARK    1  A    between atoms: C_1  and  C_2
REMARK    2  A    between atoms: C_2  and  C_3
REMARK    3  A    between atoms: C_3  and  C_4
REMARK    4  A    between atoms: C_13  and  C_14
REMARK    5  A    between atoms: C_14  and  C_15
REMARK    6  A    between atoms: C_15  and  N_16
REMARK                            x       y       z     vdW  Elec       q    Type
REMARK                         _______ _______ _______ _____ _____    ______ ____
ROOT
ATOM      1  C   UNL     1       3.837   4.753  18.242  0.00  0.00    +0.000 C 
ATOM      2  O   UNL     1       3.815   4.060  16.987  0.00  0.00    +0.000 OA
ATOM      3  C   UNL     1       2.771   3.113  16.854  0.00  0.00    +0.000 C 
ATOM      4  C   UNL     1       2.865   2.089  17.960  0.00  0.00    +0.000 C 
ATOM      5  C   UNL     1       2.889   2.763  19.326  0.00  0.00    +0.000 C 
ATOM      6  O   UNL     1       3.824   3.846  19.353  0.00  0.00    +0.000 OA
ENDROOT
BRANCH   1   7
ATOM      7  C   UNL     1       5.183   5.509  18.268  0.00  0.00    +0.000 A 
ATOM      8  C   UNL     1       6.183   5.167  19.202  0.00  0.00    +0.000 A 
ATOM      9  C   UNL     1       7.431   5.791  19.195  0.00  0.00    +0.000 A 
ATOM     10  C   UNL     1       7.715   6.767  18.244  0.00  0.00    +0.000 A 
ATOM     11  C   UNL     1       6.746   7.122  17.309  0.00  0.00    +0.000 A 
ATOM     12  C   UNL     1       5.492   6.504  17.323  0.00  0.00    +0.000 A 
ENDBRANCH   1   7
BRANCH   1  14
ATOM     13  C   UNL     1       2.624   6.598  19.605  0.00  0.00    +0.000 C 
ATOM     14  C   UNL     1       2.708   5.815  18.300  0.00  0.00    +0.000 C 
ENDBRANCH   1  14
BRANCH   5  15
ATOM     15  C   UNL     1       1.523   3.181  19.899  0.00  0.00    +0.000 C 
BRANCH  15  16
ATOM     16  C   UNL     1       1.487   3.309  21.421  0.00  0.00    +0.000 C 
BRANCH  16  17
ATOM     17  N   UNL     1       2.607   2.574  22.002  0.00  0.00    +0.000 NA
ATOM     18  H   UNL     1       2.654   2.748  23.006  0.00  0.00    +0.000 HD
ATOM     19  H   UNL     1       3.484   2.918  21.613  0.00  0.00    +0.000 HD
ENDBRANCH  16  17
ENDBRANCH  15  16
ENDBRANCH   5  15
TORSDOF 5
ENDMDL
MODEL 2
REMARK VINA RESULT:      -6.6      0.086      1.171
REMARK  Name = 
REMARK  6 active torsions:
REMARK  status: ('A' for Active; 'I' for Inactive)
REMARK    1  A    between atoms: C_1  and  C_2
REMARK    2  A    between atoms: C_2  and  C_3
REMARK    3  A    between atoms: C_3  and  C_4
REMARK    4  A    between atoms: C_13  and  C_14
REMARK    5  A    between atoms: C_14  and  C_15
REMARK    6  A    between atoms: C_15  and  N_16
REMARK                            x       y       z     vdW  Elec       q    Type
REMARK                         _______ _______ _______ _____ _____    ______ ____
ROOT
ATOM      1  C   UNL     1       3.882   4.701  18.203  0.00  0.00    +0.000 C 
ATOM      2  O   UNL     1       3.816   3.979  16.966  0.00  0.00    +0.000 OA
ATOM      3  C   UNL     1       2.727   3.078  16.866  0.00  0.00    +0.000 C 
ATOM      4  C   UNL     1       2.785   2.078  17.996  0.00  0.00    +0.000 C 
ATOM      5  C   UNL     1       2.854   2.783  19.345  0.00  0.00    +0.000 C 
ATOM      6  O   UNL     1       3.838   3.822  19.337  0.00  0.00    +0.000 OA
ENDROOT
BRANCH   1   7
ATOM      7  C   UNL     1       5.262   5.393  18.198  0.00  0.00    +0.000 A 
ATOM      8  C   UNL     1       5.560   6.396  17.251  0.00  0.00    +0.000 A 
ATOM      9  C   UNL     1       6.774   7.082  17.274  0.00  0.00    +0.000 A 
ATOM     10  C   UNL     1       7.719   6.790  18.254  0.00  0.00    +0.000 A 
ATOM     11  C   UNL     1       7.450   5.805  19.202  0.00  0.00    +0.000 A 
ATOM     12  C   UNL     1       6.236   5.111  19.171  0.00  0.00    +0.000 A 
ENDBRANCH   1   7
BRANCH   1  14
ATOM     13  C   UNL     1       2.715   6.579  19.560  0.00  0.00    +0.000 C 
ATOM     14  C   UNL     1       2.804   5.815  18.244  0.00  0.00    +0.000 C 
ENDBRANCH   1  14
BRANCH   5  15
ATOM     15  C   UNL     1       1.515   3.279  19.919  0.00  0.00    +0.000 C 
BRANCH  15  16
ATOM     16  C   UNL     1       1.432   3.256  21.445  0.00  0.00    +0.000 C 
BRANCH  16  17
ATOM     17  N   UNL     1       2.617   2.599  21.990  0.00  0.00    +0.000 NA
ATOM     18  H   UNL     1       3.134   2.138  21.241  0.00  0.00    +0.000 HD
ATOM     19  H   UNL     1       2.337   1.863  22.636  0.00  0.00    +0.000 HD
ENDBRANCH  16  17
ENDBRANCH  15  16
ENDBRANCH   5  15
TORSDOF 5
ENDMDL
MODEL 3
REMARK VINA RESULT:      -6.5      2.912      5.507
REMARK  Name = 
REMARK  6 active torsions:
REMARK  status: ('A' for Active; 'I' for Inactive)
REMARK    1  A    between atoms: C_1  and  C_2
REMARK    2  A    between atoms: C_2  and  C_3
REMARK    3  A    between atoms: C_3  and  C_4
REMARK    4  A    between atoms: C_13  and  C_14
REMARK    5  A    between atoms: C_14  and  C_15
REMARK    6  A    between atoms: C_15  and  N_16
REMARK                            x       y       z     vdW  Elec       q    Type
REMARK                         _______ _______ _______ _____ _____    ______ ____
ROOT
ATOM      1  C   UNL     1       4.087   5.006  18.185  0.00  0.00    +0.000 C 
ATOM      2  O   UNL     1       5.065   5.335  19.181  0.00  0.00    +0.000 OA
ATOM      3  C   UNL     1       6.325   5.725  18.665  0.00  0.00    +0.000 C 
ATOM      4  C   UNL     1       6.885   4.625  17.795  0.00  0.00    +0.000 C 
ATOM      5  C   UNL     1       5.891   4.230  16.710  0.00  0.00    +0.000 C 
ATOM      6  O   UNL     1       4.581   4.036  17.252  0.00  0.00    +0.000 OA
ENDROOT
BRANCH   1   7
ATOM      7  C   UNL     1       2.917   4.362  18.960  0.00  0.00    +0.000 A 
ATOM      8  C   UNL     1       1.886   3.685  18.274  0.00  0.00    +0.000 A 
ATOM      9  C   UNL     1       0.859   3.038  18.959  0.00  0.00    +0.000 A 
ATOM     10  C   UNL     1       0.842   3.040  20.351  0.00  0.00    +0.000 A 
ATOM     11  C   UNL     1       1.848   3.698  21.053  0.00  0.00    +0.000 A 
ATOM     12  C   UNL     1       2.873   4.357  20.365  0.00  0.00    +0.000 A 
ENDBRANCH   1   7
BRANCH   1  14
ATOM     13  C   UNL     1       2.865   7.279  18.451  0.00  0.00    +0.000 C 
ATOM     14  C   UNL     1       3.543   6.292  17.509  0.00  0.00    +0.000 C 
ENDBRANCH   1  14
BRANCH   5  15
ATOM     15  C   UNL     1       5.858   5.130  15.462  0.00  0.00    +0.000 C 
BRANCH  15  16
ATOM     16  C   UNL     1       6.715   4.633  14.298  0.00  0.00    +0.000 C 
BRANCH  16  17
ATOM     17  N   UNL     1       7.875   5.506  14.136  0.00  0.00    +0.000 NA
ATOM     18  H   UNL     1       7.598   6.365  13.660  0.00  0.00    +0.000 HD
ATOM     19  H   UNL     1       8.563   5.057  13.534  0.00  0.00    +0.000 HD
ENDBRANCH  16  17
ENDBRANCH  15  16
ENDBRANCH   5  15
TORSDOF 5
ENDMDL
MODEL 4
REMARK VINA RESULT:      -6.5      2.973      5.492
REMARK  Name = 
REMARK  6 active torsions:
REMARK  status: ('A' for Active; 'I' for Inactive)
REMARK    1  A    between atoms: C_1  and  C_2
REMARK    2  A    between atoms: C_2  and  C_3
REMARK    3  A    between atoms: C_3  and  C_4
REMARK    4  A    between atoms: C_13  and  C_14
REMARK    5  A    between atoms: C_14  and  C_15
REMARK    6  A    between atoms: C_15  and  N_16
REMARK                            x       y       z     vdW  Elec       q    Type
REMARK                         _______ _______ _______ _____ _____    ______ ____
ROOT
ATOM      1  C   UNL     1       4.250   4.931  18.091  0.00  0.00    +0.000 C 
ATOM      2  O   UNL     1       5.157   5.252  19.154  0.00  0.00    +0.000 OA
ATOM      3  C   UNL     1       6.423   5.724  18.728  0.00  0.00    +0.000 C 
ATOM      4  C   UNL     1       7.079   4.696  17.839  0.00  0.00    +0.000 C 
ATOM      5  C   UNL     1       6.166   4.312  16.682  0.00  0.00    +0.000 C 
ATOM      6  O   UNL     1       4.839   4.032  17.140  0.00  0.00    +0.000 OA
ENDROOT
BRANCH   1   7
ATOM      7  C   UNL     1       3.072   4.196  18.767  0.00  0.00    +0.000 A 
ATOM      8  C   UNL     1       2.959   4.161  20.173  0.00  0.00    +0.000 A 
ATOM      9  C   UNL     1       1.866   3.563  20.800  0.00  0.00    +0.000 A 
ATOM     10  C   UNL     1       0.851   2.994  20.035  0.00  0.00    +0.000 A 
ATOM     11  C   UNL     1       0.937   3.017  18.646  0.00  0.00    +0.000 A 
ATOM     12  C   UNL     1       2.039   3.608  18.017  0.00  0.00    +0.000 A 
ENDBRANCH   1   7
BRANCH   1  14
ATOM     13  C   UNL     1       2.925   7.140  18.402  0.00  0.00    +0.000 C 
ATOM     14  C   UNL     1       3.683   6.223  17.448  0.00  0.00    +0.000 C 
ENDBRANCH   1  14
BRANCH   5  15
ATOM     15  C   UNL     1       6.156   5.272  15.479  0.00  0.00    +0.000 C 
BRANCH  15  16
ATOM     16  C   UNL     1       6.783   4.701  14.208  0.00  0.00    +0.000 C 
BRANCH  16  17
ATOM     17  N   UNL     1       7.911   5.535  13.801  0.00  0.00    +0.000 NA
ATOM     18  H   UNL     1       8.577   5.617  14.570  0.00  0.00    +0.000 HD
ATOM     19  H   UNL     1       7.588   6.480  13.602  0.00  0.00    +0.000 HD
ENDBRANCH  16  17
ENDBRANCH  15  16
ENDBRANCH   5  15
TORSDOF 5
ENDMDL
MODEL 5
REMARK VINA RESULT:      -6.1      1.780      2.340
REMARK  Name = 
REMARK  6 active torsions:
REMARK  status: ('A' for Active; 'I' for Inactive)
REMARK    1  A    between atoms: C_1  and  C_2
REMARK    2  A    between atoms: C_2  and  C_3
REMARK    3  A    between atoms: C_3  and  C_4
REMARK    4  A    between atoms: C_13  and  C_14
REMARK    5  A    between atoms: C_14  and  C_15
REMARK    6  A    between atoms: C_15  and  N_16
REMARK                            x       y       z     vdW  Elec       q    Type
REMARK                         _______ _______ _______ _____ _____    ______ ____
ROOT
ATOM      1  C   UNL     1       4.622   4.608  18.534  0.00  0.00    +0.000 C 
ATOM      2  O   UNL     1       5.197   3.507  19.252  0.00  0.00    +0.000 OA
ATOM      3  C   UNL     1       4.262   2.548  19.709  0.00  0.00    +0.000 C 
ATOM      4  C   UNL     1       3.241   3.212  20.600  0.00  0.00    +0.000 C 
ATOM      5  C   UNL     1       2.586   4.392  19.893  0.00  0.00    +0.000 C 
ATOM      6  O   UNL     1       3.565   5.234  19.275  0.00  0.00    +0.000 OA
ENDROOT
BRANCH   1   7
ATOM      7  C   UNL     1       5.763   5.636  18.380  0.00  0.00    +0.000 A 
ATOM      8  C   UNL     1       6.965   5.490  19.103  0.00  0.00    +0.000 A 
ATOM      9  C   UNL     1       8.034   6.369  18.925  0.00  0.00    +0.000 A 
ATOM     10  C   UNL     1       7.930   7.413  18.009  0.00  0.00    +0.000 A 
ATOM     11  C   UNL     1       6.755   7.579  17.281  0.00  0.00    +0.000 A 
ATOM     12  C   UNL     1       5.680   6.703  17.468  0.00  0.00    +0.000 A 
ENDBRANCH   1   7
BRANCH   1  14
ATOM     13  C   UNL     1       5.338   3.695  16.214  0.00  0.00    +0.000 C 
ATOM     14  C   UNL     1       4.198   4.169  17.108  0.00  0.00    +0.000 C 
ENDBRANCH   1  14
BRANCH   5  15
ATOM     15  C   UNL     1       1.442   4.051  18.922  0.00  0.00    +0.000 C 
BRANCH  15  16
ATOM     16  C   UNL     1       0.680   2.771  19.265  0.00  0.00    +0.000 C 
BRANCH  16  17
ATOM     17  N   UNL     1       0.978   1.743  18.272  0.00  0.00    +0.000 NA
ATOM     18  H   UNL     1       1.146   2.175  17.364  0.00  0.00    +0.000 HD
ATOM     19  H   UNL     1       0.169   1.135  18.151  0.00  0.00    +0.000 HD
ENDBRANCH  16  17
ENDBRANCH  15  16
ENDBRANCH   5  15
TORSDOF 5
ENDMDL
MODEL 6
REMARK VINA RESULT:      -6.1      1.024      1.589
REMARK  Name = 
REMARK  6 active torsions:
REMARK  status: ('A' for Active; 'I' for Inactive)
REMARK    1  A    between atoms: C_1  and  C_2
REMARK    2  A    between atoms: C_2  and  C_3
REMARK    3  A    between atoms: C_3  and  C_4
REMARK    4  A    between atoms: C_13  and  C_14
REMARK    5  A    between atoms: C_14  and  C_15
REMARK    6  A    between atoms: C_15  and  N_16
REMARK                            x       y       z     vdW  Elec       q    Type
REMARK                         _______ _______ _______ _____ _____    ______ ____
ROOT
ATOM      1  C   UNL     1       4.329   4.774  18.667  0.00  0.00    +0.000 C 
ATOM      2  O   UNL     1       3.773   4.509  17.372  0.00  0.00    +0.000 OA
ATOM      3  C   UNL     1       2.705   3.579  17.367  0.00  0.00    +0.000 C 
ATOM      4  C   UNL     1       3.164   2.270  17.963  0.00  0.00    +0.000 C 
ATOM      5  C   UNL     1       3.764   2.481  19.347  0.00  0.00    +0.000 C 
ATOM      6  O   UNL     1       4.698   3.566  19.347  0.00  0.00    +0.000 OA
ENDROOT
BRANCH   1   7
ATOM      7  C   UNL     1       5.619   5.578  18.401  0.00  0.00    +0.000 A 
ATOM      8  C   UNL     1       5.670   6.535  17.365  0.00  0.00    +0.000 A 
ATOM      9  C   UNL     1       6.803   7.320  17.154  0.00  0.00    +0.000 A 
ATOM     10  C   UNL     1       7.913   7.177  17.982  0.00  0.00    +0.000 A 
ATOM     11  C   UNL     1       7.889   6.241  19.013  0.00  0.00    +0.000 A 
ATOM     12  C   UNL     1       6.756   5.446  19.218  0.00  0.00    +0.000 A 
ENDBRANCH   1   7
BRANCH   1  14
ATOM     13  C   UNL     1       2.670   6.769  18.696  0.00  0.00    +0.000 C 
ATOM     14  C   UNL     1       3.380   5.681  19.494  0.00  0.00    +0.000 C 
ENDBRANCH   1  14
BRANCH   5  15
ATOM     15  C   UNL     1       2.762   2.601  20.509  0.00  0.00    +0.000 C 
BRANCH  15  16
ATOM     16  C   UNL     1       1.303   2.379  20.113  0.00  0.00    +0.000 C 
BRANCH  16  17
ATOM     17  N   UNL     1       0.538   3.599  20.357  0.00  0.00    +0.000 NA
ATOM     18  H   UNL     1      -0.084   3.782  19.569  0.00  0.00    +0.000 HD
ATOM     19  H   UNL     1       1.170   4.397  20.411  0.00  0.00    +0.000 HD
ENDBRANCH  16  17
ENDBRANCH  15  16
ENDBRANCH   5  15
TORSDOF 5
ENDMDL
MODEL 7
REMARK VINA RESULT:      -6.1      2.738      5.304
REMARK  Name = 
REMARK  6 active torsions:
REMARK  status: ('A' for Active; 'I' for Inactive)
REMARK    1  A    between atoms: C_1  and  C_2
REMARK    2  A    between atoms: C_2  and  C_3
REMARK    3  A    between atoms: C_3  and  C_4
REMARK    4  A    between atoms: C_13  and  C_14
REMARK    5  A    between atoms: C_14  and  C_15
REMARK    6  A    between atoms: C_15  and  N_16
REMARK                            x       y       z     vdW  Elec       q    Type
REMARK                         _______ _______ _______ _____ _____    ______ ____
ROOT
ATOM      1  C   UNL     1       3.935   4.636  18.368  0.00  0.00    +0.000 C 
ATOM      2  O   UNL     1       4.947   5.236  19.189  0.00  0.00    +0.000 OA
ATOM      3  C   UNL     1       6.058   5.748  18.475  0.00  0.00    +0.000 C 
ATOM      4  C   UNL     1       6.696   4.647  17.663  0.00  0.00    +0.000 C 
ATOM      5  C   UNL     1       5.671   3.968  16.764  0.00  0.00    +0.000 C 
ATOM      6  O   UNL     1       4.480   3.644  17.488  0.00  0.00    +0.000 OA
ENDROOT
BRANCH   1   7
ATOM      7  C   UNL     1       2.983   3.922  19.352  0.00  0.00    +0.000 A 
ATOM      8  C   UNL     1       3.493   3.226  20.468  0.00  0.00    +0.000 A 
ATOM      9  C   UNL     1       2.646   2.633  21.406  0.00  0.00    +0.000 A 
ATOM     10  C   UNL     1       1.265   2.733  21.256  0.00  0.00    +0.000 A 
ATOM     11  C   UNL     1       0.736   3.416  20.164  0.00  0.00    +0.000 A 
ATOM     12  C   UNL     1       1.586   4.000  19.219  0.00  0.00    +0.000 A 
ENDBRANCH   1   7
BRANCH   1  14
ATOM     13  C   UNL     1       2.968   7.043  18.386  0.00  0.00    +0.000 C 
ATOM     14  C   UNL     1       3.110   5.725  17.634  0.00  0.00    +0.000 C 
ENDBRANCH   1  14
BRANCH   5  15
ATOM     15  C   UNL     1       5.349   4.686  15.441  0.00  0.00    +0.000 C 
BRANCH  15  16
ATOM     16  C   UNL     1       6.467   4.632  14.401  0.00  0.00    +0.000 C 
BRANCH  16  17
ATOM     17  N   UNL     1       6.321   3.428  13.587  0.00  0.00    +0.000 NA
ATOM     18  H   UNL     1       6.489   2.600  14.159  0.00  0.00    +0.000 HD
ATOM     19  H   UNL     1       7.030   3.417  12.856  0.00  0.00    +0.000 HD
ENDBRANCH  16  17
ENDBRANCH  15  16
ENDBRANCH   5  15
TORSDOF 5
ENDMDL
MODEL 8
REMARK VINA RESULT:      -6.1      1.031      1.088
REMARK  Name = 
REMARK  6 active torsions:
REMARK  status: ('A' for Active; 'I' for Inactive)
REMARK    1  A    between atoms: C_1  and  C_2
REMARK    2  A    between atoms: C_2  and  C_3
REMARK    3  A    between atoms: C_3  and  C_4
REMARK    4  A    between atoms: C_13  and  C_14
REMARK    5  A    between atoms: C_14  and  C_15
REMARK    6  A    between atoms: C_15  and  N_16
REMARK                            x       y       z     vdW  Elec       q    Type
REMARK                         _______ _______ _______ _____ _____    ______ ____
ROOT
ATOM      1  C   UNL     1       4.254   4.812  18.697  0.00  0.00    +0.000 C 
ATOM      2  O   UNL     1       3.690   4.599  17.395  0.00  0.00    +0.000 OA
ATOM      3  C   UNL     1       2.645   3.645  17.354  0.00  0.00    +0.000 C 
ATOM      4  C   UNL     1       3.140   2.319  17.878  0.00  0.00    +0.000 C 
ATOM      5  C   UNL     1       3.751   2.475  19.266  0.00  0.00    +0.000 C 
ATOM      6  O   UNL     1       4.659   3.581  19.311  0.00  0.00    +0.000 OA
ENDROOT
BRANCH   1   7
ATOM      7  C   UNL     1       5.522   5.660  18.459  0.00  0.00    +0.000 A 
ATOM      8  C   UNL     1       6.673   5.469  19.252  0.00  0.00    +0.000 A 
ATOM      9  C   UNL     1       7.851   6.176  19.007  0.00  0.00    +0.000 A 
ATOM     10  C   UNL     1       7.911   7.084  17.953  0.00  0.00    +0.000 A 
ATOM     11  C   UNL     1       6.789   7.289  17.154  0.00  0.00    +0.000 A 
ATOM     12  C   UNL     1       5.605   6.588  17.407  0.00  0.00    +0.000 A 
ENDBRANCH   1   7
BRANCH   1  14
ATOM     13  C   UNL     1       2.605   6.809  18.859  0.00  0.00    +0.000 C 
ATOM     14  C   UNL     1       3.293   5.653  19.577  0.00  0.00    +0.000 C 
ENDBRANCH   1  14
BRANCH   5  15
ATOM     15  C   UNL     1       2.758   2.512  20.441  0.00  0.00    +0.000 C 
BRANCH  15  16
ATOM     16  C   UNL     1       1.300   2.278  20.048  0.00  0.00    +0.000 C 
BRANCH  16  17
ATOM     17  N   UNL     1       0.517   3.476  20.335  0.00  0.00    +0.000 NA
ATOM     18  H   UNL     1       0.526   3.665  21.338  0.00  0.00    +0.000 HD
ATOM     19  H   UNL     1      -0.459   3.319  20.085  0.00  0.00    +0.000 HD
ENDBRANCH  16  17
ENDBRANCH  15  16
ENDBRANCH   5  15
TORSDOF 5
ENDMDL
MODEL 9
REMARK VINA RESULT:      -6.0      1.777      2.594
REMARK  Name = 
REMARK  6 active torsions:
REMARK  status: ('A' for Active; 'I' for Inactive)
REMARK    1  A    between atoms: C_1  and  C_2
REMARK    2  A    between atoms: C_2  and  C_3
REMARK    3  A    between atoms: C_3  and  C_4
REMARK    4  A    between atoms: C_13  and  C_14
REMARK    5  A    between atoms: C_14  and  C_15
REMARK    6  A    between atoms: C_15  and  N_16
REMARK                            x       y       z     vdW  Elec       q    Type
REMARK                         _______ _______ _______ _____ _____    ______ ____
ROOT
ATOM      1  C   UNL     1       4.646   4.577  18.553  0.00  0.00    +0.000 C 
ATOM      2  O   UNL     1       5.204   3.445  19.234  0.00  0.00    +0.000 OA
ATOM      3  C   UNL     1       4.249   2.528  19.737  0.00  0.00    +0.000 C 
ATOM      4  C   UNL     1       3.309   3.235  20.683  0.00  0.00    +0.000 C 
ATOM      5  C   UNL     1       2.677   4.451  20.018  0.00  0.00    +0.000 C 
ATOM      6  O   UNL     1       3.662   5.248  19.352  0.00  0.00    +0.000 OA
ENDROOT
BRANCH   1   7
ATOM      7  C   UNL     1       5.826   5.550  18.343  0.00  0.00    +0.000 A 
ATOM      8  C   UNL     1       5.711   6.638  17.452  0.00  0.00    +0.000 A 
ATOM      9  C   UNL     1       6.741   7.567  17.301  0.00  0.00    +0.000 A 
ATOM     10  C   UNL     1       7.909   7.438  18.048  0.00  0.00    +0.000 A 
ATOM     11  C   UNL     1       8.047   6.374  18.936  0.00  0.00    +0.000 A 
ATOM     12  C   UNL     1       7.018   5.437  19.079  0.00  0.00    +0.000 A 
ENDBRANCH   1   7
BRANCH   1  14
ATOM     13  C   UNL     1       5.191   3.636  16.198  0.00  0.00    +0.000 C 
ATOM     14  C   UNL     1       4.126   4.168  17.150  0.00  0.00    +0.000 C 
ENDBRANCH   1  14
BRANCH   5  15
ATOM     15  C   UNL     1       1.468   4.172  19.107  0.00  0.00    +0.000 C 
BRANCH  15  16
ATOM     16  C   UNL     1       0.710   2.886  19.435  0.00  0.00    +0.000 C 
BRANCH  16  17
ATOM     17  N   UNL     1       0.882   1.925  18.349  0.00  0.00    +0.000 NA
ATOM     18  H   UNL     1       1.870   1.850  18.105  0.00  0.00    +0.000 HD
ATOM     19  H   UNL     1       0.408   2.262  17.512  0.00  0.00    +0.000 HD
ENDBRANCH  16  17
ENDBRANCH  15  16
ENDBRANCH   5  15
TORSDOF 5
ENDMDL
