MODEL 1
REMARK VINA RESULT:      -7.6      0.000      0.000
REMARK  Name = 
REMARK  14 active torsions:
REMARK  status: ('A' for Active; 'I' for Inactive)
REMARK    1  A    between atoms: C_1  and  C_2
REMARK    2  A    between atoms: C_2  and  C_3
REMARK    3  A    between atoms: C_3  and  C_4
REMARK    4  A    between atoms: C_3  and  C_5
REMARK    5  A    between atoms: C_5  and  O_7
REMARK    6  A    between atoms: O_7  and  C_8
REMARK    7  A    between atoms: C_10  and  C_11
REMARK    8  A    between atoms: C_16  and  C_17
REMARK    9  A    between atoms: C_17  and  C_18
REMARK   10  A    between atoms: C_17  and  C_19
REMARK   11  A    between atoms: C_20  and  C_21
REMARK   12  A    between atoms: C_21  and  C_22
REMARK   13  A    between atoms: C_22  and  C_23
REMARK   14  A    between atoms: C_25  and  O_26
REMARK                            x       y       z     vdW  Elec       q    Type
REMARK                         _______ _______ _______ _____ _____    ______ ____
ROOT
ATOM      1  C   UNL     1       4.667   6.247  17.005  0.00  0.00    +0.000 C 
ATOM      2  C   UNL     1       4.969   5.794  15.567  0.00  0.00    +0.000 C 
ATOM      3  C   UNL     1       5.818   4.519  15.464  0.00  0.00    +0.000 C 
ATOM      4  C   UNL     1       7.301   4.843  15.660  0.00  0.00    +0.000 C 
ATOM      5  C   UNL     1       5.317   3.409  16.414  0.00  0.00    +0.000 C 
ATOM      6  C   UNL     1       4.968   3.932  17.823  0.00  0.00    +0.000 C 
ATOM      7  C   UNL     1       4.607   2.856  18.791  0.00  0.00    +0.000 C 
ATOM      8  C   UNL     1       3.728   3.032  19.782  0.00  0.00    +0.000 C 
ATOM      9  C   UNL     1       2.883   4.271  20.005  0.00  0.00    +0.000 C 
ATOM     10  C   UNL     1       3.326   5.486  19.105  0.00  0.00    +0.000 C 
ATOM     11  C   UNL     1       3.919   5.081  17.721  0.00  0.00    +0.000 C 
ENDROOT
BRANCH   9  12
ATOM     12  C   UNL     1       1.366   3.895  20.024  0.00  0.00    +0.000 C 
ATOM     13  C   UNL     1       0.873   3.239  18.732  0.00  0.00    +0.000 C 
ATOM     14  C   UNL     1       1.026   2.980  21.219  0.00  0.00    +0.000 C 
ENDBRANCH   9  12
BRANCH   1  15
ATOM     15  O   UNL     1       5.847   6.529  17.820  0.00  0.00    +0.000 OA
BRANCH  15  16
ATOM     16  C   UNL     1       6.746   7.464  17.460  0.00  0.00    +0.000 C 
ATOM     17  O   UNL     1       6.506   8.366  16.665  0.00  0.00    +0.000 OA
BRANCH  16  18
ATOM     18  C   UNL     1       8.096   7.329  18.191  0.00  0.00    +0.000 C 
ATOM     19  C   UNL     1       8.069   6.118  19.132  0.00  0.00    +0.000 C 
BRANCH  18  21
ATOM     20  C   UNL     1       8.763   9.832  18.265  0.00  0.00    +0.000 C 
ATOM     21  C   UNL     1       8.653   8.515  19.005  0.00  0.00    +0.000 C 
ENDBRANCH  18  21
ENDBRANCH  16  18
ENDBRANCH  15  16
ENDBRANCH   1  15
BRANCH  10  22
ATOM     22  C   UNL     1       2.314   6.661  19.028  0.00  0.00    +0.000 C 
BRANCH  22  23
ATOM     23  C   UNL     1       1.779   7.045  20.420  0.00  0.00    +0.000 C 
BRANCH  23  24
ATOM     24  C   UNL     1       1.934   8.546  20.744  0.00  0.00    +0.000 C 
ATOM     25  C   UNL     1       1.287   8.918  22.072  0.00  0.00    +0.000 C 
ATOM     26  C   UNL     1      -0.222   8.941  21.918  0.00  0.00    +0.000 C 
ATOM     27  C   UNL     1      -0.606   9.941  20.850  0.00  0.00    +0.000 C 
ATOM     28  C   UNL     1       0.136   9.724  19.562  0.00  0.00    +0.000 C 
ATOM     29  O   UNL     1      -0.357  10.036  18.481  0.00  0.00    +0.000 OA
ATOM     30  O   UNL     1       1.425   9.334  19.647  0.00  0.00    +0.000 OA
BRANCH  26  31
ATOM     31  O   UNL     1      -0.832   9.274  23.160  0.00  0.00    +0.000 OA
ATOM     32  H   UNL     1      -0.645   8.570  23.803  0.00  0.00    +0.000 HD
ENDBRANCH  26  31
ENDBRANCH  23  24
ENDBRANCH  22  23
ENDBRANCH  10  22
TORSDOF 9
ENDMDL
MODEL 2
REMARK VINA RESULT:      -7.2      0.886      1.700
REMARK  Name = 
REMARK  14 active torsions:
REMARK  status: ('A' for Active; 'I' for Inactive)
REMARK    1  A    between atoms: C_1  and  C_2
REMARK    2  A    between atoms: C_2  and  C_3
REMARK    3  A    between atoms: C_3  and  C_4
REMARK    4  A    between atoms: C_3  and  C_5
REMARK    5  A    between atoms: C_5  and  O_7
REMARK    6  A    between atoms: O_7  and  C_8
REMARK    7  A    between atoms: C_10  and  C_11
REMARK    8  A    between atoms: C_16  and  C_17
REMARK    9  A    between atoms: C_17  and  C_18
REMARK   10  A    between atoms: C_17  and  C_19
REMARK   11  A    between atoms: C_20  and  C_21
REMARK   12  A    between atoms: C_21  and  C_22
REMARK   13  A    between atoms: C_22  and  C_23
REMARK   14  A    between atoms: C_25  and  O_26
REMARK                            x       y       z     vdW  Elec       q    Type
REMARK                         _______ _______ _______ _____ _____    ______ ____
ROOT
ATOM      1  C   UNL     1       4.867   6.421  16.788  0.00  0.00    +0.000 C 
ATOM      2  C   UNL     1       5.209   5.935  15.371  0.00  0.00    +0.000 C 
ATOM      3  C   UNL     1       6.014   4.628  15.320  0.00  0.00    +0.000 C 
ATOM      4  C   UNL     1       7.500   4.902  15.571  0.00  0.00    +0.000 C 
ATOM      5  C   UNL     1       5.436   3.553  16.267  0.00  0.00    +0.000 C 
ATOM      6  C   UNL     1       5.051   4.111  17.652  0.00  0.00    +0.000 C 
ATOM      7  C   UNL     1       4.612   3.064  18.620  0.00  0.00    +0.000 C 
ATOM      8  C   UNL     1       3.701   3.288  19.572  0.00  0.00    +0.000 C 
ATOM      9  C   UNL     1       2.894   4.560  19.743  0.00  0.00    +0.000 C 
ATOM     10  C   UNL     1       3.416   5.743  18.843  0.00  0.00    +0.000 C 
ATOM     11  C   UNL     1       4.049   5.295  17.491  0.00  0.00    +0.000 C 
ENDROOT
BRANCH   9  12
ATOM     12  C   UNL     1       1.365   4.239  19.706  0.00  0.00    +0.000 C 
ATOM     13  C   UNL     1       0.898   3.594  18.399  0.00  0.00    +0.000 C 
ATOM     14  C   UNL     1       0.947   3.344  20.891  0.00  0.00    +0.000 C 
ENDBRANCH   9  12
BRANCH   1  15
ATOM     15  O   UNL     1       6.023   6.674  17.646  0.00  0.00    +0.000 OA
BRANCH  15  16
ATOM     16  C   UNL     1       6.831   7.733  17.448  0.00  0.00    +0.000 C 
ATOM     17  O   UNL     1       6.508   8.720  16.798  0.00  0.00    +0.000 OA
BRANCH  16  18
ATOM     18  C   UNL     1       8.186   7.613  18.172  0.00  0.00    +0.000 C 
ATOM     19  C   UNL     1       8.197   6.372  19.073  0.00  0.00    +0.000 C 
BRANCH  18  21
ATOM     20  C   UNL     1       8.962  10.083  18.279  0.00  0.00    +0.000 C 
ATOM     21  C   UNL     1       8.712   8.787  19.023  0.00  0.00    +0.000 C 
ENDBRANCH  18  21
ENDBRANCH  16  18
ENDBRANCH  15  16
ENDBRANCH   1  15
BRANCH  10  22
ATOM     22  C   UNL     1       2.452   6.952  18.708  0.00  0.00    +0.000 C 
BRANCH  22  23
ATOM     23  C   UNL     1       2.176   7.617  20.070  0.00  0.00    +0.000 C 
BRANCH  23  24
ATOM     24  C   UNL     1       0.747   8.185  20.197  0.00  0.00    +0.000 C 
ATOM     25  C   UNL     1       0.538   9.420  19.332  0.00  0.00    +0.000 C 
ATOM     26  C   UNL     1       1.241  10.609  19.957  0.00  0.00    +0.000 C 
ATOM     27  C   UNL     1       0.694  10.847  21.347  0.00  0.00    +0.000 C 
ATOM     28  C   UNL     1       0.717   9.608  22.196  0.00  0.00    +0.000 C 
ATOM     29  O   UNL     1       0.824   9.673  23.418  0.00  0.00    +0.000 OA
ATOM     30  O   UNL     1       0.447   8.434  21.588  0.00  0.00    +0.000 OA
BRANCH  26  31
ATOM     31  O   UNL     1       1.061  11.764  19.143  0.00  0.00    +0.000 OA
ATOM     32  H   UNL     1       1.859  12.315  19.197  0.00  0.00    +0.000 HD
ENDBRANCH  26  31
ENDBRANCH  23  24
ENDBRANCH  22  23
ENDBRANCH  10  22
TORSDOF 9
ENDMDL
MODEL 3
REMARK VINA RESULT:      -6.9      7.578     10.462
REMARK  Name = 
REMARK  14 active torsions:
REMARK  status: ('A' for Active; 'I' for Inactive)
REMARK    1  A    between atoms: C_1  and  C_2
REMARK    2  A    between atoms: C_2  and  C_3
REMARK    3  A    between atoms: C_3  and  C_4
REMARK    4  A    between atoms: C_3  and  C_5
REMARK    5  A    between atoms: C_5  and  O_7
REMARK    6  A    between atoms: O_7  and  C_8
REMARK    7  A    between atoms: C_10  and  C_11
REMARK    8  A    between atoms: C_16  and  C_17
REMARK    9  A    between atoms: C_17  and  C_18
REMARK   10  A    between atoms: C_17  and  C_19
REMARK   11  A    between atoms: C_20  and  C_21
REMARK   12  A    between atoms: C_21  and  C_22
REMARK   13  A    between atoms: C_22  and  C_23
REMARK   14  A    between atoms: C_25  and  O_26
REMARK                            x       y       z     vdW  Elec       q    Type
REMARK                         _______ _______ _______ _____ _____    ______ ____
ROOT
ATOM      1  C   UNL     1      -0.991  13.868  20.682  0.00  0.00    +0.000 C 
ATOM      2  C   UNL     1       0.153  14.736  20.132  0.00  0.00    +0.000 C 
ATOM      3  C   UNL     1       1.284  13.948  19.457  0.00  0.00    +0.000 C 
ATOM      4  C   UNL     1       2.241  13.374  20.505  0.00  0.00    +0.000 C 
ATOM      5  C   UNL     1       0.745  12.874  18.487  0.00  0.00    +0.000 C 
ATOM      6  C   UNL     1      -0.443  12.078  19.066  0.00  0.00    +0.000 C 
ATOM      7  C   UNL     1      -0.892  10.952  18.196  0.00  0.00    +0.000 C 
ATOM      8  C   UNL     1      -2.164  10.546  18.130  0.00  0.00    +0.000 C 
ATOM      9  C   UNL     1      -3.343  11.218  18.803  0.00  0.00    +0.000 C 
ATOM     10  C   UNL     1      -2.911  12.319  19.844  0.00  0.00    +0.000 C 
ATOM     11  C   UNL     1      -1.582  13.054  19.491  0.00  0.00    +0.000 C 
ENDROOT
BRANCH   9  12
ATOM     12  C   UNL     1      -4.423  11.606  17.742  0.00  0.00    +0.000 C 
ATOM     13  C   UNL     1      -4.049  11.224  16.308  0.00  0.00    +0.000 C 
ATOM     14  C   UNL     1      -5.799  10.997  18.086  0.00  0.00    +0.000 C 
ENDBRANCH   9  12
BRANCH   1  15
ATOM     15  O   UNL     1      -0.587  12.882  21.682  0.00  0.00    +0.000 OA
BRANCH  15  16
ATOM     16  C   UNL     1      -1.219  12.779  22.867  0.00  0.00    +0.000 C 
ATOM     17  O   UNL     1      -1.227  11.758  23.545  0.00  0.00    +0.000 OA
BRANCH  16  18
ATOM     18  C   UNL     1      -1.882  14.094  23.323  0.00  0.00    +0.000 C 
ATOM     19  C   UNL     1      -0.840  15.016  23.969  0.00  0.00    +0.000 C 
BRANCH  18  21
ATOM     20  C   UNL     1      -3.587  15.397  24.775  0.00  0.00    +0.000 C 
ATOM     21  C   UNL     1      -3.095  14.055  24.275  0.00  0.00    +0.000 C 
ENDBRANCH  18  21
ENDBRANCH  16  18
ENDBRANCH  15  16
ENDBRANCH   1  15
BRANCH  10  22
ATOM     22  C   UNL     1      -4.043  13.272  20.315  0.00  0.00    +0.000 C 
BRANCH  22  23
ATOM     23  C   UNL     1      -4.895  12.637  21.430  0.00  0.00    +0.000 C 
BRANCH  23  24
ATOM     24  C   UNL     1      -6.406  12.912  21.279  0.00  0.00    +0.000 C 
ATOM     25  C   UNL     1      -6.788  14.310  21.747  0.00  0.00    +0.000 C 
ATOM     26  C   UNL     1      -6.763  14.366  23.263  0.00  0.00    +0.000 C 
ATOM     27  C   UNL     1      -7.730  13.346  23.823  0.00  0.00    +0.000 C 
ATOM     28  C   UNL     1      -7.507  11.971  23.259  0.00  0.00    +0.000 C 
ATOM     29  O   UNL     1      -7.782  10.964  23.906  0.00  0.00    +0.000 OA
ATOM     30  O   UNL     1      -7.157  11.883  21.959  0.00  0.00    +0.000 OA
BRANCH  26  31
ATOM     31  O   UNL     1      -7.105  15.675  23.706  0.00  0.00    +0.000 OA
ATOM     32  H   UNL     1      -8.069  15.781  23.664  0.00  0.00    +0.000 HD
ENDBRANCH  26  31
ENDBRANCH  23  24
ENDBRANCH  22  23
ENDBRANCH  10  22
TORSDOF 9
ENDMDL
MODEL 4
REMARK VINA RESULT:      -6.7      1.379      2.328
REMARK  Name = 
REMARK  14 active torsions:
REMARK  status: ('A' for Active; 'I' for Inactive)
REMARK    1  A    between atoms: C_1  and  C_2
REMARK    2  A    between atoms: C_2  and  C_3
REMARK    3  A    between atoms: C_3  and  C_4
REMARK    4  A    between atoms: C_3  and  C_5
REMARK    5  A    between atoms: C_5  and  O_7
REMARK    6  A    between atoms: O_7  and  C_8
REMARK    7  A    between atoms: C_10  and  C_11
REMARK    8  A    between atoms: C_16  and  C_17
REMARK    9  A    between atoms: C_17  and  C_18
REMARK   10  A    between atoms: C_17  and  C_19
REMARK   11  A    between atoms: C_20  and  C_21
REMARK   12  A    between atoms: C_21  and  C_22
REMARK   13  A    between atoms: C_22  and  C_23
REMARK   14  A    between atoms: C_25  and  O_26
REMARK                            x       y       z     vdW  Elec       q    Type
REMARK                         _______ _______ _______ _____ _____    ______ ____
ROOT
ATOM      1  C   UNL     1       5.297   5.730  17.366  0.00  0.00    +0.000 C 
ATOM      2  C   UNL     1       5.221   6.047  15.864  0.00  0.00    +0.000 C 
ATOM      3  C   UNL     1       5.434   4.836  14.944  0.00  0.00    +0.000 C 
ATOM      4  C   UNL     1       6.927   4.531  14.792  0.00  0.00    +0.000 C 
ATOM      5  C   UNL     1       4.616   3.608  15.403  0.00  0.00    +0.000 C 
ATOM      6  C   UNL     1       4.676   3.377  16.927  0.00  0.00    +0.000 C 
ATOM      7  C   UNL     1       4.000   2.124  17.371  0.00  0.00    +0.000 C 
ATOM      8  C   UNL     1       3.390   2.005  18.555  0.00  0.00    +0.000 C 
ATOM      9  C   UNL     1       3.179   3.122  19.557  0.00  0.00    +0.000 C 
ATOM     10  C   UNL     1       3.995   4.424  19.206  0.00  0.00    +0.000 C 
ATOM     11  C   UNL     1       4.207   4.659  17.680  0.00  0.00    +0.000 C 
ENDROOT
BRANCH   9  12
ATOM     12  C   UNL     1       1.658   3.281  19.877  0.00  0.00    +0.000 C 
ATOM     13  C   UNL     1       0.738   2.560  18.889  0.00  0.00    +0.000 C 
ATOM     14  C   UNL     1       1.329   2.814  21.310  0.00  0.00    +0.000 C 
ENDBRANCH   9  12
BRANCH   1  15
ATOM     15  O   UNL     1       6.565   5.156  17.810  0.00  0.00    +0.000 OA
BRANCH  15  16
ATOM     16  C   UNL     1       7.419   5.847  18.590  0.00  0.00    +0.000 C 
ATOM     17  O   UNL     1       8.073   5.340  19.493  0.00  0.00    +0.000 OA
BRANCH  16  18
ATOM     18  C   UNL     1       7.541   7.332  18.197  0.00  0.00    +0.000 C 
ATOM     19  C   UNL     1       7.817   7.460  16.693  0.00  0.00    +0.000 C 
BRANCH  18  21
ATOM     20  C   UNL     1       8.705   9.641  18.365  0.00  0.00    +0.000 C 
ATOM     21  C   UNL     1       8.561   8.238  18.917  0.00  0.00    +0.000 C 
ENDBRANCH  18  21
ENDBRANCH  16  18
ENDBRANCH  15  16
ENDBRANCH   1  15
BRANCH  10  22
ATOM     22  C   UNL     1       3.573   5.702  19.980  0.00  0.00    +0.000 C 
BRANCH  22  23
ATOM     23  C   UNL     1       3.364   6.899  19.033  0.00  0.00    +0.000 C 
BRANCH  23  24
ATOM     24  C   UNL     1       1.879   7.267  18.829  0.00  0.00    +0.000 C 
ATOM     25  C   UNL     1       1.698   8.391  17.818  0.00  0.00    +0.000 C 
ATOM     26  C   UNL     1       2.108   9.712  18.441  0.00  0.00    +0.000 C 
ATOM     27  C   UNL     1       1.266   9.974  19.670  0.00  0.00    +0.000 C 
ATOM     28  C   UNL     1       1.271   8.818  20.630  0.00  0.00    +0.000 C 
ATOM     29  O   UNL     1       1.120   8.990  21.837  0.00  0.00    +0.000 OA
ATOM     30  O   UNL     1       1.276   7.575  20.104  0.00  0.00    +0.000 OA
BRANCH  26  31
ATOM     31  O   UNL     1       1.955  10.764  17.495  0.00  0.00    +0.000 OA
ATOM     32  H   UNL     1       1.254  10.524  16.866  0.00  0.00    +0.000 HD
ENDBRANCH  26  31
ENDBRANCH  23  24
ENDBRANCH  22  23
ENDBRANCH  10  22
TORSDOF 9
ENDMDL
MODEL 5
REMARK VINA RESULT:      -6.7      0.730      1.232
REMARK  Name = 
REMARK  14 active torsions:
REMARK  status: ('A' for Active; 'I' for Inactive)
REMARK    1  A    between atoms: C_1  and  C_2
REMARK    2  A    between atoms: C_2  and  C_3
REMARK    3  A    between atoms: C_3  and  C_4
REMARK    4  A    between atoms: C_3  and  C_5
REMARK    5  A    between atoms: C_5  and  O_7
REMARK    6  A    between atoms: O_7  and  C_8
REMARK    7  A    between atoms: C_10  and  C_11
REMARK    8  A    between atoms: C_16  and  C_17
REMARK    9  A    between atoms: C_17  and  C_18
REMARK   10  A    between atoms: C_17  and  C_19
REMARK   11  A    between atoms: C_20  and  C_21
REMARK   12  A    between atoms: C_21  and  C_22
REMARK   13  A    between atoms: C_22  and  C_23
REMARK   14  A    between atoms: C_25  and  O_26
REMARK                            x       y       z     vdW  Elec       q    Type
REMARK                         _______ _______ _______ _____ _____    ______ ____
ROOT
ATOM      1  C   UNL     1       4.207   5.744  17.206  0.00  0.00    +0.000 C 
ATOM      2  C   UNL     1       4.515   5.097  15.846  0.00  0.00    +0.000 C 
ATOM      3  C   UNL     1       5.478   3.904  15.909  0.00  0.00    +0.000 C 
ATOM      4  C   UNL     1       6.929   4.387  15.993  0.00  0.00    +0.000 C 
ATOM      5  C   UNL     1       5.109   2.919  17.040  0.00  0.00    +0.000 C 
ATOM      6  C   UNL     1       4.747   3.626  18.363  0.00  0.00    +0.000 C 
ATOM      7  C   UNL     1       4.514   2.689  19.499  0.00  0.00    +0.000 C 
ATOM      8  C   UNL     1       3.646   2.941  20.485  0.00  0.00    +0.000 C 
ATOM      9  C   UNL     1       2.694   4.118  20.545  0.00  0.00    +0.000 C 
ATOM     10  C   UNL     1       2.997   5.209  19.450  0.00  0.00    +0.000 C 
ATOM     11  C   UNL     1       3.591   4.645  18.124  0.00  0.00    +0.000 C 
ENDROOT
BRANCH   9  12
ATOM     12  C   UNL     1       1.221   3.615  20.683  0.00  0.00    +0.000 C 
ATOM     13  C   UNL     1       0.668   2.960  19.415  0.00  0.00    +0.000 C 
ATOM     14  C   UNL     1       1.065   2.639  21.868  0.00  0.00    +0.000 C 
ENDBRANCH   9  12
BRANCH   1  15
ATOM     15  O   UNL     1       5.375   6.257  17.920  0.00  0.00    +0.000 OA
BRANCH  15  16
ATOM     16  C   UNL     1       6.169   7.204  17.385  0.00  0.00    +0.000 C 
ATOM     17  O   UNL     1       5.952   7.741  16.305  0.00  0.00    +0.000 OA
BRANCH  16  18
ATOM     18  C   UNL     1       7.352   7.594  18.292  0.00  0.00    +0.000 C 
ATOM     19  C   UNL     1       8.179   8.706  17.634  0.00  0.00    +0.000 C 
BRANCH  18  21
ATOM     20  C   UNL     1       7.813   5.513  19.766  0.00  0.00    +0.000 C 
ATOM     21  C   UNL     1       8.349   6.517  18.766  0.00  0.00    +0.000 C 
ENDBRANCH  18  21
ENDBRANCH  16  18
ENDBRANCH  15  16
ENDBRANCH   1  15
BRANCH  10  22
ATOM     22  C   UNL     1       1.876   6.261  19.231  0.00  0.00    +0.000 C 
BRANCH  22  23
ATOM     23  C   UNL     1       1.409   6.883  20.560  0.00  0.00    +0.000 C 
BRANCH  23  24
ATOM     24  C   UNL     1       1.816   8.362  20.722  0.00  0.00    +0.000 C 
ATOM     25  C   UNL     1       1.557   8.880  22.131  0.00  0.00    +0.000 C 
ATOM     26  C   UNL     1       0.069   9.099  22.331  0.00  0.00    +0.000 C 
ATOM     27  C   UNL     1      -0.438  10.091  21.309  0.00  0.00    +0.000 C 
ATOM     28  C   UNL     1      -0.059   9.715  19.904  0.00  0.00    +0.000 C 
ATOM     29  O   UNL     1      -0.758  10.040  18.946  0.00  0.00    +0.000 OA
ATOM     30  O   UNL     1       1.156   9.160  19.716  0.00  0.00    +0.000 OA
BRANCH  26  31
ATOM     31  O   UNL     1      -0.179   9.569  23.652  0.00  0.00    +0.000 OA
ATOM     32  H   UNL     1      -0.752   8.932  24.111  0.00  0.00    +0.000 HD
ENDBRANCH  26  31
ENDBRANCH  23  24
ENDBRANCH  22  23
ENDBRANCH  10  22
TORSDOF 9
ENDMDL
MODEL 6
REMARK VINA RESULT:      -6.6      5.094      9.463
REMARK  Name = 
REMARK  14 active torsions:
REMARK  status: ('A' for Active; 'I' for Inactive)
REMARK    1  A    between atoms: C_1  and  C_2
REMARK    2  A    between atoms: C_2  and  C_3
REMARK    3  A    between atoms: C_3  and  C_4
REMARK    4  A    between atoms: C_3  and  C_5
REMARK    5  A    between atoms: C_5  and  O_7
REMARK    6  A    between atoms: O_7  and  C_8
REMARK    7  A    between atoms: C_10  and  C_11
REMARK    8  A    between atoms: C_16  and  C_17
REMARK    9  A    between atoms: C_17  and  C_18
REMARK   10  A    between atoms: C_17  and  C_19
REMARK   11  A    between atoms: C_20  and  C_21
REMARK   12  A    between atoms: C_21  and  C_22
REMARK   13  A    between atoms: C_22  and  C_23
REMARK   14  A    between atoms: C_25  and  O_26
REMARK                            x       y       z     vdW  Elec       q    Type
REMARK                         _______ _______ _______ _____ _____    ______ ____
ROOT
ATOM      1  C   UNL     1      -0.625  11.810  19.006  0.00  0.00    +0.000 C 
ATOM      2  C   UNL     1      -1.506  11.996  17.759  0.00  0.00    +0.000 C 
ATOM      3  C   UNL     1      -2.973  11.584  17.947  0.00  0.00    +0.000 C 
ATOM      4  C   UNL     1      -3.127  10.066  17.813  0.00  0.00    +0.000 C 
ATOM      5  C   UNL     1      -3.567  12.132  19.263  0.00  0.00    +0.000 C 
ATOM      6  C   UNL     1      -2.614  11.978  20.467  0.00  0.00    +0.000 C 
ATOM      7  C   UNL     1      -3.220  12.383  21.768  0.00  0.00    +0.000 C 
ATOM      8  C   UNL     1      -2.511  12.918  22.767  0.00  0.00    +0.000 C 
ATOM      9  C   UNL     1      -1.048  13.307  22.703  0.00  0.00    +0.000 C 
ATOM     10  C   UNL     1      -0.326  12.772  21.408  0.00  0.00    +0.000 C 
ATOM     11  C   UNL     1      -1.247  12.660  20.156  0.00  0.00    +0.000 C 
ENDROOT
BRANCH   9  12
ATOM     12  C   UNL     1      -0.875  14.819  23.059  0.00  0.00    +0.000 C 
ATOM     13  C   UNL     1      -1.741  15.758  22.216  0.00  0.00    +0.000 C 
ATOM     14  C   UNL     1      -1.148  15.083  24.554  0.00  0.00    +0.000 C 
ENDBRANCH   9  12
BRANCH   1  15
ATOM     15  O   UNL     1      -0.556  10.440  19.510  0.00  0.00    +0.000 OA
BRANCH  15  16
ATOM     16  C   UNL     1       0.617   9.789  19.625  0.00  0.00    +0.000 C 
ATOM     17  O   UNL     1       1.463   9.754  18.739  0.00  0.00    +0.000 OA
BRANCH  16  18
ATOM     18  C   UNL     1       0.823   9.138  21.006  0.00  0.00    +0.000 C 
ATOM     19  C   UNL     1       1.457   7.751  20.848  0.00  0.00    +0.000 C 
BRANCH  18  21
ATOM     20  C   UNL     1      -0.241   9.667  23.309  0.00  0.00    +0.000 C 
ATOM     21  C   UNL     1      -0.372   8.975  21.967  0.00  0.00    +0.000 C 
ENDBRANCH  18  21
ENDBRANCH  16  18
ENDBRANCH  15  16
ENDBRANCH   1  15
BRANCH  10  22
ATOM     22  C   UNL     1       1.059  13.407  21.108  0.00  0.00    +0.000 C 
BRANCH  22  23
ATOM     23  C   UNL     1       0.940  14.605  20.147  0.00  0.00    +0.000 C 
BRANCH  23  24
ATOM     24  C   UNL     1       1.909  14.529  18.948  0.00  0.00    +0.000 C 
ATOM     25  C   UNL     1       3.331  14.193  19.377  0.00  0.00    +0.000 C 
ATOM     26  C   UNL     1       3.971  15.406  20.025  0.00  0.00    +0.000 C 
ATOM     27  C   UNL     1       3.979  16.558  19.046  0.00  0.00    +0.000 C 
ATOM     28  C   UNL     1       2.622  16.824  18.457  0.00  0.00    +0.000 C 
ATOM     29  O   UNL     1       2.296  17.950  18.089  0.00  0.00    +0.000 OA
ATOM     30  O   UNL     1       1.841  15.757  18.192  0.00  0.00    +0.000 OA
BRANCH  26  31
ATOM     31  O   UNL     1       5.296  15.092  20.441  0.00  0.00    +0.000 OA
ATOM     32  H   UNL     1       5.803  15.916  20.528  0.00  0.00    +0.000 HD
ENDBRANCH  26  31
ENDBRANCH  23  24
ENDBRANCH  22  23
ENDBRANCH  10  22
TORSDOF 9
ENDMDL
MODEL 7
REMARK VINA RESULT:      -6.6      1.002      1.222
REMARK  Name = 
REMARK  14 active torsions:
REMARK  status: ('A' for Active; 'I' for Inactive)
REMARK    1  A    between atoms: C_1  and  C_2
REMARK    2  A    between atoms: C_2  and  C_3
REMARK    3  A    between atoms: C_3  and  C_4
REMARK    4  A    between atoms: C_3  and  C_5
REMARK    5  A    between atoms: C_5  and  O_7
REMARK    6  A    between atoms: O_7  and  C_8
REMARK    7  A    between atoms: C_10  and  C_11
REMARK    8  A    between atoms: C_16  and  C_17
REMARK    9  A    between atoms: C_17  and  C_18
REMARK   10  A    between atoms: C_17  and  C_19
REMARK   11  A    between atoms: C_20  and  C_21
REMARK   12  A    between atoms: C_21  and  C_22
REMARK   13  A    between atoms: C_22  and  C_23
REMARK   14  A    between atoms: C_25  and  O_26
REMARK                            x       y       z     vdW  Elec       q    Type
REMARK                         _______ _______ _______ _____ _____    ______ ____
ROOT
ATOM      1  C   UNL     1       4.624   6.451  17.256  0.00  0.00    +0.000 C 
ATOM      2  C   UNL     1       4.705   6.180  15.745  0.00  0.00    +0.000 C 
ATOM      3  C   UNL     1       5.409   4.870  15.368  0.00  0.00    +0.000 C 
ATOM      4  C   UNL     1       6.930   5.046  15.405  0.00  0.00    +0.000 C 
ATOM      5  C   UNL     1       4.924   3.681  16.227  0.00  0.00    +0.000 C 
ATOM      6  C   UNL     1       4.800   4.029  17.725  0.00  0.00    +0.000 C 
ATOM      7  C   UNL     1       4.458   2.861  18.586  0.00  0.00    +0.000 C 
ATOM      8  C   UNL     1       3.725   2.966  19.700  0.00  0.00    +0.000 C 
ATOM      9  C   UNL     1       3.036   4.224  20.189  0.00  0.00    +0.000 C 
ATOM     10  C   UNL     1       3.480   5.514  19.401  0.00  0.00    +0.000 C 
ATOM     11  C   UNL     1       3.860   5.259  17.911  0.00  0.00    +0.000 C 
ENDROOT
BRANCH   9  12
ATOM     12  C   UNL     1       1.504   3.968  20.362  0.00  0.00    +0.000 C 
ATOM     13  C   UNL     1       0.805   3.503  19.082  0.00  0.00    +0.000 C 
ATOM     14  C   UNL     1       1.223   2.954  21.491  0.00  0.00    +0.000 C 
ENDBRANCH   9  12
BRANCH   1  15
ATOM     15  O   UNL     1       5.915   6.524  17.937  0.00  0.00    +0.000 OA
BRANCH  15  16
ATOM     16  C   UNL     1       6.849   7.428  17.583  0.00  0.00    +0.000 C 
ATOM     17  O   UNL     1       6.644   8.341  16.792  0.00  0.00    +0.000 OA
BRANCH  16  18
ATOM     18  C   UNL     1       8.190   7.241  18.318  0.00  0.00    +0.000 C 
ATOM     19  C   UNL     1       8.103   6.053  19.284  0.00  0.00    +0.000 C 
BRANCH  18  21
ATOM     20  C   UNL     1       8.724   9.774  18.443  0.00  0.00    +0.000 C 
ATOM     21  C   UNL     1       8.806   8.414  19.107  0.00  0.00    +0.000 C 
ENDBRANCH  18  21
ENDBRANCH  16  18
ENDBRANCH  15  16
ENDBRANCH   1  15
BRANCH  10  22
ATOM     22  C   UNL     1       2.582   6.763  19.610  0.00  0.00    +0.000 C 
BRANCH  22  23
ATOM     23  C   UNL     1       1.994   7.271  18.280  0.00  0.00    +0.000 C 
BRANCH  23  24
ATOM     24  C   UNL     1       2.031   8.808  18.140  0.00  0.00    +0.000 C 
ATOM     25  C   UNL     1       2.094   9.508  19.490  0.00  0.00    +0.000 C 
ATOM     26  C   UNL     1       0.738   9.440  20.167  0.00  0.00    +0.000 C 
ATOM     27  C   UNL     1      -0.301  10.097  19.286  0.00  0.00    +0.000 C 
ATOM     28  C   UNL     1      -0.290   9.559  17.882  0.00  0.00    +0.000 C 
ATOM     29  O   UNL     1      -1.309   9.547  17.196  0.00  0.00    +0.000 OA
ATOM     30  O   UNL     1       0.908   9.249  17.346  0.00  0.00    +0.000 OA
BRANCH  26  31
ATOM     31  O   UNL     1       0.796  10.081  21.437  0.00  0.00    +0.000 OA
ATOM     32  H   UNL     1       0.554   9.439  22.125  0.00  0.00    +0.000 HD
ENDBRANCH  26  31
ENDBRANCH  23  24
ENDBRANCH  22  23
ENDBRANCH  10  22
TORSDOF 9
ENDMDL
MODEL 8
REMARK VINA RESULT:      -6.5      7.569      9.587
REMARK  Name = 
REMARK  14 active torsions:
REMARK  status: ('A' for Active; 'I' for Inactive)
REMARK    1  A    between atoms: C_1  and  C_2
REMARK    2  A    between atoms: C_2  and  C_3
REMARK    3  A    between atoms: C_3  and  C_4
REMARK    4  A    between atoms: C_3  and  C_5
REMARK    5  A    between atoms: C_5  and  O_7
REMARK    6  A    between atoms: O_7  and  C_8
REMARK    7  A    between atoms: C_10  and  C_11
REMARK    8  A    between atoms: C_16  and  C_17
REMARK    9  A    between atoms: C_17  and  C_18
REMARK   10  A    between atoms: C_17  and  C_19
REMARK   11  A    between atoms: C_20  and  C_21
REMARK   12  A    between atoms: C_21  and  C_22
REMARK   13  A    between atoms: C_22  and  C_23
REMARK   14  A    between atoms: C_25  and  O_26
REMARK                            x       y       z     vdW  Elec       q    Type
REMARK                         _______ _______ _______ _____ _____    ______ ____
ROOT
ATOM      1  C   UNL     1       8.950  13.996  18.374  0.00  0.00    +0.000 C 
ATOM      2  C   UNL     1       8.862  12.679  17.585  0.00  0.00    +0.000 C 
ATOM      3  C   UNL     1       9.695  11.529  18.168  0.00  0.00    +0.000 C 
ATOM      4  C   UNL     1      11.163  11.664  17.754  0.00  0.00    +0.000 C 
ATOM      5  C   UNL     1       9.513  11.397  19.696  0.00  0.00    +0.000 C 
ATOM      6  C   UNL     1       9.545  12.754  20.428  0.00  0.00    +0.000 C 
ATOM      7  C   UNL     1       9.501  12.636  21.914  0.00  0.00    +0.000 C 
ATOM      8  C   UNL     1       8.920  13.548  22.701  0.00  0.00    +0.000 C 
ATOM      9  C   UNL     1       8.126  14.748  22.226  0.00  0.00    +0.000 C 
ATOM     10  C   UNL     1       8.262  15.001  20.677  0.00  0.00    +0.000 C 
ATOM     11  C   UNL     1       8.468  13.709  19.829  0.00  0.00    +0.000 C 
ENDROOT
BRANCH   9  12
ATOM     12  C   UNL     1       6.687  14.719  22.835  0.00  0.00    +0.000 C 
ATOM     13  C   UNL     1       6.089  13.315  22.946  0.00  0.00    +0.000 C 
ATOM     14  C   UNL     1       6.644  15.399  24.219  0.00  0.00    +0.000 C 
ENDBRANCH   9  12
BRANCH   1  15
ATOM     15  O   UNL     1      10.297  14.549  18.497  0.00  0.00    +0.000 OA
BRANCH  15  16
ATOM     16  C   UNL     1      10.595  15.787  18.058  0.00  0.00    +0.000 C 
ATOM     17  O   UNL     1      10.075  16.301  17.075  0.00  0.00    +0.000 OA
BRANCH  16  18
ATOM     18  C   UNL     1      11.612  16.524  18.951  0.00  0.00    +0.000 C 
ATOM     19  C   UNL     1      11.830  15.749  20.256  0.00  0.00    +0.000 C 
BRANCH  18  21
ATOM     20  C   UNL     1      10.092  18.277  20.104  0.00  0.00    +0.000 C 
ATOM     21  C   UNL     1      11.370  17.997  19.340  0.00  0.00    +0.000 C 
ENDBRANCH  18  21
ENDBRANCH  16  18
ENDBRANCH  15  16
ENDBRANCH   1  15
BRANCH  10  22
ATOM     22  C   UNL     1       7.227  15.985  20.069  0.00  0.00    +0.000 C 
BRANCH  22  23
ATOM     23  C   UNL     1       6.017  15.243  19.471  0.00  0.00    +0.000 C 
BRANCH  23  24
ATOM     24  C   UNL     1       4.666  15.690  20.069  0.00  0.00    +0.000 C 
ATOM     25  C   UNL     1       3.710  14.522  20.271  0.00  0.00    +0.000 C 
ATOM     26  C   UNL     1       3.156  14.076  18.932  0.00  0.00    +0.000 C 
ATOM     27  C   UNL     1       2.435  15.231  18.272  0.00  0.00    +0.000 C 
ATOM     28  C   UNL     1       3.280  16.472  18.201  0.00  0.00    +0.000 C 
ATOM     29  O   UNL     1       3.127  17.297  17.304  0.00  0.00    +0.000 OA
ATOM     30  O   UNL     1       4.093  16.730  19.247  0.00  0.00    +0.000 OA
BRANCH  26  31
ATOM     31  O   UNL     1       2.273  12.974  19.114  0.00  0.00    +0.000 OA
ATOM     32  H   UNL     1       2.716  12.162  18.818  0.00  0.00    +0.000 HD
ENDBRANCH  26  31
ENDBRANCH  23  24
ENDBRANCH  22  23
ENDBRANCH  10  22
TORSDOF 9
ENDMDL
MODEL 9
REMARK VINA RESULT:      -6.5      6.892      9.725
REMARK  Name = 
REMARK  14 active torsions:
REMARK  status: ('A' for Active; 'I' for Inactive)
REMARK    1  A    between atoms: C_1  and  C_2
REMARK    2  A    between atoms: C_2  and  C_3
REMARK    3  A    between atoms: C_3  and  C_4
REMARK    4  A    between atoms: C_3  and  C_5
REMARK    5  A    between atoms: C_5  and  O_7
REMARK    6  A    between atoms: O_7  and  C_8
REMARK    7  A    between atoms: C_10  and  C_11
REMARK    8  A    between atoms: C_16  and  C_17
REMARK    9  A    between atoms: C_17  and  C_18
REMARK   10  A    between atoms: C_17  and  C_19
REMARK   11  A    between atoms: C_20  and  C_21
REMARK   12  A    between atoms: C_21  and  C_22
REMARK   13  A    between atoms: C_22  and  C_23
REMARK   14  A    between atoms: C_25  and  O_26
REMARK                            x       y       z     vdW  Elec       q    Type
REMARK                         _______ _______ _______ _____ _____    ______ ____
ROOT
ATOM      1  C   UNL     1      -0.861  14.183  19.819  0.00  0.00    +0.000 C 
ATOM      2  C   UNL     1       0.110  15.211  19.215  0.00  0.00    +0.000 C 
ATOM      3  C   UNL     1       1.574  14.752  19.164  0.00  0.00    +0.000 C 
ATOM      4  C   UNL     1       2.244  14.940  20.529  0.00  0.00    +0.000 C 
ATOM      5  C   UNL     1       1.714  13.312  18.623  0.00  0.00    +0.000 C 
ATOM      6  C   UNL     1       0.673  12.340  19.215  0.00  0.00    +0.000 C 
ATOM      7  C   UNL     1       0.874  10.921  18.802  0.00  0.00    +0.000 C 
ATOM      8  C   UNL     1      -0.135  10.058  18.644  0.00  0.00    +0.000 C 
ATOM      9  C   UNL     1      -1.609  10.397  18.729  0.00  0.00    +0.000 C 
ATOM     10  C   UNL     1      -1.876  11.840  19.302  0.00  0.00    +0.000 C 
ATOM     11  C   UNL     1      -0.767  12.883  18.964  0.00  0.00    +0.000 C 
ENDROOT
BRANCH   9  12
ATOM     12  C   UNL     1      -2.334   9.995  17.404  0.00  0.00    +0.000 C 
ATOM     13  C   UNL     1      -3.741   9.432  17.612  0.00  0.00    +0.000 C 
ATOM     14  C   UNL     1      -2.402  11.178  16.416  0.00  0.00    +0.000 C 
ENDBRANCH   9  12
BRANCH   1  15
ATOM     15  O   UNL     1      -0.558  13.786  21.192  0.00  0.00    +0.000 OA
BRANCH  15  16
ATOM     16  C   UNL     1      -1.393  14.069  22.210  0.00  0.00    +0.000 C 
ATOM     17  O   UNL     1      -1.934  15.158  22.360  0.00  0.00    +0.000 OA
BRANCH  16  18
ATOM     18  C   UNL     1      -1.655  12.867  23.139  0.00  0.00    +0.000 C 
ATOM     19  C   UNL     1      -0.842  11.652  22.674  0.00  0.00    +0.000 C 
BRANCH  18  21
ATOM     20  C   UNL     1      -3.860  13.068  24.485  0.00  0.00    +0.000 C 
ATOM     21  C   UNL     1      -3.098  12.375  23.374  0.00  0.00    +0.000 C 
ENDBRANCH  18  21
ENDBRANCH  16  18
ENDBRANCH  15  16
ENDBRANCH   1  15
BRANCH  10  22
ATOM     22  C   UNL     1      -3.318  12.380  19.102  0.00  0.00    +0.000 C 
BRANCH  22  23
ATOM     23  C   UNL     1      -4.138  12.309  20.404  0.00  0.00    +0.000 C 
BRANCH  23  24
ATOM     24  C   UNL     1      -5.590  12.807  20.243  0.00  0.00    +0.000 C 
ATOM     25  C   UNL     1      -6.610  11.750  20.645  0.00  0.00    +0.000 C 
ATOM     26  C   UNL     1      -6.686  10.678  19.574  0.00  0.00    +0.000 C 
ATOM     27  C   UNL     1      -7.078  11.308  18.256  0.00  0.00    +0.000 C 
ATOM     28  C   UNL     1      -6.204  12.475  17.891  0.00  0.00    +0.000 C 
ATOM     29  O   UNL     1      -5.998  12.776  16.718  0.00  0.00    +0.000 OA
ATOM     30  O   UNL     1      -5.793  13.279  18.893  0.00  0.00    +0.000 OA
BRANCH  26  31
ATOM     31  O   UNL     1      -7.628   9.680  19.952  0.00  0.00    +0.000 OA
ATOM     32  H   UNL     1      -7.657   8.996  19.263  0.00  0.00    +0.000 HD
ENDBRANCH  26  31
ENDBRANCH  23  24
ENDBRANCH  22  23
ENDBRANCH  10  22
TORSDOF 9
ENDMDL
