MODEL 1
REMARK VINA RESULT:      -7.4      0.000      0.000
REMARK  Name = 
REMARK  6 active torsions:
REMARK  status: ('A' for Active; 'I' for Inactive)
REMARK    1  A    between atoms: C_1  and  O_2
REMARK    2  A    between atoms: O_2  and  C_3
REMARK    3  A    between atoms: C_3  and  C_5
REMARK    4  A    between atoms: C_10  and  N_11
REMARK    5  A    between atoms: C_12  and  C_14
REMARK    6  A    between atoms: C_15  and  C_16
REMARK                            x       y       z     vdW  Elec       q    Type
REMARK                         _______ _______ _______ _____ _____    ______ ____
ROOT
ATOM      1  N   UNL     1       4.695   3.951  18.367  0.00  0.00    +0.000 N 
ATOM      2  C   UNL     1       5.959   4.501  18.428  0.00  0.00    +0.000 C 
ATOM      3  O   UNL     1       6.521   4.918  19.441  0.00  0.00    +0.000 OA
ATOM      4  H   UNL     1       4.415   3.474  17.515  0.00  0.00    +0.000 HD
ENDROOT
BRANCH   1  10
ATOM      5  C   UNL     1       2.919   4.878  19.841  0.00  0.00    +0.000 A 
ATOM      6  C   UNL     1       2.020   4.674  20.914  0.00  0.00    +0.000 A 
ATOM      7  C   UNL     1       1.985   3.475  21.622  0.00  0.00    +0.000 A 
ATOM      8  C   UNL     1       2.867   2.464  21.283  0.00  0.00    +0.000 A 
ATOM      9  C   UNL     1       3.766   2.652  20.232  0.00  0.00    +0.000 A 
ATOM     10  C   UNL     1       3.797   3.835  19.470  0.00  0.00    +0.000 A 
BRANCH   5  11
ATOM     11  C   UNL     1       2.784   6.210  19.175  0.00  0.00    +0.000 C 
ATOM     12  O   UNL     1       2.440   7.215  19.777  0.00  0.00    +0.000 OA
BRANCH  11  14
ATOM     13  C   UNL     1       3.799   7.325  17.407  0.00  0.00    +0.000 C 
ATOM     14  O   UNL     1       3.067   6.173  17.846  0.00  0.00    +0.000 OA
ENDBRANCH  11  14
ENDBRANCH   5  11
ENDBRANCH   1  10
BRANCH   2  15
ATOM     15  C   UNL     1       6.693   4.513  17.136  0.00  0.00    +0.000 C 
ATOM     16  C   UNL     1       5.949   4.555  16.019  0.00  0.00    +0.000 C 
BRANCH  16  17
ATOM     17  C   UNL     1       6.518   4.579  14.721  0.00  0.00    +0.000 A 
ATOM     18  C   UNL     1       6.153   3.816  13.617  0.00  0.00    +0.000 A 
ATOM     19  C   UNL     1       6.982   4.191  12.537  0.00  0.00    +0.000 A 
ATOM     20  C   UNL     1       7.819   5.160  13.028  0.00  0.00    +0.000 A 
ATOM     21  O   UNL     1       7.551   5.400  14.336  0.00  0.00    +0.000 OA
ENDBRANCH  16  17
ENDBRANCH   2  15
TORSDOF 5
ENDMDL
MODEL 2
REMARK VINA RESULT:      -7.3      0.973      1.269
REMARK  Name = 
REMARK  6 active torsions:
REMARK  status: ('A' for Active; 'I' for Inactive)
REMARK    1  A    between atoms: C_1  and  O_2
REMARK    2  A    between atoms: O_2  and  C_3
REMARK    3  A    between atoms: C_3  and  C_5
REMARK    4  A    between atoms: C_10  and  N_11
REMARK    5  A    between atoms: C_12  and  C_14
REMARK    6  A    between atoms: C_15  and  C_16
REMARK                            x       y       z     vdW  Elec       q    Type
REMARK                         _______ _______ _______ _____ _____    ______ ____
ROOT
ATOM      1  N   UNL     1       4.170   4.270  17.793  0.00  0.00    +0.000 N 
ATOM      2  C   UNL     1       5.523   4.397  18.029  0.00  0.00    +0.000 C 
ATOM      3  O   UNL     1       6.079   4.313  19.123  0.00  0.00    +0.000 OA
ATOM      4  H   UNL     1       3.852   4.172  16.833  0.00  0.00    +0.000 HD
ENDROOT
BRANCH   1  10
ATOM      5  C   UNL     1       2.483   5.168  19.385  0.00  0.00    +0.000 A 
ATOM      6  C   UNL     1       1.474   4.905  20.342  0.00  0.00    +0.000 A 
ATOM      7  C   UNL     1       1.152   3.607  20.728  0.00  0.00    +0.000 A 
ATOM      8  C   UNL     1       1.851   2.546  20.180  0.00  0.00    +0.000 A 
ATOM      9  C   UNL     1       2.855   2.787  19.242  0.00  0.00    +0.000 A 
ATOM     10  C   UNL     1       3.175   4.084  18.799  0.00  0.00    +0.000 A 
BRANCH   5  11
ATOM     11  C   UNL     1       2.662   6.618  19.068  0.00  0.00    +0.000 C 
ATOM     12  O   UNL     1       3.219   7.006  18.053  0.00  0.00    +0.000 OA
BRANCH  11  14
ATOM     13  C   UNL     1       1.619   8.652  19.484  0.00  0.00    +0.000 C 
ATOM     14  O   UNL     1       2.158   7.439  20.026  0.00  0.00    +0.000 OA
ENDBRANCH  11  14
ENDBRANCH   5  11
ENDBRANCH   1  10
BRANCH   2  15
ATOM     15  C   UNL     1       6.350   4.593  16.809  0.00  0.00    +0.000 C 
ATOM     16  C   UNL     1       5.781   4.271  15.637  0.00  0.00    +0.000 C 
BRANCH  16  17
ATOM     17  C   UNL     1       6.451   4.415  14.396  0.00  0.00    +0.000 A 
ATOM     18  C   UNL     1       6.196   3.741  13.206  0.00  0.00    +0.000 A 
ATOM     19  C   UNL     1       7.100   4.221  12.232  0.00  0.00    +0.000 A 
ATOM     20  C   UNL     1       7.869   5.160  12.869  0.00  0.00    +0.000 A 
ATOM     21  O   UNL     1       7.492   5.284  14.166  0.00  0.00    +0.000 OA
ENDBRANCH  16  17
ENDBRANCH   2  15
TORSDOF 5
ENDMDL
MODEL 3
REMARK VINA RESULT:      -7.3      4.404      6.234
REMARK  Name = 
REMARK  6 active torsions:
REMARK  status: ('A' for Active; 'I' for Inactive)
REMARK    1  A    between atoms: C_1  and  O_2
REMARK    2  A    between atoms: O_2  and  C_3
REMARK    3  A    between atoms: C_3  and  C_5
REMARK    4  A    between atoms: C_10  and  N_11
REMARK    5  A    between atoms: C_12  and  C_14
REMARK    6  A    between atoms: C_15  and  C_16
REMARK                            x       y       z     vdW  Elec       q    Type
REMARK                         _______ _______ _______ _____ _____    ______ ____
ROOT
ATOM      1  N   UNL     1       6.304   7.334  16.990  0.00  0.00    +0.000 N 
ATOM      2  C   UNL     1       7.432   7.501  17.767  0.00  0.00    +0.000 C 
ATOM      3  O   UNL     1       7.880   6.691  18.577  0.00  0.00    +0.000 OA
ATOM      4  H   UNL     1       6.141   7.985  16.228  0.00  0.00    +0.000 HD
ENDROOT
BRANCH   1  10
ATOM      5  C   UNL     1       5.595   5.077  16.222  0.00  0.00    +0.000 A 
ATOM      6  C   UNL     1       4.715   3.979  16.369  0.00  0.00    +0.000 A 
ATOM      7  C   UNL     1       3.680   3.991  17.301  0.00  0.00    +0.000 A 
ATOM      8  C   UNL     1       3.491   5.113  18.088  0.00  0.00    +0.000 A 
ATOM      9  C   UNL     1       4.344   6.209  17.950  0.00  0.00    +0.000 A 
ATOM     10  C   UNL     1       5.426   6.211  17.049  0.00  0.00    +0.000 A 
BRANCH   5  11
ATOM     11  C   UNL     1       6.667   4.869  15.202  0.00  0.00    +0.000 C 
ATOM     12  O   UNL     1       7.564   5.676  15.013  0.00  0.00    +0.000 OA
BRANCH  11  14
ATOM     13  C   UNL     1       6.406   3.920  13.097  0.00  0.00    +0.000 C 
ATOM     14  O   UNL     1       6.526   3.707  14.510  0.00  0.00    +0.000 OA
ENDBRANCH  11  14
ENDBRANCH   5  11
ENDBRANCH   1  10
BRANCH   2  15
ATOM     15  C   UNL     1       8.173   8.765  17.520  0.00  0.00    +0.000 C 
ATOM     16  C   UNL     1       8.598   9.437  18.602  0.00  0.00    +0.000 C 
BRANCH  16  17
ATOM     17  C   UNL     1       9.323  10.652  18.512  0.00  0.00    +0.000 A 
ATOM     18  C   UNL     1       8.964  11.809  17.828  0.00  0.00    +0.000 A 
ATOM     19  C   UNL     1       9.982  12.768  18.033  0.00  0.00    +0.000 A 
ATOM     20  C   UNL     1      10.917  12.154  18.827  0.00  0.00    +0.000 A 
ATOM     21  O   UNL     1      10.535  10.887  19.119  0.00  0.00    +0.000 OA
ENDBRANCH  16  17
ENDBRANCH   2  15
TORSDOF 5
ENDMDL
MODEL 4
REMARK VINA RESULT:      -7.3      4.690      6.366
REMARK  Name = 
REMARK  6 active torsions:
REMARK  status: ('A' for Active; 'I' for Inactive)
REMARK    1  A    between atoms: C_1  and  O_2
REMARK    2  A    between atoms: O_2  and  C_3
REMARK    3  A    between atoms: C_3  and  C_5
REMARK    4  A    between atoms: C_10  and  N_11
REMARK    5  A    between atoms: C_12  and  C_14
REMARK    6  A    between atoms: C_15  and  C_16
REMARK                            x       y       z     vdW  Elec       q    Type
REMARK                         _______ _______ _______ _____ _____    ______ ____
ROOT
ATOM      1  N   UNL     1       6.424   7.625  17.043  0.00  0.00    +0.000 N 
ATOM      2  C   UNL     1       7.553   7.809  17.815  0.00  0.00    +0.000 C 
ATOM      3  O   UNL     1       7.999   7.021  18.647  0.00  0.00    +0.000 OA
ATOM      4  H   UNL     1       6.262   8.255  16.263  0.00  0.00    +0.000 HD
ENDROOT
BRANCH   1  10
ATOM      5  C   UNL     1       5.933   5.206  16.739  0.00  0.00    +0.000 A 
ATOM      6  C   UNL     1       5.023   4.134  16.901  0.00  0.00    +0.000 A 
ATOM      7  C   UNL     1       3.750   4.330  17.430  0.00  0.00    +0.000 A 
ATOM      8  C   UNL     1       3.353   5.607  17.785  0.00  0.00    +0.000 A 
ATOM      9  C   UNL     1       4.235   6.676  17.623  0.00  0.00    +0.000 A 
ATOM     10  C   UNL     1       5.543   6.506  17.132  0.00  0.00    +0.000 A 
BRANCH   5  11
ATOM     11  C   UNL     1       7.264   4.800  16.194  0.00  0.00    +0.000 C 
ATOM     12  O   UNL     1       8.045   4.097  16.817  0.00  0.00    +0.000 OA
BRANCH  11  14
ATOM     13  C   UNL     1       6.800   4.606  13.925  0.00  0.00    +0.000 C 
ATOM     14  O   UNL     1       7.510   5.305  14.956  0.00  0.00    +0.000 OA
ENDBRANCH  11  14
ENDBRANCH   5  11
ENDBRANCH   1  10
BRANCH   2  15
ATOM     15  C   UNL     1       8.297   9.065  17.534  0.00  0.00    +0.000 C 
ATOM     16  C   UNL     1       8.734   9.759  18.597  0.00  0.00    +0.000 C 
BRANCH  16  17
ATOM     17  C   UNL     1       9.464  10.968  18.473  0.00  0.00    +0.000 A 
ATOM     18  C   UNL     1      10.671  11.299  19.078  0.00  0.00    +0.000 A 
ATOM     19  C   UNL     1      11.029  12.598  18.652  0.00  0.00    +0.000 A 
ATOM     20  C   UNL     1      10.024  13.004  17.812  0.00  0.00    +0.000 A 
ATOM     21  O   UNL     1       9.080  12.037  17.698  0.00  0.00    +0.000 OA
ENDBRANCH  16  17
ENDBRANCH   2  15
TORSDOF 5
ENDMDL
MODEL 5
REMARK VINA RESULT:      -7.2      1.025      1.262
REMARK  Name = 
REMARK  6 active torsions:
REMARK  status: ('A' for Active; 'I' for Inactive)
REMARK    1  A    between atoms: C_1  and  O_2
REMARK    2  A    between atoms: O_2  and  C_3
REMARK    3  A    between atoms: C_3  and  C_5
REMARK    4  A    between atoms: C_10  and  N_11
REMARK    5  A    between atoms: C_12  and  C_14
REMARK    6  A    between atoms: C_15  and  C_16
REMARK                            x       y       z     vdW  Elec       q    Type
REMARK                         _______ _______ _______ _____ _____    ______ ____
ROOT
ATOM      1  N   UNL     1       4.815   3.549  17.947  0.00  0.00    +0.000 N 
ATOM      2  C   UNL     1       5.841   4.472  17.970  0.00  0.00    +0.000 C 
ATOM      3  O   UNL     1       6.151   5.188  18.921  0.00  0.00    +0.000 OA
ATOM      4  H   UNL     1       4.775   2.889  17.176  0.00  0.00    +0.000 HD
ENDROOT
BRANCH   1  10
ATOM      5  C   UNL     1       2.592   3.866  19.016  0.00  0.00    +0.000 A 
ATOM      6  C   UNL     1       1.715   3.555  20.082  0.00  0.00    +0.000 A 
ATOM      7  C   UNL     1       2.107   2.731  21.134  0.00  0.00    +0.000 A 
ATOM      8  C   UNL     1       3.393   2.221  21.151  0.00  0.00    +0.000 A 
ATOM      9  C   UNL     1       4.273   2.525  20.111  0.00  0.00    +0.000 A 
ATOM     10  C   UNL     1       3.895   3.319  19.013  0.00  0.00    +0.000 A 
BRANCH   5  11
ATOM     11  C   UNL     1       1.985   4.732  17.959  0.00  0.00    +0.000 C 
ATOM     12  O   UNL     1       0.947   4.442  17.385  0.00  0.00    +0.000 OA
BRANCH  11  14
ATOM     13  C   UNL     1       2.440   6.910  18.626  0.00  0.00    +0.000 C 
ATOM     14  O   UNL     1       2.715   5.850  17.702  0.00  0.00    +0.000 OA
ENDBRANCH  11  14
ENDBRANCH   5  11
ENDBRANCH   1  10
BRANCH   2  15
ATOM     15  C   UNL     1       6.654   4.525  16.727  0.00  0.00    +0.000 C 
ATOM     16  C   UNL     1       5.982   4.540  15.565  0.00  0.00    +0.000 C 
BRANCH  16  17
ATOM     17  C   UNL     1       6.632   4.597  14.306  0.00  0.00    +0.000 A 
ATOM     18  C   UNL     1       6.357   3.842  13.171  0.00  0.00    +0.000 A 
ATOM     19  C   UNL     1       7.244   4.254  12.151  0.00  0.00    +0.000 A 
ATOM     20  C   UNL     1       8.023   5.235  12.708  0.00  0.00    +0.000 A 
ATOM     21  O   UNL     1       7.667   5.449  13.999  0.00  0.00    +0.000 OA
ENDBRANCH  16  17
ENDBRANCH   2  15
TORSDOF 5
ENDMDL
MODEL 6
REMARK VINA RESULT:      -7.1      1.642      2.637
REMARK  Name = 
REMARK  6 active torsions:
REMARK  status: ('A' for Active; 'I' for Inactive)
REMARK    1  A    between atoms: C_1  and  O_2
REMARK    2  A    between atoms: O_2  and  C_3
REMARK    3  A    between atoms: C_3  and  C_5
REMARK    4  A    between atoms: C_10  and  N_11
REMARK    5  A    between atoms: C_12  and  C_14
REMARK    6  A    between atoms: C_15  and  C_16
REMARK                            x       y       z     vdW  Elec       q    Type
REMARK                         _______ _______ _______ _____ _____    ______ ____
ROOT
ATOM      1  N   UNL     1       4.612   4.947  17.847  0.00  0.00    +0.000 N 
ATOM      2  C   UNL     1       5.985   4.963  17.987  0.00  0.00    +0.000 C 
ATOM      3  O   UNL     1       6.606   4.885  19.045  0.00  0.00    +0.000 OA
ATOM      4  H   UNL     1       4.221   4.830  16.917  0.00  0.00    +0.000 HD
ENDROOT
BRANCH   1  10
ATOM      5  C   UNL     1       3.446   3.729  19.675  0.00  0.00    +0.000 A 
ATOM      6  C   UNL     1       2.541   3.771  20.762  0.00  0.00    +0.000 A 
ATOM      7  C   UNL     1       1.865   4.939  21.105  0.00  0.00    +0.000 A 
ATOM      8  C   UNL     1       2.064   6.082  20.351  0.00  0.00    +0.000 A 
ATOM      9  C   UNL     1       2.946   6.055  19.271  0.00  0.00    +0.000 A 
ATOM     10  C   UNL     1       3.678   4.903  18.925  0.00  0.00    +0.000 A 
BRANCH   5  11
ATOM     11  C   UNL     1       4.108   2.402  19.482  0.00  0.00    +0.000 C 
ATOM     12  O   UNL     1       4.824   1.893  20.330  0.00  0.00    +0.000 OA
BRANCH  11  14
ATOM     13  C   UNL     1       2.454   1.937  17.918  0.00  0.00    +0.000 C 
ATOM     14  O   UNL     1       3.840   1.844  18.272  0.00  0.00    +0.000 OA
ENDBRANCH  11  14
ENDBRANCH   5  11
ENDBRANCH   1  10
BRANCH   2  15
ATOM     15  C   UNL     1       6.737   5.021  16.707  0.00  0.00    +0.000 C 
ATOM     16  C   UNL     1       6.079   4.639  15.601  0.00  0.00    +0.000 C 
BRANCH  16  17
ATOM     17  C   UNL     1       6.673   4.652  14.314  0.00  0.00    +0.000 A 
ATOM     18  C   UNL     1       6.328   3.880  13.210  0.00  0.00    +0.000 A 
ATOM     19  C   UNL     1       7.179   4.245  12.142  0.00  0.00    +0.000 A 
ATOM     20  C   UNL     1       8.007   5.217  12.642  0.00  0.00    +0.000 A 
ATOM     21  O   UNL     1       7.715   5.468  13.942  0.00  0.00    +0.000 OA
ENDBRANCH  16  17
ENDBRANCH   2  15
TORSDOF 5
ENDMDL
MODEL 7
REMARK VINA RESULT:      -7.0      1.706      2.752
REMARK  Name = 
REMARK  6 active torsions:
REMARK  status: ('A' for Active; 'I' for Inactive)
REMARK    1  A    between atoms: C_1  and  O_2
REMARK    2  A    between atoms: O_2  and  C_3
REMARK    3  A    between atoms: C_3  and  C_5
REMARK    4  A    between atoms: C_10  and  N_11
REMARK    5  A    between atoms: C_12  and  C_14
REMARK    6  A    between atoms: C_15  and  C_16
REMARK                            x       y       z     vdW  Elec       q    Type
REMARK                         _______ _______ _______ _____ _____    ______ ____
ROOT
ATOM      1  N   UNL     1       4.192   5.029  17.549  0.00  0.00    +0.000 N 
ATOM      2  C   UNL     1       5.529   4.763  17.768  0.00  0.00    +0.000 C 
ATOM      3  O   UNL     1       6.057   4.553  18.859  0.00  0.00    +0.000 OA
ATOM      4  H   UNL     1       3.842   4.999  16.596  0.00  0.00    +0.000 HD
ENDROOT
BRANCH   1  10
ATOM      5  C   UNL     1       2.395   4.092  18.990  0.00  0.00    +0.000 A 
ATOM      6  C   UNL     1       1.471   4.293  20.043  0.00  0.00    +0.000 A 
ATOM      7  C   UNL     1       1.333   5.529  20.669  0.00  0.00    +0.000 A 
ATOM      8  C   UNL     1       2.101   6.595  20.237  0.00  0.00    +0.000 A 
ATOM      9  C   UNL     1       3.011   6.417  19.195  0.00  0.00    +0.000 A 
ATOM     10  C   UNL     1       3.206   5.170  18.570  0.00  0.00    +0.000 A 
BRANCH   5  11
ATOM     11  C   UNL     1       2.432   2.692  18.468  0.00  0.00    +0.000 C 
ATOM     12  O   UNL     1       2.151   2.411  17.313  0.00  0.00    +0.000 OA
BRANCH  11  14
ATOM     13  C   UNL     1       4.165   1.902  19.798  0.00  0.00    +0.000 C 
ATOM     14  O   UNL     1       2.790   1.781  19.411  0.00  0.00    +0.000 OA
ENDBRANCH  11  14
ENDBRANCH   5  11
ENDBRANCH   1  10
BRANCH   2  15
ATOM     15  C   UNL     1       6.353   4.673  16.535  0.00  0.00    +0.000 C 
ATOM     16  C   UNL     1       5.690   4.584  15.371  0.00  0.00    +0.000 C 
BRANCH  16  17
ATOM     17  C   UNL     1       6.351   4.501  14.119  0.00  0.00    +0.000 A 
ATOM     18  C   UNL     1       6.092   3.616  13.078  0.00  0.00    +0.000 A 
ATOM     19  C   UNL     1       6.985   3.913  12.023  0.00  0.00    +0.000 A 
ATOM     20  C   UNL     1       7.750   4.961  12.468  0.00  0.00    +0.000 A 
ATOM     21  O   UNL     1       7.381   5.320  13.722  0.00  0.00    +0.000 OA
ENDBRANCH  16  17
ENDBRANCH   2  15
TORSDOF 5
ENDMDL
MODEL 8
REMARK VINA RESULT:      -6.9      4.315      5.892
REMARK  Name = 
REMARK  6 active torsions:
REMARK  status: ('A' for Active; 'I' for Inactive)
REMARK    1  A    between atoms: C_1  and  O_2
REMARK    2  A    between atoms: O_2  and  C_3
REMARK    3  A    between atoms: C_3  and  C_5
REMARK    4  A    between atoms: C_10  and  N_11
REMARK    5  A    between atoms: C_12  and  C_14
REMARK    6  A    between atoms: C_15  and  C_16
REMARK                            x       y       z     vdW  Elec       q    Type
REMARK                         _______ _______ _______ _____ _____    ______ ____
ROOT
ATOM      1  N   UNL     1       6.725   6.274  18.455  0.00  0.00    +0.000 N 
ATOM      2  C   UNL     1       7.076   7.325  17.632  0.00  0.00    +0.000 C 
ATOM      3  O   UNL     1       6.477   7.685  16.620  0.00  0.00    +0.000 OA
ATOM      4  H   UNL     1       7.184   6.191  19.357  0.00  0.00    +0.000 HD
ENDROOT
BRANCH   1  10
ATOM      5  C   UNL     1       5.645   4.430  17.183  0.00  0.00    +0.000 A 
ATOM      6  C   UNL     1       4.550   3.544  17.046  0.00  0.00    +0.000 A 
ATOM      7  C   UNL     1       3.458   3.593  17.908  0.00  0.00    +0.000 A 
ATOM      8  C   UNL     1       3.430   4.546  18.911  0.00  0.00    +0.000 A 
ATOM      9  C   UNL     1       4.497   5.433  19.054  0.00  0.00    +0.000 A 
ATOM     10  C   UNL     1       5.635   5.382  18.226  0.00  0.00    +0.000 A 
BRANCH   5  11
ATOM     11  C   UNL     1       6.742   4.202  16.193  0.00  0.00    +0.000 C 
ATOM     12  O   UNL     1       7.923   4.321  16.479  0.00  0.00    +0.000 OA
BRANCH  11  14
ATOM     13  C   UNL     1       6.874   4.666  13.920  0.00  0.00    +0.000 C 
ATOM     14  O   UNL     1       6.284   3.871  14.957  0.00  0.00    +0.000 OA
ENDBRANCH  11  14
ENDBRANCH   5  11
ENDBRANCH   1  10
BRANCH   2  15
ATOM     15  C   UNL     1       8.260   8.100  18.088  0.00  0.00    +0.000 C 
ATOM     16  C   UNL     1       8.136   9.436  18.106  0.00  0.00    +0.000 C 
BRANCH  16  17
ATOM     17  C   UNL     1       9.183  10.295  18.526  0.00  0.00    +0.000 A 
ATOM     18  C   UNL     1       9.616  10.537  19.826  0.00  0.00    +0.000 A 
ATOM     19  C   UNL     1      10.694  11.448  19.761  0.00  0.00    +0.000 A 
ATOM     20  C   UNL     1      10.869  11.726  18.429  0.00  0.00    +0.000 A 
ATOM     21  O   UNL     1       9.968  11.042  17.680  0.00  0.00    +0.000 OA
ENDBRANCH  16  17
ENDBRANCH   2  15
TORSDOF 5
ENDMDL
MODEL 9
REMARK VINA RESULT:      -6.9      4.545      6.467
REMARK  Name = 
REMARK  6 active torsions:
REMARK  status: ('A' for Active; 'I' for Inactive)
REMARK    1  A    between atoms: C_1  and  O_2
REMARK    2  A    between atoms: O_2  and  C_3
REMARK    3  A    between atoms: C_3  and  C_5
REMARK    4  A    between atoms: C_10  and  N_11
REMARK    5  A    between atoms: C_12  and  C_14
REMARK    6  A    between atoms: C_15  and  C_16
REMARK                            x       y       z     vdW  Elec       q    Type
REMARK                         _______ _______ _______ _____ _____    ______ ____
ROOT
ATOM      1  N   UNL     1       7.786   6.320  17.625  0.00  0.00    +0.000 N 
ATOM      2  C   UNL     1       7.620   7.690  17.615  0.00  0.00    +0.000 C 
ATOM      3  O   UNL     1       6.748   8.310  17.008  0.00  0.00    +0.000 OA
ATOM      4  H   UNL     1       8.419   5.913  18.307  0.00  0.00    +0.000 HD
ENDROOT
BRANCH   1  10
ATOM      5  C   UNL     1       5.912   4.696  17.434  0.00  0.00    +0.000 A 
ATOM      6  C   UNL     1       5.151   3.829  16.614  0.00  0.00    +0.000 A 
ATOM      7  C   UNL     1       5.457   3.638  15.269  0.00  0.00    +0.000 A 
ATOM      8  C   UNL     1       6.547   4.294  14.724  0.00  0.00    +0.000 A 
ATOM      9  C   UNL     1       7.313   5.146  15.521  0.00  0.00    +0.000 A 
ATOM     10  C   UNL     1       7.004   5.393  16.872  0.00  0.00    +0.000 A 
BRANCH   5  11
ATOM     11  C   UNL     1       5.411   4.805  18.838  0.00  0.00    +0.000 C 
ATOM     12  O   UNL     1       6.157   4.943  19.795  0.00  0.00    +0.000 OA
BRANCH  11  14
ATOM     13  C   UNL     1       3.439   5.988  19.170  0.00  0.00    +0.000 C 
ATOM     14  O   UNL     1       4.057   4.717  18.929  0.00  0.00    +0.000 OA
ENDBRANCH  11  14
ENDBRANCH   5  11
ENDBRANCH   1  10
BRANCH   2  15
ATOM     15  C   UNL     1       8.570   8.435  18.481  0.00  0.00    +0.000 C 
ATOM     16  C   UNL     1       8.607   9.768  18.330  0.00  0.00    +0.000 C 
BRANCH  16  17
ATOM     17  C   UNL     1       9.461  10.602  19.096  0.00  0.00    +0.000 A 
ATOM     18  C   UNL     1      10.591  11.289  18.666  0.00  0.00    +0.000 A 
ATOM     19  C   UNL     1      11.111  12.003  19.768  0.00  0.00    +0.000 A 
ATOM     20  C   UNL     1      10.281  11.717  20.822  0.00  0.00    +0.000 A 
ATOM     21  O   UNL     1       9.290  10.878  20.432  0.00  0.00    +0.000 OA
ENDBRANCH  16  17
ENDBRANCH   2  15
TORSDOF 5
ENDMDL
