MODEL 1
REMARK VINA RESULT:     -10.0      0.000      0.000
REMARK  Name = 
REMARK  9 active torsions:
REMARK  status: ('A' for Active; 'I' for Inactive)
REMARK    1  A    between atoms: C_1  and  C_2
REMARK    2  A    between atoms: C_4  and  C_5
REMARK    3  A    between atoms: C_7  and  S_8
REMARK    4  A    between atoms: S_8  and  C_11
REMARK    5  A    between atoms: C_12  and  C_13
REMARK    6  A    between atoms: N_15  and  C_16
REMARK    7  A    between atoms: C_16  and  C_17
REMARK    8  A    between atoms: C_17  and  C_18
REMARK    9  A    between atoms: C_23  and  C_24
REMARK                            x       y       z     vdW  Elec       q    Type
REMARK                         _______ _______ _______ _____ _____    ______ ____
ROOT
ATOM      1  C   UNL     1       6.202   4.942  16.357  0.00  0.00    +0.000 A 
ATOM      2  C   UNL     1       7.153   5.931  16.610  0.00  0.00    +0.000 A 
ATOM      3  N   UNL     1       7.840   6.100  15.422  0.00  0.00    +0.000 N 
ATOM      4  C   UNL     1       7.321   5.332  14.415  0.00  0.00    +0.000 A 
ATOM      5  C   UNL     1       7.703   5.238  13.071  0.00  0.00    +0.000 A 
ATOM      6  C   UNL     1       7.000   4.345  12.258  0.00  0.00    +0.000 A 
ATOM      7  C   UNL     1       5.970   3.571  12.780  0.00  0.00    +0.000 A 
ATOM      8 CL   UNL     1       5.119   2.480  11.754  0.00  0.00    +0.000 Cl
ATOM      9  C   UNL     1       5.611   3.666  14.127  0.00  0.00    +0.000 A 
ATOM     10  C   UNL     1       6.293   4.576  14.970  0.00  0.00    +0.000 A 
ATOM     11  H   UNL     1       8.654   6.694  15.324  0.00  0.00    +0.000 HD
ENDROOT
BRANCH   2  12
ATOM     12  C   UNL     1       7.537   6.661  17.804  0.00  0.00    +0.000 C 
ATOM     13  O   UNL     1       7.559   6.179  18.928  0.00  0.00    +0.000 OA
ATOM     14  N   UNL     1       7.904   7.968  17.534  0.00  0.00    +0.000 N 
ATOM     15  H   UNL     1       7.655   8.361  16.640  0.00  0.00    +0.000 HD
BRANCH  14  16
ATOM     16  C   UNL     1       8.373   8.898  18.555  0.00  0.00    +0.000 C 
BRANCH  16  17
ATOM     17  C   UNL     1       8.557  10.334  18.014  0.00  0.00    +0.000 C 
BRANCH  17  18
ATOM     18  C   UNL     1       9.781  11.084  18.521  0.00  0.00    +0.000 A 
ATOM     19  C   UNL     1      10.751  11.476  17.578  0.00  0.00    +0.000 A 
ATOM     20  C   UNL     1      11.911  12.151  17.962  0.00  0.00    +0.000 A 
ATOM     21  C   UNL     1      12.130  12.450  19.299  0.00  0.00    +0.000 A 
ATOM     22  C   UNL     1      11.199  12.050  20.254  0.00  0.00    +0.000 A 
ATOM     23  C   UNL     1      10.031  11.351  19.888  0.00  0.00    +0.000 A 
ATOM     24  C   UNL     1       9.106  10.933  21.000  0.00  0.00    +0.000 C 
ENDBRANCH  17  18
ENDBRANCH  16  17
ENDBRANCH  14  16
ENDBRANCH   2  12
BRANCH   1  25
ATOM     25  S   UNL     1       5.080   4.161  17.424  0.00  0.00    +0.000 S 
ATOM     26  O   UNL     1       5.931   3.612  18.461  0.00  0.00    +0.000 OA
ATOM     27  O   UNL     1       4.285   3.306  16.565  0.00  0.00    +0.000 OA
BRANCH  25  34
ATOM     28  C   UNL     1       2.799   8.873  17.481  0.00  0.00    +0.000 C 
ATOM     29  C   UNL     1       2.929   7.505  18.083  0.00  0.00    +0.000 A 
ATOM     30  C   UNL     1       2.193   7.145  19.225  0.00  0.00    +0.000 A 
ATOM     31  C   UNL     1       2.319   5.870  19.794  0.00  0.00    +0.000 A 
ATOM     32  C   UNL     1       1.544   5.467  21.012  0.00  0.00    +0.000 C 
ATOM     33  C   UNL     1       3.204   4.955  19.224  0.00  0.00    +0.000 A 
ATOM     34  C   UNL     1       3.966   5.325  18.117  0.00  0.00    +0.000 A 
ATOM     35  C   UNL     1       3.805   6.576  17.515  0.00  0.00    +0.000 A 
ENDBRANCH  25  34
ENDBRANCH   1  25
TORSDOF 6
ENDMDL
MODEL 2
REMARK VINA RESULT:      -9.9      0.117      1.512
REMARK  Name = 
REMARK  9 active torsions:
REMARK  status: ('A' for Active; 'I' for Inactive)
REMARK    1  A    between atoms: C_1  and  C_2
REMARK    2  A    between atoms: C_4  and  C_5
REMARK    3  A    between atoms: C_7  and  S_8
REMARK    4  A    between atoms: S_8  and  C_11
REMARK    5  A    between atoms: C_12  and  C_13
REMARK    6  A    between atoms: N_15  and  C_16
REMARK    7  A    between atoms: C_16  and  C_17
REMARK    8  A    between atoms: C_17  and  C_18
REMARK    9  A    between atoms: C_23  and  C_24
REMARK                            x       y       z     vdW  Elec       q    Type
REMARK                         _______ _______ _______ _____ _____    ______ ____
ROOT
ATOM      1  C   UNL     1       6.166   4.912  16.424  0.00  0.00    +0.000 A 
ATOM      2  C   UNL     1       7.116   5.895  16.701  0.00  0.00    +0.000 A 
ATOM      3  N   UNL     1       7.814   6.082  15.521  0.00  0.00    +0.000 N 
ATOM      4  C   UNL     1       7.301   5.332  14.498  0.00  0.00    +0.000 A 
ATOM      5  C   UNL     1       7.695   5.258  13.156  0.00  0.00    +0.000 A 
ATOM      6  C   UNL     1       6.996   4.379  12.323  0.00  0.00    +0.000 A 
ATOM      7  C   UNL     1       5.960   3.599  12.824  0.00  0.00    +0.000 A 
ATOM      8 CL   UNL     1       5.116   2.527  11.774  0.00  0.00    +0.000 Cl
ATOM      9  C   UNL     1       5.591   3.674  14.170  0.00  0.00    +0.000 A 
ATOM     10  C   UNL     1       6.267   4.568  15.032  0.00  0.00    +0.000 A 
ATOM     11  H   UNL     1       8.630   6.676  15.440  0.00  0.00    +0.000 HD
ENDROOT
BRANCH   2  12
ATOM     12  C   UNL     1       7.492   6.605  17.909  0.00  0.00    +0.000 C 
ATOM     13  O   UNL     1       7.438   6.127  19.034  0.00  0.00    +0.000 OA
ATOM     14  N   UNL     1       7.948   7.888  17.654  0.00  0.00    +0.000 N 
ATOM     15  H   UNL     1       7.761   8.291  16.750  0.00  0.00    +0.000 HD
BRANCH  14  16
ATOM     16  C   UNL     1       8.428   8.791  18.693  0.00  0.00    +0.000 C 
BRANCH  16  17
ATOM     17  C   UNL     1       8.534  10.255  18.209  0.00  0.00    +0.000 C 
BRANCH  17  18
ATOM     18  C   UNL     1       9.761  11.024  18.677  0.00  0.00    +0.000 A 
ATOM     19  C   UNL     1      10.743  11.345  17.720  0.00  0.00    +0.000 A 
ATOM     20  C   UNL     1      11.906  12.032  18.070  0.00  0.00    +0.000 A 
ATOM     21  C   UNL     1      12.117  12.413  19.387  0.00  0.00    +0.000 A 
ATOM     22  C   UNL     1      11.175  12.084  20.357  0.00  0.00    +0.000 A 
ATOM     23  C   UNL     1      10.002  11.375  20.026  0.00  0.00    +0.000 A 
ATOM     24  C   UNL     1       9.064  11.038  21.154  0.00  0.00    +0.000 C 
ENDBRANCH  17  18
ENDBRANCH  16  17
ENDBRANCH  14  16
ENDBRANCH   2  12
BRANCH   1  25
ATOM     25  S   UNL     1       5.034   4.117  17.469  0.00  0.00    +0.000 S 
ATOM     26  O   UNL     1       5.875   3.550  18.506  0.00  0.00    +0.000 OA
ATOM     27  O   UNL     1       4.245   3.277  16.591  0.00  0.00    +0.000 OA
BRANCH  25  34
ATOM     28  C   UNL     1       1.503   5.485  21.085  0.00  0.00    +0.000 C 
ATOM     29  C   UNL     1       2.310   5.858  19.876  0.00  0.00    +0.000 A 
ATOM     30  C   UNL     1       2.160   7.115  19.267  0.00  0.00    +0.000 A 
ATOM     31  C   UNL     1       2.906   7.463  18.132  0.00  0.00    +0.000 A 
ATOM     32  C   UNL     1       2.760   8.798  17.467  0.00  0.00    +0.000 C 
ATOM     33  C   UNL     1       3.797   6.535  17.593  0.00  0.00    +0.000 A 
ATOM     34  C   UNL     1       3.916   5.272  18.171  0.00  0.00    +0.000 A 
ATOM     35  C   UNL     1       3.213   4.940  19.332  0.00  0.00    +0.000 A 
ENDBRANCH  25  34
ENDBRANCH   1  25
TORSDOF 6
ENDMDL
MODEL 3
REMARK VINA RESULT:      -9.7      0.445      1.302
REMARK  Name = 
REMARK  9 active torsions:
REMARK  status: ('A' for Active; 'I' for Inactive)
REMARK    1  A    between atoms: C_1  and  C_2
REMARK    2  A    between atoms: C_4  and  C_5
REMARK    3  A    between atoms: C_7  and  S_8
REMARK    4  A    between atoms: S_8  and  C_11
REMARK    5  A    between atoms: C_12  and  C_13
REMARK    6  A    between atoms: N_15  and  C_16
REMARK    7  A    between atoms: C_16  and  C_17
REMARK    8  A    between atoms: C_17  and  C_18
REMARK    9  A    between atoms: C_23  and  C_24
REMARK                            x       y       z     vdW  Elec       q    Type
REMARK                         _______ _______ _______ _____ _____    ______ ____
ROOT
ATOM      1  C   UNL     1       6.036   4.870  16.336  0.00  0.00    +0.000 A 
ATOM      2  C   UNL     1       7.019   5.812  16.639  0.00  0.00    +0.000 A 
ATOM      3  N   UNL     1       7.758   5.965  15.479  0.00  0.00    +0.000 N 
ATOM      4  C   UNL     1       7.243   5.235  14.443  0.00  0.00    +0.000 A 
ATOM      5  C   UNL     1       7.671   5.141  13.112  0.00  0.00    +0.000 A 
ATOM      6  C   UNL     1       6.958   4.291  12.261  0.00  0.00    +0.000 A 
ATOM      7  C   UNL     1       5.876   3.558  12.733  0.00  0.00    +0.000 A 
ATOM      8 CL   UNL     1       5.017   2.520  11.661  0.00  0.00    +0.000 Cl
ATOM      9  C   UNL     1       5.472   3.652  14.067  0.00  0.00    +0.000 A 
ATOM     10  C   UNL     1       6.162   4.518  14.948  0.00  0.00    +0.000 A 
ATOM     11  H   UNL     1       8.601   6.523  15.420  0.00  0.00    +0.000 HD
ENDROOT
BRANCH   2  12
ATOM     12  C   UNL     1       7.391   6.508  17.856  0.00  0.00    +0.000 C 
ATOM     13  O   UNL     1       7.264   6.044  18.980  0.00  0.00    +0.000 OA
ATOM     14  N   UNL     1       7.934   7.758  17.611  0.00  0.00    +0.000 N 
ATOM     15  H   UNL     1       7.808   8.164  16.698  0.00  0.00    +0.000 HD
BRANCH  14  16
ATOM     16  C   UNL     1       8.428   8.639  18.663  0.00  0.00    +0.000 C 
BRANCH  16  17
ATOM     17  C   UNL     1       8.832  10.033  18.131  0.00  0.00    +0.000 C 
BRANCH  17  18
ATOM     18  C   UNL     1       9.534  10.947  19.126  0.00  0.00    +0.000 A 
ATOM     19  C   UNL     1       9.018  11.017  20.435  0.00  0.00    +0.000 A 
ATOM     20  C   UNL     1       9.591  11.845  21.402  0.00  0.00    +0.000 A 
ATOM     21  C   UNL     1      10.693  12.625  21.083  0.00  0.00    +0.000 A 
ATOM     22  C   UNL     1      11.205  12.594  19.789  0.00  0.00    +0.000 A 
ATOM     23  C   UNL     1      10.629  11.779  18.794  0.00  0.00    +0.000 A 
ATOM     24  C   UNL     1      11.236  11.845  17.418  0.00  0.00    +0.000 C 
ENDBRANCH  17  18
ENDBRANCH  16  17
ENDBRANCH  14  16
ENDBRANCH   2  12
BRANCH   1  25
ATOM     25  S   UNL     1       4.841   4.127  17.349  0.00  0.00    +0.000 S 
ATOM     26  O   UNL     1       5.632   3.458  18.364  0.00  0.00    +0.000 OA
ATOM     27  O   UNL     1       3.993   3.384  16.439  0.00  0.00    +0.000 OA
BRANCH  25  34
ATOM     28  C   UNL     1       2.785   8.939  17.515  0.00  0.00    +0.000 C 
ATOM     29  C   UNL     1       2.878   7.564  18.109  0.00  0.00    +0.000 A 
ATOM     30  C   UNL     1       2.177   7.234  19.281  0.00  0.00    +0.000 A 
ATOM     31  C   UNL     1       2.269   5.953  19.842  0.00  0.00    +0.000 A 
ATOM     32  C   UNL     1       1.531   5.581  21.092  0.00  0.00    +0.000 C 
ATOM     33  C   UNL     1       3.085   5.000  19.232  0.00  0.00    +0.000 A 
ATOM     34  C   UNL     1       3.813   5.338  18.093  0.00  0.00    +0.000 A 
ATOM     35  C   UNL     1       3.685   6.598  17.501  0.00  0.00    +0.000 A 
ENDBRANCH  25  34
ENDBRANCH   1  25
TORSDOF 6
ENDMDL
MODEL 4
REMARK VINA RESULT:      -9.7      0.439      1.983
REMARK  Name = 
REMARK  9 active torsions:
REMARK  status: ('A' for Active; 'I' for Inactive)
REMARK    1  A    between atoms: C_1  and  C_2
REMARK    2  A    between atoms: C_4  and  C_5
REMARK    3  A    between atoms: C_7  and  S_8
REMARK    4  A    between atoms: S_8  and  C_11
REMARK    5  A    between atoms: C_12  and  C_13
REMARK    6  A    between atoms: N_15  and  C_16
REMARK    7  A    between atoms: C_16  and  C_17
REMARK    8  A    between atoms: C_17  and  C_18
REMARK    9  A    between atoms: C_23  and  C_24
REMARK                            x       y       z     vdW  Elec       q    Type
REMARK                         _______ _______ _______ _____ _____    ______ ____
ROOT
ATOM      1  C   UNL     1       6.069   4.880  16.271  0.00  0.00    +0.000 A 
ATOM      2  C   UNL     1       7.024   5.855  16.560  0.00  0.00    +0.000 A 
ATOM      3  N   UNL     1       7.749   6.023  15.395  0.00  0.00    +0.000 N 
ATOM      4  C   UNL     1       7.251   5.269  14.367  0.00  0.00    +0.000 A 
ATOM      5  C   UNL     1       7.673   5.179  13.035  0.00  0.00    +0.000 A 
ATOM      6  C   UNL     1       6.983   4.300  12.195  0.00  0.00    +0.000 A 
ATOM      7  C   UNL     1       5.928   3.536  12.680  0.00  0.00    +0.000 A 
ATOM      8 CL   UNL     1       5.095   2.464  11.621  0.00  0.00    +0.000 Cl
ATOM      9  C   UNL     1       5.530   3.627  14.016  0.00  0.00    +0.000 A 
ATOM     10  C   UNL     1       6.197   4.522  14.885  0.00  0.00    +0.000 A 
ATOM     11  H   UNL     1       8.573   6.607  15.326  0.00  0.00    +0.000 HD
ENDROOT
BRANCH   2  12
ATOM     12  C   UNL     1       7.381   6.572  17.770  0.00  0.00    +0.000 C 
ATOM     13  O   UNL     1       7.305   6.102  18.897  0.00  0.00    +0.000 OA
ATOM     14  N   UNL     1       7.844   7.851  17.515  0.00  0.00    +0.000 N 
ATOM     15  H   UNL     1       7.674   8.249  16.605  0.00  0.00    +0.000 HD
BRANCH  14  16
ATOM     16  C   UNL     1       8.308   8.760  18.556  0.00  0.00    +0.000 C 
BRANCH  16  17
ATOM     17  C   UNL     1       8.917  10.061  17.984  0.00  0.00    +0.000 C 
BRANCH  17  18
ATOM     18  C   UNL     1       9.605  10.972  18.990  0.00  0.00    +0.000 A 
ATOM     19  C   UNL     1       9.115  10.987  20.311  0.00  0.00    +0.000 A 
ATOM     20  C   UNL     1       9.678  11.808  21.289  0.00  0.00    +0.000 A 
ATOM     21  C   UNL     1      10.744  12.637  20.971  0.00  0.00    +0.000 A 
ATOM     22  C   UNL     1      11.229  12.661  19.667  0.00  0.00    +0.000 A 
ATOM     23  C   UNL     1      10.662  11.853  18.660  0.00  0.00    +0.000 A 
ATOM     24  C   UNL     1      11.237  11.980  17.274  0.00  0.00    +0.000 C 
ENDBRANCH  17  18
ENDBRANCH  16  17
ENDBRANCH  14  16
ENDBRANCH   2  12
BRANCH   1  25
ATOM     25  S   UNL     1       4.905   4.107  17.298  0.00  0.00    +0.000 S 
ATOM     26  O   UNL     1       5.723   3.460  18.305  0.00  0.00    +0.000 OA
ATOM     27  O   UNL     1       4.066   3.342  16.398  0.00  0.00    +0.000 OA
BRANCH  25  34
ATOM     28  C   UNL     1       1.532   5.546  21.036  0.00  0.00    +0.000 C 
ATOM     29  C   UNL     1       2.320   5.910  19.811  0.00  0.00    +0.000 A 
ATOM     30  C   UNL     1       2.205   7.183  19.230  0.00  0.00    +0.000 A 
ATOM     31  C   UNL     1       2.933   7.522  18.081  0.00  0.00    +0.000 A 
ATOM     32  C   UNL     1       2.824   8.875  17.445  0.00  0.00    +0.000 C 
ATOM     33  C   UNL     1       3.771   6.570  17.500  0.00  0.00    +0.000 A 
ATOM     34  C   UNL     1       3.854   5.292  18.052  0.00  0.00    +0.000 A 
ATOM     35  C   UNL     1       3.170   4.966  19.226  0.00  0.00    +0.000 A 
ENDBRANCH  25  34
ENDBRANCH   1  25
TORSDOF 6
ENDMDL
MODEL 5
REMARK VINA RESULT:      -9.3      1.100      1.348
REMARK  Name = 
REMARK  9 active torsions:
REMARK  status: ('A' for Active; 'I' for Inactive)
REMARK    1  A    between atoms: C_1  and  C_2
REMARK    2  A    between atoms: C_4  and  C_5
REMARK    3  A    between atoms: C_7  and  S_8
REMARK    4  A    between atoms: S_8  and  C_11
REMARK    5  A    between atoms: C_12  and  C_13
REMARK    6  A    between atoms: N_15  and  C_16
REMARK    7  A    between atoms: C_16  and  C_17
REMARK    8  A    between atoms: C_17  and  C_18
REMARK    9  A    between atoms: C_23  and  C_24
REMARK                            x       y       z     vdW  Elec       q    Type
REMARK                         _______ _______ _______ _____ _____    ______ ____
ROOT
ATOM      1  C   UNL     1       6.290   4.999  16.344  0.00  0.00    +0.000 A 
ATOM      2  C   UNL     1       7.186   6.047  16.557  0.00  0.00    +0.000 A 
ATOM      3  N   UNL     1       7.841   6.227  15.352  0.00  0.00    +0.000 N 
ATOM      4  C   UNL     1       7.349   5.408  14.373  0.00  0.00    +0.000 A 
ATOM      5  C   UNL     1       7.712   5.304  13.024  0.00  0.00    +0.000 A 
ATOM      6  C   UNL     1       7.046   4.353  12.246  0.00  0.00    +0.000 A 
ATOM      7  C   UNL     1       6.073   3.534  12.804  0.00  0.00    +0.000 A 
ATOM      8 CL   UNL     1       5.268   2.373  11.820  0.00  0.00    +0.000 Cl
ATOM      9  C   UNL     1       5.733   3.640  14.155  0.00  0.00    +0.000 A 
ATOM     10  C   UNL     1       6.377   4.607  14.964  0.00  0.00    +0.000 A 
ATOM     11  H   UNL     1       8.618   6.865  15.226  0.00  0.00    +0.000 HD
ENDROOT
BRANCH   2  12
ATOM     12  C   UNL     1       7.549   6.825  17.726  0.00  0.00    +0.000 C 
ATOM     13  O   UNL     1       7.629   6.370  18.858  0.00  0.00    +0.000 OA
ATOM     14  N   UNL     1       7.822   8.149  17.422  0.00  0.00    +0.000 N 
ATOM     15  H   UNL     1       7.527   8.505  16.527  0.00  0.00    +0.000 HD
BRANCH  14  16
ATOM     16  C   UNL     1       8.252   9.128  18.413  0.00  0.00    +0.000 C 
BRANCH  16  17
ATOM     17  C   UNL     1       9.173  10.215  17.815  0.00  0.00    +0.000 C 
BRANCH  17  18
ATOM     18  C   UNL     1       8.875  11.647  18.238  0.00  0.00    +0.000 A 
ATOM     19  C   UNL     1       8.064  12.428  17.392  0.00  0.00    +0.000 A 
ATOM     20  C   UNL     1       7.757  13.756  17.697  0.00  0.00    +0.000 A 
ATOM     21  C   UNL     1       8.258  14.335  18.854  0.00  0.00    +0.000 A 
ATOM     22  C   UNL     1       9.084  13.593  19.692  0.00  0.00    +0.000 A 
ATOM     23  C   UNL     1       9.420  12.257  19.392  0.00  0.00    +0.000 A 
ATOM     24  C   UNL     1      10.349  11.553  20.345  0.00  0.00    +0.000 C 
ENDBRANCH  17  18
ENDBRANCH  16  17
ENDBRANCH  14  16
ENDBRANCH   2  12
BRANCH   1  25
ATOM     25  S   UNL     1       5.234   4.181  17.450  0.00  0.00    +0.000 S 
ATOM     26  O   UNL     1       6.133   3.711  18.486  0.00  0.00    +0.000 OA
ATOM     27  O   UNL     1       4.478   3.259  16.627  0.00  0.00    +0.000 OA
BRANCH  25  34
ATOM     28  C   UNL     1       2.764   8.797  17.504  0.00  0.00    +0.000 C 
ATOM     29  C   UNL     1       2.940   7.431  18.099  0.00  0.00    +0.000 A 
ATOM     30  C   UNL     1       2.202   7.033  19.226  0.00  0.00    +0.000 A 
ATOM     31  C   UNL     1       2.371   5.760  19.789  0.00  0.00    +0.000 A 
ATOM     32  C   UNL     1       1.594   5.317  20.991  0.00  0.00    +0.000 C 
ATOM     33  C   UNL     1       3.300   4.885  19.226  0.00  0.00    +0.000 A 
ATOM     34  C   UNL     1       4.063   5.294  18.133  0.00  0.00    +0.000 A 
ATOM     35  C   UNL     1       3.862   6.542  17.538  0.00  0.00    +0.000 A 
ENDBRANCH  25  34
ENDBRANCH   1  25
TORSDOF 6
ENDMDL
MODEL 6
REMARK VINA RESULT:      -9.3      6.646      9.777
REMARK  Name = 
REMARK  9 active torsions:
REMARK  status: ('A' for Active; 'I' for Inactive)
REMARK    1  A    between atoms: C_1  and  C_2
REMARK    2  A    between atoms: C_4  and  C_5
REMARK    3  A    between atoms: C_7  and  S_8
REMARK    4  A    between atoms: S_8  and  C_11
REMARK    5  A    between atoms: C_12  and  C_13
REMARK    6  A    between atoms: N_15  and  C_16
REMARK    7  A    between atoms: C_16  and  C_17
REMARK    8  A    between atoms: C_17  and  C_18
REMARK    9  A    between atoms: C_23  and  C_24
REMARK                            x       y       z     vdW  Elec       q    Type
REMARK                         _______ _______ _______ _____ _____    ______ ____
ROOT
ATOM      1  C   UNL     1       1.411   8.950  19.583  0.00  0.00    +0.000 A 
ATOM      2  C   UNL     1       0.876   8.416  20.755  0.00  0.00    +0.000 A 
ATOM      3  N   UNL     1       1.375   7.129  20.840  0.00  0.00    +0.000 N 
ATOM      4  C   UNL     1       2.258   6.853  19.831  0.00  0.00    +0.000 A 
ATOM      5  C   UNL     1       2.998   5.691  19.580  0.00  0.00    +0.000 A 
ATOM      6  C   UNL     1       3.819   5.678  18.449  0.00  0.00    +0.000 A 
ATOM      7  C   UNL     1       3.880   6.779  17.603  0.00  0.00    +0.000 A 
ATOM      8 CL   UNL     1       4.903   6.735  16.218  0.00  0.00    +0.000 Cl
ATOM      9  C   UNL     1       3.123   7.925  17.860  0.00  0.00    +0.000 A 
ATOM     10  C   UNL     1       2.297   7.975  19.008  0.00  0.00    +0.000 A 
ATOM     11  H   UNL     1       1.089   6.461  21.546  0.00  0.00    +0.000 HD
ENDROOT
BRANCH   2  12
ATOM     12  C   UNL     1      -0.071   8.914  21.735  0.00  0.00    +0.000 C 
ATOM     13  O   UNL     1      -0.928   8.229  22.274  0.00  0.00    +0.000 OA
ATOM     14  N   UNL     1       0.111  10.257  22.017  0.00  0.00    +0.000 N 
ATOM     15  H   UNL     1       0.675  10.807  21.389  0.00  0.00    +0.000 HD
BRANCH  14  16
ATOM     16  C   UNL     1      -0.682  10.986  22.999  0.00  0.00    +0.000 C 
BRANCH  16  17
ATOM     17  C   UNL     1      -0.843  12.482  22.645  0.00  0.00    +0.000 C 
BRANCH  17  18
ATOM     18  C   UNL     1      -2.170  13.119  23.030  0.00  0.00    +0.000 A 
ATOM     19  C   UNL     1      -3.153  12.295  23.613  0.00  0.00    +0.000 A 
ATOM     20  C   UNL     1      -4.403  12.797  23.978  0.00  0.00    +0.000 A 
ATOM     21  C   UNL     1      -4.703  14.135  23.767  0.00  0.00    +0.000 A 
ATOM     22  C   UNL     1      -3.759  14.964  23.168  0.00  0.00    +0.000 A 
ATOM     23  C   UNL     1      -2.497  14.472  22.775  0.00  0.00    +0.000 A 
ATOM     24  C   UNL     1      -1.562  15.442  22.104  0.00  0.00    +0.000 C 
ENDBRANCH  17  18
ENDBRANCH  16  17
ENDBRANCH  14  16
ENDBRANCH   2  12
BRANCH   1  25
ATOM     25  S   UNL     1       1.121  10.473  18.806  0.00  0.00    +0.000 S 
ATOM     26  O   UNL     1       1.910  10.386  17.593  0.00  0.00    +0.000 OA
ATOM     27  O   UNL     1       1.401  11.466  19.823  0.00  0.00    +0.000 OA
BRANCH  25  34
ATOM     28  C   UNL     1      -3.016   9.470  15.758  0.00  0.00    +0.000 C 
ATOM     29  C   UNL     1      -2.455  10.141  16.977  0.00  0.00    +0.000 A 
ATOM     30  C   UNL     1      -3.264  10.950  17.793  0.00  0.00    +0.000 A 
ATOM     31  C   UNL     1      -2.740  11.585  18.927  0.00  0.00    +0.000 A 
ATOM     32  C   UNL     1      -3.586  12.452  19.810  0.00  0.00    +0.000 C 
ATOM     33  C   UNL     1      -1.390  11.422  19.237  0.00  0.00    +0.000 A 
ATOM     34  C   UNL     1      -0.577  10.654  18.404  0.00  0.00    +0.000 A 
ATOM     35  C   UNL     1      -1.105   9.978  17.302  0.00  0.00    +0.000 A 
ENDBRANCH  25  34
ENDBRANCH   1  25
TORSDOF 6
ENDMDL
MODEL 7
REMARK VINA RESULT:      -9.2      6.469     10.146
REMARK  Name = 
REMARK  9 active torsions:
REMARK  status: ('A' for Active; 'I' for Inactive)
REMARK    1  A    between atoms: C_1  and  C_2
REMARK    2  A    between atoms: C_4  and  C_5
REMARK    3  A    between atoms: C_7  and  S_8
REMARK    4  A    between atoms: S_8  and  C_11
REMARK    5  A    between atoms: C_12  and  C_13
REMARK    6  A    between atoms: N_15  and  C_16
REMARK    7  A    between atoms: C_16  and  C_17
REMARK    8  A    between atoms: C_17  and  C_18
REMARK    9  A    between atoms: C_23  and  C_24
REMARK                            x       y       z     vdW  Elec       q    Type
REMARK                         _______ _______ _______ _____ _____    ______ ____
ROOT
ATOM      1  C   UNL     1       0.435  11.730  19.054  0.00  0.00    +0.000 A 
ATOM      2  C   UNL     1       1.451  10.940  18.515  0.00  0.00    +0.000 A 
ATOM      3  N   UNL     1       2.393  11.826  18.027  0.00  0.00    +0.000 N 
ATOM      4  C   UNL     1       2.066  13.126  18.303  0.00  0.00    +0.000 A 
ATOM      5  C   UNL     1       2.762  14.307  18.014  0.00  0.00    +0.000 A 
ATOM      6  C   UNL     1       2.176  15.515  18.400  0.00  0.00    +0.000 A 
ATOM      7  C   UNL     1       0.939  15.534  19.033  0.00  0.00    +0.000 A 
ATOM      8 CL   UNL     1       0.242  17.038  19.500  0.00  0.00    +0.000 Cl
ATOM      9  C   UNL     1       0.251  14.347  19.301  0.00  0.00    +0.000 A 
ATOM     10  C   UNL     1       0.828  13.107  18.939  0.00  0.00    +0.000 A 
ATOM     11  H   UNL     1       3.208  11.543  17.497  0.00  0.00    +0.000 HD
ENDROOT
BRANCH   2  12
ATOM     12  C   UNL     1       1.611   9.509  18.337  0.00  0.00    +0.000 C 
ATOM     13  O   UNL     1       1.639   8.949  17.250  0.00  0.00    +0.000 OA
ATOM     14  N   UNL     1       1.754   8.835  19.538  0.00  0.00    +0.000 N 
ATOM     15  H   UNL     1       1.504   9.313  20.389  0.00  0.00    +0.000 HD
BRANCH  14  16
ATOM     16  C   UNL     1       1.974   7.396  19.631  0.00  0.00    +0.000 C 
BRANCH  16  17
ATOM     17  C   UNL     1       3.089   6.901  18.682  0.00  0.00    +0.000 C 
BRANCH  17  18
ATOM     18  C   UNL     1       2.964   5.463  18.200  0.00  0.00    +0.000 A 
ATOM     19  C   UNL     1       1.906   4.686  18.711  0.00  0.00    +0.000 A 
ATOM     20  C   UNL     1       1.731   3.353  18.335  0.00  0.00    +0.000 A 
ATOM     21  C   UNL     1       2.611   2.764  17.439  0.00  0.00    +0.000 A 
ATOM     22  C   UNL     1       3.681   3.502  16.940  0.00  0.00    +0.000 A 
ATOM     23  C   UNL     1       3.885   4.844  17.323  0.00  0.00    +0.000 A 
ATOM     24  C   UNL     1       5.091   5.542  16.753  0.00  0.00    +0.000 C 
ENDBRANCH  17  18
ENDBRANCH  16  17
ENDBRANCH  14  16
ENDBRANCH   2  12
BRANCH   1  25
ATOM     25  S   UNL     1      -1.098  11.283  19.729  0.00  0.00    +0.000 S 
ATOM     26  O   UNL     1      -1.364  12.340  20.685  0.00  0.00    +0.000 OA
ATOM     27  O   UNL     1      -0.931   9.907  20.150  0.00  0.00    +0.000 OA
BRANCH  25  34
ATOM     28  C   UNL     1      -2.807  10.034  14.941  0.00  0.00    +0.000 C 
ATOM     29  C   UNL     1      -3.087  10.646  16.282  0.00  0.00    +0.000 A 
ATOM     30  C   UNL     1      -4.328  11.243  16.559  0.00  0.00    +0.000 A 
ATOM     31  C   UNL     1      -4.588  11.824  17.808  0.00  0.00    +0.000 A 
ATOM     32  C   UNL     1      -5.904  12.467  18.123  0.00  0.00    +0.000 C 
ATOM     33  C   UNL     1      -3.589  11.821  18.782  0.00  0.00    +0.000 A 
ATOM     34  C   UNL     1      -2.343  11.266  18.494  0.00  0.00    +0.000 A 
ATOM     35  C   UNL     1      -2.096  10.640  17.269  0.00  0.00    +0.000 A 
ENDBRANCH  25  34
ENDBRANCH   1  25
TORSDOF 6
ENDMDL
MODEL 8
REMARK VINA RESULT:      -9.1      1.093      2.014
REMARK  Name = 
REMARK  9 active torsions:
REMARK  status: ('A' for Active; 'I' for Inactive)
REMARK    1  A    between atoms: C_1  and  C_2
REMARK    2  A    between atoms: C_4  and  C_5
REMARK    3  A    between atoms: C_7  and  S_8
REMARK    4  A    between atoms: S_8  and  C_11
REMARK    5  A    between atoms: C_12  and  C_13
REMARK    6  A    between atoms: N_15  and  C_16
REMARK    7  A    between atoms: C_16  and  C_17
REMARK    8  A    between atoms: C_17  and  C_18
REMARK    9  A    between atoms: C_23  and  C_24
REMARK                            x       y       z     vdW  Elec       q    Type
REMARK                         _______ _______ _______ _____ _____    ______ ____
ROOT
ATOM      1  C   UNL     1       6.292   4.997  16.360  0.00  0.00    +0.000 A 
ATOM      2  C   UNL     1       7.186   6.048  16.565  0.00  0.00    +0.000 A 
ATOM      3  N   UNL     1       7.837   6.224  15.357  0.00  0.00    +0.000 N 
ATOM      4  C   UNL     1       7.344   5.399  14.383  0.00  0.00    +0.000 A 
ATOM      5  C   UNL     1       7.703   5.291  13.034  0.00  0.00    +0.000 A 
ATOM      6  C   UNL     1       7.038   4.334  12.262  0.00  0.00    +0.000 A 
ATOM      7  C   UNL     1       6.067   3.515  12.827  0.00  0.00    +0.000 A 
ATOM      8 CL   UNL     1       5.263   2.347  11.850  0.00  0.00    +0.000 Cl
ATOM      9  C   UNL     1       5.732   3.626  14.179  0.00  0.00    +0.000 A 
ATOM     10  C   UNL     1       6.375   4.598  14.981  0.00  0.00    +0.000 A 
ATOM     11  H   UNL     1       8.611   6.863  15.226  0.00  0.00    +0.000 HD
ENDROOT
BRANCH   2  12
ATOM     12  C   UNL     1       7.550   6.832  17.730  0.00  0.00    +0.000 C 
ATOM     13  O   UNL     1       7.676   6.374  18.856  0.00  0.00    +0.000 OA
ATOM     14  N   UNL     1       7.767   8.166  17.427  0.00  0.00    +0.000 N 
ATOM     15  H   UNL     1       7.436   8.517  16.542  0.00  0.00    +0.000 HD
BRANCH  14  16
ATOM     16  C   UNL     1       8.187   9.155  18.413  0.00  0.00    +0.000 C 
BRANCH  16  17
ATOM     17  C   UNL     1       9.155  10.207  17.827  0.00  0.00    +0.000 C 
BRANCH  17  18
ATOM     18  C   UNL     1       8.903  11.649  18.243  0.00  0.00    +0.000 A 
ATOM     19  C   UNL     1       8.069  12.436  17.425  0.00  0.00    +0.000 A 
ATOM     20  C   UNL     1       7.801  13.772  17.725  0.00  0.00    +0.000 A 
ATOM     21  C   UNL     1       8.364  14.357  18.850  0.00  0.00    +0.000 A 
ATOM     22  C   UNL     1       9.214  13.609  19.661  0.00  0.00    +0.000 A 
ATOM     23  C   UNL     1       9.511  12.263  19.364  0.00  0.00    +0.000 A 
ATOM     24  C   UNL     1      10.469  11.554  20.283  0.00  0.00    +0.000 C 
ENDBRANCH  17  18
ENDBRANCH  16  17
ENDBRANCH  14  16
ENDBRANCH   2  12
BRANCH   1  25
ATOM     25  S   UNL     1       5.242   4.181  17.472  0.00  0.00    +0.000 S 
ATOM     26  O   UNL     1       6.143   3.729  18.514  0.00  0.00    +0.000 OA
ATOM     27  O   UNL     1       4.495   3.244  16.658  0.00  0.00    +0.000 OA
BRANCH  25  34
ATOM     28  C   UNL     1       1.549   5.400  20.978  0.00  0.00    +0.000 C 
ATOM     29  C   UNL     1       2.380   5.809  19.798  0.00  0.00    +0.000 A 
ATOM     30  C   UNL     1       2.205   7.063  19.190  0.00  0.00    +0.000 A 
ATOM     31  C   UNL     1       2.974   7.444  18.082  0.00  0.00    +0.000 A 
ATOM     32  C   UNL     1       2.802   8.777  17.420  0.00  0.00    +0.000 C 
ATOM     33  C   UNL     1       3.915   6.552  17.567  0.00  0.00    +0.000 A 
ATOM     34  C   UNL     1       4.060   5.291  18.143  0.00  0.00    +0.000 A 
ATOM     35  C   UNL     1       3.333   4.927  19.279  0.00  0.00    +0.000 A 
ENDBRANCH  25  34
ENDBRANCH   1  25
TORSDOF 6
ENDMDL
MODEL 9
REMARK VINA RESULT:      -9.1      6.588      9.647
REMARK  Name = 
REMARK  9 active torsions:
REMARK  status: ('A' for Active; 'I' for Inactive)
REMARK    1  A    between atoms: C_1  and  C_2
REMARK    2  A    between atoms: C_4  and  C_5
REMARK    3  A    between atoms: C_7  and  S_8
REMARK    4  A    between atoms: S_8  and  C_11
REMARK    5  A    between atoms: C_12  and  C_13
REMARK    6  A    between atoms: N_15  and  C_16
REMARK    7  A    between atoms: C_16  and  C_17
REMARK    8  A    between atoms: C_17  and  C_18
REMARK    9  A    between atoms: C_23  and  C_24
REMARK                            x       y       z     vdW  Elec       q    Type
REMARK                         _______ _______ _______ _____ _____    ______ ____
ROOT
ATOM      1  C   UNL     1       1.509   8.846  19.480  0.00  0.00    +0.000 A 
ATOM      2  C   UNL     1       0.965   8.317  20.650  0.00  0.00    +0.000 A 
ATOM      3  N   UNL     1       1.463   7.030  20.744  0.00  0.00    +0.000 N 
ATOM      4  C   UNL     1       2.353   6.751  19.743  0.00  0.00    +0.000 A 
ATOM      5  C   UNL     1       3.094   5.587  19.502  0.00  0.00    +0.000 A 
ATOM      6  C   UNL     1       3.924   5.569  18.377  0.00  0.00    +0.000 A 
ATOM      7  C   UNL     1       3.991   6.667  17.527  0.00  0.00    +0.000 A 
ATOM      8 CL   UNL     1       5.024   6.617  16.150  0.00  0.00    +0.000 Cl
ATOM      9  C   UNL     1       3.233   7.814  17.774  0.00  0.00    +0.000 A 
ATOM     10  C   UNL     1       2.398   7.868  18.915  0.00  0.00    +0.000 A 
ATOM     11  H   UNL     1       1.171   6.366  21.450  0.00  0.00    +0.000 HD
ENDROOT
BRANCH   2  12
ATOM     12  C   UNL     1       0.011   8.820  21.621  0.00  0.00    +0.000 C 
ATOM     13  O   UNL     1      -0.919   8.167  22.073  0.00  0.00    +0.000 OA
ATOM     14  N   UNL     1       0.277  10.123  22.005  0.00  0.00    +0.000 N 
ATOM     15  H   UNL     1       0.910  10.669  21.441  0.00  0.00    +0.000 HD
BRANCH  14  16
ATOM     16  C   UNL     1      -0.507  10.843  23.001  0.00  0.00    +0.000 C 
BRANCH  16  17
ATOM     17  C   UNL     1      -0.786  12.308  22.595  0.00  0.00    +0.000 C 
BRANCH  17  18
ATOM     18  C   UNL     1      -1.968  12.976  23.283  0.00  0.00    +0.000 A 
ATOM     19  C   UNL     1      -3.132  12.210  23.486  0.00  0.00    +0.000 A 
ATOM     20  C   UNL     1      -4.267  12.752  24.093  0.00  0.00    +0.000 A 
ATOM     21  C   UNL     1      -4.266  14.075  24.509  0.00  0.00    +0.000 A 
ATOM     22  C   UNL     1      -3.138  14.862  24.295  0.00  0.00    +0.000 A 
ATOM     23  C   UNL     1      -1.989  14.338  23.667  0.00  0.00    +0.000 A 
ATOM     24  C   UNL     1      -0.835  15.281  23.452  0.00  0.00    +0.000 C 
ENDBRANCH  17  18
ENDBRANCH  16  17
ENDBRANCH  14  16
ENDBRANCH   2  12
BRANCH   1  25
ATOM     25  S   UNL     1       1.225  10.366  18.695  0.00  0.00    +0.000 S 
ATOM     26  O   UNL     1       1.943  10.236  17.442  0.00  0.00    +0.000 OA
ATOM     27  O   UNL     1       1.592  11.365  19.678  0.00  0.00    +0.000 OA
BRANCH  25  34
ATOM     28  C   UNL     1      -3.417  12.487  19.864  0.00  0.00    +0.000 C 
ATOM     29  C   UNL     1      -2.597  11.620  18.955  0.00  0.00    +0.000 A 
ATOM     30  C   UNL     1      -3.186  10.954  17.867  0.00  0.00    +0.000 A 
ATOM     31  C   UNL     1      -2.423  10.136  17.022  0.00  0.00    +0.000 A 
ATOM     32  C   UNL     1      -3.032   9.416  15.857  0.00  0.00    +0.000 C 
ATOM     33  C   UNL     1      -1.062   9.970  17.280  0.00  0.00    +0.000 A 
ATOM     34  C   UNL     1      -0.486  10.597  18.383  0.00  0.00    +0.000 A 
ATOM     35  C   UNL     1      -1.230  11.454  19.198  0.00  0.00    +0.000 A 
ENDBRANCH  25  34
ENDBRANCH   1  25
TORSDOF 6
ENDMDL
