MODEL 1
REMARK VINA RESULT:      -8.0      0.000      0.000
REMARK  Name = 
REMARK  5 active torsions:
REMARK  status: ('A' for Active; 'I' for Inactive)
REMARK    1  A    between atoms: C_2  and  C_3
REMARK    2  A    between atoms: C_3  and  N_4
REMARK    3  A    between atoms: N_14  and  C_15
REMARK    4  A    between atoms: C_18  and  O_19
REMARK    5  A    between atoms: O_19  and  C_20
REMARK                            x       y       z     vdW  Elec       q    Type
REMARK                         _______ _______ _______ _____ _____    ______ ____
ROOT
ATOM      1  N   UNL     1       2.918   4.332  19.966  0.00  0.00    +0.000 N 
ATOM      2  C   UNL     1       3.689   3.834  18.894  0.00  0.00    +0.000 A 
ATOM      3  O   UNL     1       3.962   2.642  18.758  0.00  0.00    +0.000 OA
ATOM      4  C   UNL     1       4.199   4.843  17.946  0.00  0.00    +0.000 A 
ATOM      5  C   UNL     1       5.027   4.700  16.777  0.00  0.00    +0.000 A 
ATOM      6  C   UNL     1       5.315   5.937  16.210  0.00  0.00    +0.000 A 
ATOM      7  S   UNL     1       4.614   7.236  17.044  0.00  0.00    +0.000 S 
ATOM      8  C   UNL     1       3.836   6.161  18.058  0.00  0.00    +0.000 A 
ATOM      9  N   UNL     1       2.895   6.547  18.981  0.00  0.00    +0.000 N 
ATOM     10  C   UNL     1       2.151   7.702  19.165  0.00  0.00    +0.000 A 
ATOM     11  N   UNL     1       2.152   8.712  18.250  0.00  0.00    +0.000 N 
ATOM     12  N   UNL     1       1.474   7.553  20.290  0.00  0.00    +0.000 NA
ATOM     13  N   UNL     1       1.682   6.281  20.784  0.00  0.00    +0.000 NA
ATOM     14  C   UNL     1       2.483   5.661  19.946  0.00  0.00    +0.000 A 
ATOM     15  C   UNL     1       6.051   6.169  14.934  0.00  0.00    +0.000 C 
ATOM     16  C   UNL     1       6.779   4.900  14.493  0.00  0.00    +0.000 C 
ATOM     17  C   UNL     1       5.901   3.652  14.673  0.00  0.00    +0.000 C 
ATOM     18  C   UNL     1       5.515   3.427  16.148  0.00  0.00    +0.000 C 
ATOM     19  H   UNL     1       2.743   8.627  17.426  0.00  0.00    +0.000 HD
ENDROOT
BRANCH  11  20
ATOM     20  C   UNL     1       1.455   9.936  18.307  0.00  0.00    +0.000 A 
ATOM     21  C   UNL     1       0.064  10.015  18.373  0.00  0.00    +0.000 A 
ATOM     22  C   UNL     1      -0.585  11.238  18.553  0.00  0.00    +0.000 A 
ATOM     23  C   UNL     1       0.144  12.416  18.676  0.00  0.00    +0.000 A 
ATOM     24  C   UNL     1       1.527  12.378  18.529  0.00  0.00    +0.000 A 
ATOM     25  C   UNL     1       2.176  11.145  18.341  0.00  0.00    +0.000 A 
BRANCH  23  26
ATOM     26  O   UNL     1      -0.601  13.539  18.893  0.00  0.00    +0.000 OA
ATOM     27  C   UNL     1       0.134  14.757  18.923  0.00  0.00    +0.000 C 
ENDBRANCH  23  26
ENDBRANCH  11  20
BRANCH   1  28
ATOM     28  C   UNL     1       2.664   3.474  21.108  0.00  0.00    +0.000 C 
BRANCH  28  30
ATOM     29  C   UNL     1       0.646   2.660  19.828  0.00  0.00    +0.000 C 
ATOM     30  C   UNL     1       1.247   2.977  20.982  0.00  0.00    +0.000 C 
ENDBRANCH  28  30
ENDBRANCH   1  28
TORSDOF 4
ENDMDL
MODEL 2
REMARK VINA RESULT:      -7.1      4.542     10.213
REMARK  Name = 
REMARK  5 active torsions:
REMARK  status: ('A' for Active; 'I' for Inactive)
REMARK    1  A    between atoms: C_2  and  C_3
REMARK    2  A    between atoms: C_3  and  N_4
REMARK    3  A    between atoms: N_14  and  C_15
REMARK    4  A    between atoms: C_18  and  O_19
REMARK    5  A    between atoms: O_19  and  C_20
REMARK                            x       y       z     vdW  Elec       q    Type
REMARK                         _______ _______ _______ _____ _____    ______ ____
ROOT
ATOM      1  N   UNL     1      -4.481  12.128  18.836  0.00  0.00    +0.000 N 
ATOM      2  C   UNL     1      -4.598  12.898  20.013  0.00  0.00    +0.000 A 
ATOM      3  O   UNL     1      -5.657  13.400  20.386  0.00  0.00    +0.000 OA
ATOM      4  C   UNL     1      -3.349  13.108  20.770  0.00  0.00    +0.000 A 
ATOM      5  C   UNL     1      -3.096  13.852  21.977  0.00  0.00    +0.000 A 
ATOM      6  C   UNL     1      -1.746  13.830  22.307  0.00  0.00    +0.000 A 
ATOM      7  S   UNL     1      -0.802  12.943  21.213  0.00  0.00    +0.000 S 
ATOM      8  C   UNL     1      -2.184  12.490  20.393  0.00  0.00    +0.000 A 
ATOM      9  N   UNL     1      -2.185  11.566  19.377  0.00  0.00    +0.000 N 
ATOM     10  C   UNL     1      -1.274  10.615  18.945  0.00  0.00    +0.000 A 
ATOM     11  N   UNL     1      -0.141  10.333  19.649  0.00  0.00    +0.000 N 
ATOM     12  N   UNL     1      -1.765  10.077  17.843  0.00  0.00    +0.000 NA
ATOM     13  N   UNL     1      -3.028  10.583  17.611  0.00  0.00    +0.000 NA
ATOM     14  C   UNL     1      -3.298  11.426  18.583  0.00  0.00    +0.000 A 
ATOM     15  C   UNL     1      -1.134  14.396  23.543  0.00  0.00    +0.000 C 
ATOM     16  C   UNL     1      -2.113  15.335  24.248  0.00  0.00    +0.000 C 
ATOM     17  C   UNL     1      -3.534  14.752  24.275  0.00  0.00    +0.000 C 
ATOM     18  C   UNL     1      -4.099  14.542  22.857  0.00  0.00    +0.000 C 
ATOM     19  H   UNL     1       0.054  10.861  20.497  0.00  0.00    +0.000 HD
ENDROOT
BRANCH  11  20
ATOM     20  C   UNL     1       0.870   9.404  19.332  0.00  0.00    +0.000 A 
ATOM     21  C   UNL     1       1.279   8.398  20.208  0.00  0.00    +0.000 A 
ATOM     22  C   UNL     1       2.193   7.420  19.813  0.00  0.00    +0.000 A 
ATOM     23  C   UNL     1       2.720   7.421  18.526  0.00  0.00    +0.000 A 
ATOM     24  C   UNL     1       2.395   8.460  17.658  0.00  0.00    +0.000 A 
ATOM     25  C   UNL     1       1.479   9.446  18.063  0.00  0.00    +0.000 A 
BRANCH  23  26
ATOM     26  O   UNL     1       3.569   6.388  18.245  0.00  0.00    +0.000 OA
ATOM     27  C   UNL     1       2.938   5.145  17.963  0.00  0.00    +0.000 C 
ENDBRANCH  23  26
ENDBRANCH  11  20
BRANCH   1  28
ATOM     28  C   UNL     1      -5.563  12.150  17.870  0.00  0.00    +0.000 C 
BRANCH  28  30
ATOM     29  C   UNL     1      -6.698  10.089  18.784  0.00  0.00    +0.000 C 
ATOM     30  C   UNL     1      -6.715  11.392  18.477  0.00  0.00    +0.000 C 
ENDBRANCH  28  30
ENDBRANCH   1  28
TORSDOF 4
ENDMDL
MODEL 3
REMARK VINA RESULT:      -7.0      3.005      8.610
REMARK  Name = 
REMARK  5 active torsions:
REMARK  status: ('A' for Active; 'I' for Inactive)
REMARK    1  A    between atoms: C_2  and  C_3
REMARK    2  A    between atoms: C_3  and  N_4
REMARK    3  A    between atoms: N_14  and  C_15
REMARK    4  A    between atoms: C_18  and  O_19
REMARK    5  A    between atoms: O_19  and  C_20
REMARK                            x       y       z     vdW  Elec       q    Type
REMARK                         _______ _______ _______ _____ _____    ______ ____
ROOT
ATOM      1  N   UNL     1      -0.729  11.758  22.448  0.00  0.00    +0.000 N 
ATOM      2  C   UNL     1      -0.092  12.915  21.950  0.00  0.00    +0.000 A 
ATOM      3  O   UNL     1      -0.215  14.025  22.464  0.00  0.00    +0.000 OA
ATOM      4  C   UNL     1       0.715  12.729  20.729  0.00  0.00    +0.000 A 
ATOM      5  C   UNL     1       1.464  13.676  19.944  0.00  0.00    +0.000 A 
ATOM      6  C   UNL     1       2.030  13.068  18.829  0.00  0.00    +0.000 A 
ATOM      7  S   UNL     1       1.686  11.412  18.719  0.00  0.00    +0.000 S 
ATOM      8  C   UNL     1       0.909  11.479  20.196  0.00  0.00    +0.000 A 
ATOM      9  N   UNL     1       0.459  10.364  20.859  0.00  0.00    +0.000 N 
ATOM     10  C   UNL     1       0.710   9.007  20.731  0.00  0.00    +0.000 A 
ATOM     11  N   UNL     1       1.675   8.529  19.895  0.00  0.00    +0.000 N 
ATOM     12  N   UNL     1      -0.092   8.382  21.575  0.00  0.00    +0.000 NA
ATOM     13  N   UNL     1      -0.780   9.313  22.326  0.00  0.00    +0.000 NA
ATOM     14  C   UNL     1      -0.385  10.503  21.934  0.00  0.00    +0.000 A 
ATOM     15  C   UNL     1       2.959  13.711  17.855  0.00  0.00    +0.000 C 
ATOM     16  C   UNL     1       2.937  15.231  18.011  0.00  0.00    +0.000 C 
ATOM     17  C   UNL     1       2.944  15.648  19.490  0.00  0.00    +0.000 C 
ATOM     18  C   UNL     1       1.703  15.128  20.242  0.00  0.00    +0.000 C 
ATOM     19  H   UNL     1       2.202   9.188  19.327  0.00  0.00    +0.000 HD
ENDROOT
BRANCH  11  20
ATOM     20  C   UNL     1       2.034   7.187  19.661  0.00  0.00    +0.000 A 
ATOM     21  C   UNL     1       1.833   6.172  20.597  0.00  0.00    +0.000 A 
ATOM     22  C   UNL     1       2.086   4.835  20.282  0.00  0.00    +0.000 A 
ATOM     23  C   UNL     1       2.543   4.479  19.018  0.00  0.00    +0.000 A 
ATOM     24  C   UNL     1       2.833   5.477  18.093  0.00  0.00    +0.000 A 
ATOM     25  C   UNL     1       2.583   6.822  18.416  0.00  0.00    +0.000 A 
BRANCH  23  26
ATOM     26  O   UNL     1       2.710   3.138  18.818  0.00  0.00    +0.000 OA
ATOM     27  C   UNL     1       1.558   2.340  19.063  0.00  0.00    +0.000 C 
ENDBRANCH  23  26
ENDBRANCH  11  20
BRANCH   1  28
ATOM     28  C   UNL     1      -1.791  11.905  23.425  0.00  0.00    +0.000 C 
BRANCH  28  30
ATOM     29  C   UNL     1      -4.032  13.029  23.138  0.00  0.00    +0.000 C 
ATOM     30  C   UNL     1      -3.045  12.256  22.668  0.00  0.00    +0.000 C 
ENDBRANCH  28  30
ENDBRANCH   1  28
TORSDOF 4
ENDMDL
MODEL 4
REMARK VINA RESULT:      -6.9      3.016      8.698
REMARK  Name = 
REMARK  5 active torsions:
REMARK  status: ('A' for Active; 'I' for Inactive)
REMARK    1  A    between atoms: C_2  and  C_3
REMARK    2  A    between atoms: C_3  and  N_4
REMARK    3  A    between atoms: N_14  and  C_15
REMARK    4  A    between atoms: C_18  and  O_19
REMARK    5  A    between atoms: O_19  and  C_20
REMARK                            x       y       z     vdW  Elec       q    Type
REMARK                         _______ _______ _______ _____ _____    ______ ____
ROOT
ATOM      1  N   UNL     1      -0.663  11.901  22.411  0.00  0.00    +0.000 N 
ATOM      2  C   UNL     1      -0.026  13.076  21.959  0.00  0.00    +0.000 A 
ATOM      3  O   UNL     1      -0.145  14.165  22.519  0.00  0.00    +0.000 OA
ATOM      4  C   UNL     1       0.777  12.939  20.728  0.00  0.00    +0.000 A 
ATOM      5  C   UNL     1       1.525  13.916  19.981  0.00  0.00    +0.000 A 
ATOM      6  C   UNL     1       2.087  13.353  18.840  0.00  0.00    +0.000 A 
ATOM      7  S   UNL     1       1.738  11.703  18.663  0.00  0.00    +0.000 S 
ATOM      8  C   UNL     1       0.967  11.712  20.145  0.00  0.00    +0.000 A 
ATOM      9  N   UNL     1       0.517  10.571  20.763  0.00  0.00    +0.000 N 
ATOM     10  C   UNL     1       0.764   9.220  20.578  0.00  0.00    +0.000 A 
ATOM     11  N   UNL     1       1.725   8.775  19.721  0.00  0.00    +0.000 N 
ATOM     12  N   UNL     1      -0.036   8.562  21.399  0.00  0.00    +0.000 NA
ATOM     13  N   UNL     1      -0.720   9.463  22.190  0.00  0.00    +0.000 NA
ATOM     14  C   UNL     1      -0.323  10.668  21.846  0.00  0.00    +0.000 A 
ATOM     15  C   UNL     1       3.013  14.034  17.890  0.00  0.00    +0.000 C 
ATOM     16  C   UNL     1       2.995  15.546  18.108  0.00  0.00    +0.000 C 
ATOM     17  C   UNL     1       3.008  15.902  19.602  0.00  0.00    +0.000 C 
ATOM     18  C   UNL     1       1.769  15.354  20.337  0.00  0.00    +0.000 C 
ATOM     19  H   UNL     1       2.252   9.456  19.178  0.00  0.00    +0.000 HD
ENDROOT
BRANCH  11  20
ATOM     20  C   UNL     1       2.081   7.443  19.430  0.00  0.00    +0.000 A 
ATOM     21  C   UNL     1       2.569   7.041  18.186  0.00  0.00    +0.000 A 
ATOM     22  C   UNL     1       3.029   5.740  17.973  0.00  0.00    +0.000 A 
ATOM     23  C   UNL     1       3.015   4.806  19.003  0.00  0.00    +0.000 A 
ATOM     24  C   UNL     1       2.455   5.154  20.229  0.00  0.00    +0.000 A 
ATOM     25  C   UNL     1       1.988   6.463  20.437  0.00  0.00    +0.000 A 
BRANCH  23  26
ATOM     26  O   UNL     1       3.530   3.582  18.684  0.00  0.00    +0.000 OA
ATOM     27  C   UNL     1       4.370   3.001  19.675  0.00  0.00    +0.000 C 
ENDBRANCH  23  26
ENDBRANCH  11  20
BRANCH   1  28
ATOM     28  C   UNL     1      -1.721  12.010  23.398  0.00  0.00    +0.000 C 
BRANCH  28  30
ATOM     29  C   UNL     1      -3.806  13.344  22.903  0.00  0.00    +0.000 C 
ATOM     30  C   UNL     1      -2.995  12.309  22.651  0.00  0.00    +0.000 C 
ENDBRANCH  28  30
ENDBRANCH   1  28
TORSDOF 4
ENDMDL
MODEL 5
REMARK VINA RESULT:      -6.8      1.250      1.464
REMARK  Name = 
REMARK  5 active torsions:
REMARK  status: ('A' for Active; 'I' for Inactive)
REMARK    1  A    between atoms: C_2  and  C_3
REMARK    2  A    between atoms: C_3  and  N_4
REMARK    3  A    between atoms: N_14  and  C_15
REMARK    4  A    between atoms: C_18  and  O_19
REMARK    5  A    between atoms: O_19  and  C_20
REMARK                            x       y       z     vdW  Elec       q    Type
REMARK                         _______ _______ _______ _____ _____    ______ ____
ROOT
ATOM      1  N   UNL     1       2.629   3.285  19.339  0.00  0.00    +0.000 N 
ATOM      2  C   UNL     1       3.432   3.043  18.204  0.00  0.00    +0.000 A 
ATOM      3  O   UNL     1       3.646   1.916  17.760  0.00  0.00    +0.000 OA
ATOM      4  C   UNL     1       4.050   4.232  17.588  0.00  0.00    +0.000 A 
ATOM      5  C   UNL     1       4.935   4.353  16.459  0.00  0.00    +0.000 A 
ATOM      6  C   UNL     1       5.323   5.674  16.263  0.00  0.00    +0.000 A 
ATOM      7  S   UNL     1       4.647   6.746  17.389  0.00  0.00    +0.000 S 
ATOM      8  C   UNL     1       3.754   5.494  18.041  0.00  0.00    +0.000 A 
ATOM      9  N   UNL     1       2.784   5.681  18.994  0.00  0.00    +0.000 N 
ATOM     10  C   UNL     1       2.095   6.791  19.455  0.00  0.00    +0.000 A 
ATOM     11  N   UNL     1       2.205   8.008  18.851  0.00  0.00    +0.000 N 
ATOM     12  N   UNL     1       1.348   6.392  20.470  0.00  0.00    +0.000 NA
ATOM     13  N   UNL     1       1.457   5.022  20.606  0.00  0.00    +0.000 NA
ATOM     14  C   UNL     1       2.269   4.598  19.664  0.00  0.00    +0.000 A 
ATOM     15  C   UNL     1       6.142   6.190  15.129  0.00  0.00    +0.000 C 
ATOM     16  C   UNL     1       6.824   5.039  14.388  0.00  0.00    +0.000 C 
ATOM     17  C   UNL     1       5.869   3.853  14.186  0.00  0.00    +0.000 C 
ATOM     18  C   UNL     1       5.388   3.266  15.527  0.00  0.00    +0.000 C 
ATOM     19  H   UNL     1       2.837   8.108  18.060  0.00  0.00    +0.000 HD
ENDROOT
BRANCH  11  20
ATOM     20  C   UNL     1       1.574   9.216  19.210  0.00  0.00    +0.000 A 
ATOM     21  C   UNL     1       0.977   9.420  20.454  0.00  0.00    +0.000 A 
ATOM     22  C   UNL     1       0.473  10.670  20.820  0.00  0.00    +0.000 A 
ATOM     23  C   UNL     1       0.557  11.751  19.949  0.00  0.00    +0.000 A 
ATOM     24  C   UNL     1       1.071  11.555  18.670  0.00  0.00    +0.000 A 
ATOM     25  C   UNL     1       1.572  10.294  18.304  0.00  0.00    +0.000 A 
BRANCH  23  26
ATOM     26  O   UNL     1       0.069  12.929  20.437  0.00  0.00    +0.000 OA
ATOM     27  C   UNL     1      -0.595  13.751  19.484  0.00  0.00    +0.000 C 
ENDBRANCH  23  26
ENDBRANCH  11  20
BRANCH   1  28
ATOM     28  C   UNL     1       2.262   2.172  20.193  0.00  0.00    +0.000 C 
BRANCH  28  30
ATOM     29  C   UNL     1       4.583   1.714  21.076  0.00  0.00    +0.000 C 
ATOM     30  C   UNL     1       3.309   2.078  21.273  0.00  0.00    +0.000 C 
ENDBRANCH  28  30
ENDBRANCH   1  28
TORSDOF 4
ENDMDL
MODEL 6
REMARK VINA RESULT:      -6.6      4.143     10.727
REMARK  Name = 
REMARK  5 active torsions:
REMARK  status: ('A' for Active; 'I' for Inactive)
REMARK    1  A    between atoms: C_2  and  C_3
REMARK    2  A    between atoms: C_3  and  N_4
REMARK    3  A    between atoms: N_14  and  C_15
REMARK    4  A    between atoms: C_18  and  O_19
REMARK    5  A    between atoms: O_19  and  C_20
REMARK                            x       y       z     vdW  Elec       q    Type
REMARK                         _______ _______ _______ _____ _____    ______ ____
ROOT
ATOM      1  N   UNL     1      -0.064  15.415  19.648  0.00  0.00    +0.000 N 
ATOM      2  C   UNL     1      -1.200  15.514  20.481  0.00  0.00    +0.000 A 
ATOM      3  O   UNL     1      -1.884  16.532  20.566  0.00  0.00    +0.000 OA
ATOM      4  C   UNL     1      -1.507  14.322  21.294  0.00  0.00    +0.000 A 
ATOM      5  C   UNL     1      -2.551  14.085  22.256  0.00  0.00    +0.000 A 
ATOM      6  C   UNL     1      -2.426  12.826  22.833  0.00  0.00    +0.000 A 
ATOM      7  S   UNL     1      -1.104  11.944  22.241  0.00  0.00    +0.000 S 
ATOM      8  C   UNL     1      -0.785  13.164  21.146  0.00  0.00    +0.000 A 
ATOM      9  N   UNL     1       0.156  13.053  20.152  0.00  0.00    +0.000 N 
ATOM     10  C   UNL     1       0.839  11.984  19.595  0.00  0.00    +0.000 A 
ATOM     11  N   UNL     1       0.535  10.693  19.909  0.00  0.00    +0.000 N 
ATOM     12  N   UNL     1       1.711  12.485  18.738  0.00  0.00    +0.000 NA
ATOM     13  N   UNL     1       1.532  13.850  18.648  0.00  0.00    +0.000 NA
ATOM     14  C   UNL     1       0.543  14.170  19.453  0.00  0.00    +0.000 A 
ATOM     15  C   UNL     1      -3.386  12.197  23.786  0.00  0.00    +0.000 C 
ATOM     16  C   UNL     1      -4.350  13.241  24.348  0.00  0.00    +0.000 C 
ATOM     17  C   UNL     1      -4.848  14.198  23.254  0.00  0.00    +0.000 C 
ATOM     18  C   UNL     1      -3.693  14.992  22.613  0.00  0.00    +0.000 C 
ATOM     19  H   UNL     1      -0.193  10.514  20.597  0.00  0.00    +0.000 HD
ENDROOT
BRANCH  11  20
ATOM     20  C   UNL     1       1.143   9.516  19.428  0.00  0.00    +0.000 A 
ATOM     21  C   UNL     1       1.531   9.350  18.099  0.00  0.00    +0.000 A 
ATOM     22  C   UNL     1       2.242   8.221  17.687  0.00  0.00    +0.000 A 
ATOM     23  C   UNL     1       2.587   7.229  18.598  0.00  0.00    +0.000 A 
ATOM     24  C   UNL     1       2.140   7.327  19.913  0.00  0.00    +0.000 A 
ATOM     25  C   UNL     1       1.418   8.463  20.321  0.00  0.00    +0.000 A 
BRANCH  23  26
ATOM     26  O   UNL     1       3.320   6.198  18.084  0.00  0.00    +0.000 OA
ATOM     27  C   UNL     1       4.443   6.584  17.299  0.00  0.00    +0.000 C 
ENDBRANCH  23  26
ENDBRANCH  11  20
BRANCH   1  28
ATOM     28  C   UNL     1       0.500  16.624  19.079  0.00  0.00    +0.000 C 
BRANCH  28  30
ATOM     29  C   UNL     1      -0.191  18.098  17.150  0.00  0.00    +0.000 C 
ATOM     30  C   UNL     1      -0.361  17.004  17.903  0.00  0.00    +0.000 C 
ENDBRANCH  28  30
ENDBRANCH   1  28
TORSDOF 4
ENDMDL
MODEL 7
REMARK VINA RESULT:      -6.6      3.279      8.918
REMARK  Name = 
REMARK  5 active torsions:
REMARK  status: ('A' for Active; 'I' for Inactive)
REMARK    1  A    between atoms: C_2  and  C_3
REMARK    2  A    between atoms: C_3  and  N_4
REMARK    3  A    between atoms: N_14  and  C_15
REMARK    4  A    between atoms: C_18  and  O_19
REMARK    5  A    between atoms: O_19  and  C_20
REMARK                            x       y       z     vdW  Elec       q    Type
REMARK                         _______ _______ _______ _____ _____    ______ ____
ROOT
ATOM      1  N   UNL     1      -0.528  12.892  22.361  0.00  0.00    +0.000 N 
ATOM      2  C   UNL     1       0.213  14.003  21.901  0.00  0.00    +0.000 A 
ATOM      3  O   UNL     1       0.182  15.105  22.446  0.00  0.00    +0.000 OA
ATOM      4  C   UNL     1       1.011  13.782  20.680  0.00  0.00    +0.000 A 
ATOM      5  C   UNL     1       1.847  14.681  19.928  0.00  0.00    +0.000 A 
ATOM      6  C   UNL     1       2.368  14.058  18.799  0.00  0.00    +0.000 A 
ATOM      7  S   UNL     1       1.881  12.442  18.639  0.00  0.00    +0.000 S 
ATOM      8  C   UNL     1       1.100  12.535  20.113  0.00  0.00    +0.000 A 
ATOM      9  N   UNL     1       0.549  11.445  20.740  0.00  0.00    +0.000 N 
ATOM     10  C   UNL     1       0.681  10.076  20.574  0.00  0.00    +0.000 A 
ATOM     11  N   UNL     1       1.608   9.540  19.731  0.00  0.00    +0.000 N 
ATOM     12  N   UNL     1      -0.180   9.500  21.395  0.00  0.00    +0.000 NA
ATOM     13  N   UNL     1      -0.791  10.466  22.168  0.00  0.00    +0.000 NA
ATOM     14  C   UNL     1      -0.289  11.628  21.813  0.00  0.00    +0.000 A 
ATOM     15  C   UNL     1       3.358  14.645  17.850  0.00  0.00    +0.000 C 
ATOM     16  C   UNL     1       3.467  16.156  18.050  0.00  0.00    +0.000 C 
ATOM     17  C   UNL     1       3.498  16.528  19.540  0.00  0.00    +0.000 C 
ATOM     18  C   UNL     1       2.210  16.098  20.269  0.00  0.00    +0.000 C 
ATOM     19  H   UNL     1       2.196  10.166  19.186  0.00  0.00    +0.000 HD
ENDROOT
BRANCH  11  20
ATOM     20  C   UNL     1       1.851   8.178  19.460  0.00  0.00    +0.000 A 
ATOM     21  C   UNL     1       2.250   7.713  18.206  0.00  0.00    +0.000 A 
ATOM     22  C   UNL     1       2.602   6.377  18.008  0.00  0.00    +0.000 A 
ATOM     23  C   UNL     1       2.567   5.470  19.061  0.00  0.00    +0.000 A 
ATOM     24  C   UNL     1       2.092   5.886  20.302  0.00  0.00    +0.000 A 
ATOM     25  C   UNL     1       1.733   7.232  20.496  0.00  0.00    +0.000 A 
BRANCH  23  26
ATOM     26  O   UNL     1       2.976   4.204  18.752  0.00  0.00    +0.000 OA
ATOM     27  C   UNL     1       2.421   3.662  17.559  0.00  0.00    +0.000 C 
ENDBRANCH  23  26
ENDBRANCH  11  20
BRANCH   1  28
ATOM     28  C   UNL     1      -1.581  13.104  23.335  0.00  0.00    +0.000 C 
BRANCH  28  30
ATOM     29  C   UNL     1      -3.961  12.694  22.602  0.00  0.00    +0.000 C 
ATOM     30  C   UNL     1      -2.838  13.422  22.568  0.00  0.00    +0.000 C 
ENDBRANCH  28  30
ENDBRANCH   1  28
TORSDOF 4
ENDMDL
MODEL 8
REMARK VINA RESULT:      -6.6      3.879     10.487
REMARK  Name = 
REMARK  5 active torsions:
REMARK  status: ('A' for Active; 'I' for Inactive)
REMARK    1  A    between atoms: C_2  and  C_3
REMARK    2  A    between atoms: C_3  and  N_4
REMARK    3  A    between atoms: N_14  and  C_15
REMARK    4  A    between atoms: C_18  and  O_19
REMARK    5  A    between atoms: O_19  and  C_20
REMARK                            x       y       z     vdW  Elec       q    Type
REMARK                         _______ _______ _______ _____ _____    ______ ____
ROOT
ATOM      1  N   UNL     1       0.236  15.086  19.251  0.00  0.00    +0.000 N 
ATOM      2  C   UNL     1      -0.904  15.265  20.064  0.00  0.00    +0.000 A 
ATOM      3  O   UNL     1      -1.566  16.301  20.077  0.00  0.00    +0.000 OA
ATOM      4  C   UNL     1      -1.244  14.135  20.951  0.00  0.00    +0.000 A 
ATOM      5  C   UNL     1      -2.301  13.985  21.917  0.00  0.00    +0.000 A 
ATOM      6  C   UNL     1      -2.209  12.764  22.576  0.00  0.00    +0.000 A 
ATOM      7  S   UNL     1      -0.903  11.816  22.055  0.00  0.00    +0.000 S 
ATOM      8  C   UNL     1      -0.548  12.954  20.886  0.00  0.00    +0.000 A 
ATOM      9  N   UNL     1       0.398  12.758  19.910  0.00  0.00    +0.000 N 
ATOM     10  C   UNL     1       1.061  11.640  19.430  0.00  0.00    +0.000 A 
ATOM     11  N   UNL     1       0.725  10.379  19.824  0.00  0.00    +0.000 N 
ATOM     12  N   UNL     1       1.951  12.063  18.550  0.00  0.00    +0.000 NA
ATOM     13  N   UNL     1       1.804  13.424  18.370  0.00  0.00    +0.000 NA
ATOM     14  C   UNL     1       0.816  13.817  19.142  0.00  0.00    +0.000 A 
ATOM     15  C   UNL     1      -3.190  12.220  23.559  0.00  0.00    +0.000 C 
ATOM     16  C   UNL     1      -4.135  13.320  24.043  0.00  0.00    +0.000 C 
ATOM     17  C   UNL     1      -4.603  14.214  22.885  0.00  0.00    +0.000 C 
ATOM     18  C   UNL     1      -3.425  14.938  22.204  0.00  0.00    +0.000 C 
ATOM     19  H   UNL     1      -0.012  10.261  20.516  0.00  0.00    +0.000 HD
ENDROOT
BRANCH  11  20
ATOM     20  C   UNL     1       1.309   9.160  19.428  0.00  0.00    +0.000 A 
ATOM     21  C   UNL     1       1.741   8.913  18.124  0.00  0.00    +0.000 A 
ATOM     22  C   UNL     1       2.428   7.743  17.797  0.00  0.00    +0.000 A 
ATOM     23  C   UNL     1       2.705   6.788  18.769  0.00  0.00    +0.000 A 
ATOM     24  C   UNL     1       2.213   6.968  20.059  0.00  0.00    +0.000 A 
ATOM     25  C   UNL     1       1.516   8.145  20.382  0.00  0.00    +0.000 A 
BRANCH  23  26
ATOM     26  O   UNL     1       3.421   5.708  18.337  0.00  0.00    +0.000 OA
ATOM     27  C   UNL     1       2.642   4.609  17.879  0.00  0.00    +0.000 C 
ENDBRANCH  23  26
ENDBRANCH  11  20
BRANCH   1  28
ATOM     28  C   UNL     1       0.831  16.242  18.610  0.00  0.00    +0.000 C 
BRANCH  28  30
ATOM     29  C   UNL     1       3.201  16.836  19.246  0.00  0.00    +0.000 C 
ATOM     30  C   UNL     1       1.896  16.765  19.539  0.00  0.00    +0.000 C 
ENDBRANCH  28  30
ENDBRANCH   1  28
TORSDOF 4
ENDMDL
MODEL 9
REMARK VINA RESULT:      -6.5      6.539     12.249
REMARK  Name = 
REMARK  5 active torsions:
REMARK  status: ('A' for Active; 'I' for Inactive)
REMARK    1  A    between atoms: C_2  and  C_3
REMARK    2  A    between atoms: C_3  and  N_4
REMARK    3  A    between atoms: N_14  and  C_15
REMARK    4  A    between atoms: C_18  and  O_19
REMARK    5  A    between atoms: O_19  and  C_20
REMARK                            x       y       z     vdW  Elec       q    Type
REMARK                         _______ _______ _______ _____ _____    ______ ____
ROOT
ATOM      1  N   UNL     1      -1.544  16.351  23.522  0.00  0.00    +0.000 N 
ATOM      2  C   UNL     1      -2.946  16.423  23.668  0.00  0.00    +0.000 A 
ATOM      3  O   UNL     1      -3.552  17.481  23.835  0.00  0.00    +0.000 OA
ATOM      4  C   UNL     1      -3.662  15.133  23.651  0.00  0.00    +0.000 A 
ATOM      5  C   UNL     1      -5.062  14.833  23.801  0.00  0.00    +0.000 A 
ATOM      6  C   UNL     1      -5.288  13.461  23.779  0.00  0.00    +0.000 A 
ATOM      7  S   UNL     1      -3.871  12.551  23.579  0.00  0.00    +0.000 S 
ATOM      8  C   UNL     1      -2.995  13.962  23.395  0.00  0.00    +0.000 A 
ATOM      9  N   UNL     1      -1.672  13.981  23.026  0.00  0.00    +0.000 N 
ATOM     10  C   UNL     1      -0.819  13.041  22.472  0.00  0.00    +0.000 A 
ATOM     11  N   UNL     1      -1.269  11.833  22.029  0.00  0.00    +0.000 N 
ATOM     12  N   UNL     1       0.385  13.584  22.432  0.00  0.00    +0.000 NA
ATOM     13  N   UNL     1       0.308  14.897  22.851  0.00  0.00    +0.000 NA
ATOM     14  C   UNL     1      -0.951  15.144  23.137  0.00  0.00    +0.000 A 
ATOM     15  C   UNL     1      -6.619  12.789  23.796  0.00  0.00    +0.000 C 
ATOM     16  C   UNL     1      -7.714  13.772  24.211  0.00  0.00    +0.000 C 
ATOM     17  C   UNL     1      -7.536  15.137  23.529  0.00  0.00    +0.000 C 
ATOM     18  C   UNL     1      -6.202  15.805  23.914  0.00  0.00    +0.000 C 
ATOM     19  H   UNL     1      -2.254  11.605  22.141  0.00  0.00    +0.000 HD
ENDROOT
BRANCH  11  20
ATOM     20  C   UNL     1      -0.522  10.786  21.452  0.00  0.00    +0.000 A 
ATOM     21  C   UNL     1      -0.246  10.712  20.087  0.00  0.00    +0.000 A 
ATOM     22  C   UNL     1       0.601   9.730  19.570  0.00  0.00    +0.000 A 
ATOM     23  C   UNL     1       1.198   8.795  20.410  0.00  0.00    +0.000 A 
ATOM     24  C   UNL     1       0.874   8.793  21.764  0.00  0.00    +0.000 A 
ATOM     25  C   UNL     1       0.016   9.780  22.278  0.00  0.00    +0.000 A 
BRANCH  23  26
ATOM     26  O   UNL     1       2.039   7.914  19.793  0.00  0.00    +0.000 OA
ATOM     27  C   UNL     1       2.252   8.149  18.406  0.00  0.00    +0.000 C 
ENDBRANCH  23  26
ENDBRANCH  11  20
BRANCH   1  28
ATOM     28  C   UNL     1      -0.741  17.511  23.856  0.00  0.00    +0.000 C 
BRANCH  28  30
ATOM     29  C   UNL     1      -0.945  17.096  26.338  0.00  0.00    +0.000 C 
ATOM     30  C   UNL     1      -0.197  17.289  25.244  0.00  0.00    +0.000 C 
ENDBRANCH  28  30
ENDBRANCH   1  28
TORSDOF 4
ENDMDL
