MODEL 1
REMARK VINA RESULT:      -7.7      0.000      0.000
REMARK  Name = 
REMARK  7 active torsions:
REMARK  status: ('A' for Active; 'I' for Inactive)
REMARK    1  A    between atoms: C_1  and  O_2
REMARK    2  A    between atoms: O_2  and  C_3
REMARK    3  A    between atoms: C_8  and  N_9
REMARK    4  A    between atoms: C_10  and  C_12
REMARK    5  A    between atoms: C_14  and  S_15
REMARK    6  A    between atoms: S_15  and  C_16
REMARK    7  A    between atoms: C_16  and  C_17
REMARK                            x       y       z     vdW  Elec       q    Type
REMARK                         _______ _______ _______ _____ _____    ______ ____
ROOT
ATOM      1  C   UNL     1       2.973   4.928  20.101  0.00  0.00    +0.000 A 
ATOM      2  N   UNL     1       4.085   5.481  19.546  0.00  0.00    +0.000 NA
ATOM      3  C   UNL     1       5.096   4.646  19.274  0.00  0.00    +0.000 A 
ATOM      4  N   UNL     1       5.082   3.323  19.487  0.00  0.00    +0.000 NA
ATOM      5  C   UNL     1       3.959   2.817  20.037  0.00  0.00    +0.000 A 
ATOM      6  C   UNL     1       2.857   3.572  20.378  0.00  0.00    +0.000 A 
ATOM      7 CL   UNL     1       1.526   2.758  21.096  0.00  0.00    +0.000 Cl
ENDROOT
BRANCH   1   9
ATOM      8  N   UNL     1       2.260   7.256  20.433  0.00  0.00    +0.000 N 
ATOM      9  C   UNL     1       1.883   5.913  20.407  0.00  0.00    +0.000 C 
ATOM     10  O   UNL     1       0.742   5.508  20.584  0.00  0.00    +0.000 OA
ATOM     11  H   UNL     1       3.194   7.498  20.108  0.00  0.00    +0.000 HD
BRANCH   8  17
ATOM     12  C   UNL     1       0.912   9.221  19.818  0.00  0.00    +0.000 A 
ATOM     13  C   UNL     1       0.117  10.315  20.204  0.00  0.00    +0.000 A 
ATOM     14  C   UNL     1      -0.232  10.515  21.539  0.00  0.00    +0.000 A 
ATOM     15  C   UNL     1       0.243   9.640  22.505  0.00  0.00    +0.000 A 
ATOM     16  C   UNL     1       1.067   8.581  22.142  0.00  0.00    +0.000 A 
ATOM     17  C   UNL     1       1.414   8.341  20.803  0.00  0.00    +0.000 A 
BRANCH  12  19
ATOM     18  C   UNL     1       2.074   9.922  17.880  0.00  0.00    +0.000 C 
ATOM     19  O   UNL     1       1.222   8.954  18.502  0.00  0.00    +0.000 OA
ENDBRANCH  12  19
ENDBRANCH   8  17
ENDBRANCH   1   9
BRANCH   3  20
ATOM     20  S   UNL     1       6.579   5.391  18.690  0.00  0.00    +0.000 S 
BRANCH  20  21
ATOM     21  C   UNL     1       5.936   6.265  17.223  0.00  0.00    +0.000 C 
BRANCH  21  22
ATOM     22  C   UNL     1       6.131   5.380  16.021  0.00  0.00    +0.000 A 
ATOM     23  C   UNL     1       7.244   5.545  15.182  0.00  0.00    +0.000 A 
ATOM     24  C   UNL     1       7.329   4.840  13.980  0.00  0.00    +0.000 A 
ATOM     25  C   UNL     1       6.309   3.964  13.606  0.00  0.00    +0.000 A 
ATOM     26  C   UNL     1       5.212   3.775  14.445  0.00  0.00    +0.000 A 
ATOM     27  C   UNL     1       5.132   4.478  15.642  0.00  0.00    +0.000 A 
ATOM     28  F   UNL     1       4.056   4.305  16.425  0.00  0.00    +0.000 F 
ENDBRANCH  21  22
ENDBRANCH  20  21
ENDBRANCH   3  20
TORSDOF 6
ENDMDL
MODEL 2
REMARK VINA RESULT:      -7.7      4.503      6.531
REMARK  Name = 
REMARK  7 active torsions:
REMARK  status: ('A' for Active; 'I' for Inactive)
REMARK    1  A    between atoms: C_1  and  O_2
REMARK    2  A    between atoms: O_2  and  C_3
REMARK    3  A    between atoms: C_8  and  N_9
REMARK    4  A    between atoms: C_10  and  C_12
REMARK    5  A    between atoms: C_14  and  S_15
REMARK    6  A    between atoms: S_15  and  C_16
REMARK    7  A    between atoms: C_16  and  C_17
REMARK                            x       y       z     vdW  Elec       q    Type
REMARK                         _______ _______ _______ _____ _____    ______ ____
ROOT
ATOM      1  C   UNL     1       5.993   5.175  17.570  0.00  0.00    +0.000 A 
ATOM      2  N   UNL     1       6.601   6.157  18.289  0.00  0.00    +0.000 NA
ATOM      3  C   UNL     1       7.525   6.884  17.647  0.00  0.00    +0.000 A 
ATOM      4  N   UNL     1       7.873   6.727  16.362  0.00  0.00    +0.000 NA
ATOM      5  C   UNL     1       7.244   5.743  15.687  0.00  0.00    +0.000 A 
ATOM      6  C   UNL     1       6.288   4.916  16.238  0.00  0.00    +0.000 A 
ATOM      7 CL   UNL     1       5.615   3.697  15.232  0.00  0.00    +0.000 Cl
ENDROOT
BRANCH   1   9
ATOM      8  N   UNL     1       3.651   4.554  17.982  0.00  0.00    +0.000 N 
ATOM      9  C   UNL     1       4.986   4.377  18.346  0.00  0.00    +0.000 C 
ATOM     10  O   UNL     1       5.374   3.608  19.216  0.00  0.00    +0.000 OA
ATOM     11  H   UNL     1       3.451   5.087  17.137  0.00  0.00    +0.000 HD
BRANCH   8  17
ATOM     12  C   UNL     1       2.053   4.547  19.853  0.00  0.00    +0.000 A 
ATOM     13  C   UNL     1       0.979   3.940  20.527  0.00  0.00    +0.000 A 
ATOM     14  C   UNL     1       0.341   2.816  20.003  0.00  0.00    +0.000 A 
ATOM     15  C   UNL     1       0.799   2.269  18.812  0.00  0.00    +0.000 A 
ATOM     16  C   UNL     1       1.889   2.833  18.159  0.00  0.00    +0.000 A 
ATOM     17  C   UNL     1       2.533   3.978  18.651  0.00  0.00    +0.000 A 
BRANCH  12  19
ATOM     18  C   UNL     1       1.803   6.837  20.392  0.00  0.00    +0.000 C 
ATOM     19  O   UNL     1       2.664   5.696  20.308  0.00  0.00    +0.000 OA
ENDBRANCH  12  19
ENDBRANCH   8  17
ENDBRANCH   1   9
BRANCH   3  20
ATOM     20  S   UNL     1       8.404   8.054  18.622  0.00  0.00    +0.000 S 
BRANCH  20  21
ATOM     21  C   UNL     1       8.005   9.584  17.712  0.00  0.00    +0.000 C 
BRANCH  21  22
ATOM     22  C   UNL     1       8.833  10.705  18.283  0.00  0.00    +0.000 A 
ATOM     23  C   UNL     1       9.714  10.475  19.350  0.00  0.00    +0.000 A 
ATOM     24  C   UNL     1      10.347  11.546  19.984  0.00  0.00    +0.000 A 
ATOM     25  C   UNL     1      10.110  12.853  19.556  0.00  0.00    +0.000 A 
ATOM     26  C   UNL     1       9.257  13.090  18.480  0.00  0.00    +0.000 A 
ATOM     27  C   UNL     1       8.630  12.019  17.851  0.00  0.00    +0.000 A 
ATOM     28  F   UNL     1       7.790  12.267  16.834  0.00  0.00    +0.000 F 
ENDBRANCH  21  22
ENDBRANCH  20  21
ENDBRANCH   3  20
TORSDOF 6
ENDMDL
MODEL 3
REMARK VINA RESULT:      -7.5      4.684      6.827
REMARK  Name = 
REMARK  7 active torsions:
REMARK  status: ('A' for Active; 'I' for Inactive)
REMARK    1  A    between atoms: C_1  and  O_2
REMARK    2  A    between atoms: O_2  and  C_3
REMARK    3  A    between atoms: C_8  and  N_9
REMARK    4  A    between atoms: C_10  and  C_12
REMARK    5  A    between atoms: C_14  and  S_15
REMARK    6  A    between atoms: S_15  and  C_16
REMARK    7  A    between atoms: C_16  and  C_17
REMARK                            x       y       z     vdW  Elec       q    Type
REMARK                         _______ _______ _______ _____ _____    ______ ____
ROOT
ATOM      1  C   UNL     1       6.096   5.359  17.711  0.00  0.00    +0.000 A 
ATOM      2  N   UNL     1       6.711   6.357  18.402  0.00  0.00    +0.000 NA
ATOM      3  C   UNL     1       7.608   7.087  17.725  0.00  0.00    +0.000 A 
ATOM      4  N   UNL     1       7.921   6.919  16.433  0.00  0.00    +0.000 NA
ATOM      5  C   UNL     1       7.287   5.919  15.788  0.00  0.00    +0.000 A 
ATOM      6  C   UNL     1       6.356   5.088  16.375  0.00  0.00    +0.000 A 
ATOM      7 CL   UNL     1       5.671   3.849  15.403  0.00  0.00    +0.000 Cl
ENDROOT
BRANCH   1   9
ATOM      8  N   UNL     1       3.775   4.704  18.187  0.00  0.00    +0.000 N 
ATOM      9  C   UNL     1       5.121   4.559  18.525  0.00  0.00    +0.000 C 
ATOM     10  O   UNL     1       5.541   3.814  19.400  0.00  0.00    +0.000 OA
ATOM     11  H   UNL     1       3.547   5.217  17.337  0.00  0.00    +0.000 HD
BRANCH   8  17
ATOM     12  C   UNL     1       2.271   2.801  18.602  0.00  0.00    +0.000 A 
ATOM     13  C   UNL     1       1.161   2.257  19.273  0.00  0.00    +0.000 A 
ATOM     14  C   UNL     1       0.492   2.979  20.261  0.00  0.00    +0.000 A 
ATOM     15  C   UNL     1       0.908   4.269  20.561  0.00  0.00    +0.000 A 
ATOM     16  C   UNL     1       1.976   4.834  19.872  0.00  0.00    +0.000 A 
ATOM     17  C   UNL     1       2.683   4.122  18.892  0.00  0.00    +0.000 A 
BRANCH  12  19
ATOM     18  C   UNL     1       3.845   1.078  18.215  0.00  0.00    +0.000 C 
ATOM     19  O   UNL     1       2.996   2.093  17.668  0.00  0.00    +0.000 OA
ENDBRANCH  12  19
ENDBRANCH   8  17
ENDBRANCH   1   9
BRANCH   3  20
ATOM     20  S   UNL     1       8.499   8.280  18.662  0.00  0.00    +0.000 S 
BRANCH  20  21
ATOM     21  C   UNL     1       8.258   9.750  17.610  0.00  0.00    +0.000 C 
BRANCH  21  22
ATOM     22  C   UNL     1       9.003  10.903  18.227  0.00  0.00    +0.000 A 
ATOM     23  C   UNL     1       9.909  10.692  19.278  0.00  0.00    +0.000 A 
ATOM     24  C   UNL     1      10.465  11.777  19.957  0.00  0.00    +0.000 A 
ATOM     25  C   UNL     1      10.125  13.081  19.592  0.00  0.00    +0.000 A 
ATOM     26  C   UNL     1       9.247  13.301  18.533  0.00  0.00    +0.000 A 
ATOM     27  C   UNL     1       8.697  12.217  17.859  0.00  0.00    +0.000 A 
ATOM     28  F   UNL     1       7.832  12.446  16.860  0.00  0.00    +0.000 F 
ENDBRANCH  21  22
ENDBRANCH  20  21
ENDBRANCH   3  20
TORSDOF 6
ENDMDL
MODEL 4
REMARK VINA RESULT:      -7.4      1.180      1.364
REMARK  Name = 
REMARK  7 active torsions:
REMARK  status: ('A' for Active; 'I' for Inactive)
REMARK    1  A    between atoms: C_1  and  O_2
REMARK    2  A    between atoms: O_2  and  C_3
REMARK    3  A    between atoms: C_8  and  N_9
REMARK    4  A    between atoms: C_10  and  C_12
REMARK    5  A    between atoms: C_14  and  S_15
REMARK    6  A    between atoms: S_15  and  C_16
REMARK    7  A    between atoms: C_16  and  C_17
REMARK                            x       y       z     vdW  Elec       q    Type
REMARK                         _______ _______ _______ _____ _____    ______ ____
ROOT
ATOM      1  C   UNL     1       3.090   5.081  19.690  0.00  0.00    +0.000 A 
ATOM      2  N   UNL     1       4.344   5.609  19.696  0.00  0.00    +0.000 NA
ATOM      3  C   UNL     1       5.328   4.816  19.249  0.00  0.00    +0.000 A 
ATOM      4  N   UNL     1       5.163   3.569  18.787  0.00  0.00    +0.000 NA
ATOM      5  C   UNL     1       3.904   3.088  18.799  0.00  0.00    +0.000 A 
ATOM      6  C   UNL     1       2.809   3.796  19.247  0.00  0.00    +0.000 A 
ATOM      7 CL   UNL     1       1.283   3.009  19.213  0.00  0.00    +0.000 Cl
ENDROOT
BRANCH   1   9
ATOM      8  N   UNL     1       2.280   7.369  20.079  0.00  0.00    +0.000 N 
ATOM      9  C   UNL     1       2.033   6.004  20.224  0.00  0.00    +0.000 C 
ATOM     10  O   UNL     1       1.020   5.529  20.719  0.00  0.00    +0.000 OA
ATOM     11  H   UNL     1       3.071   7.655  19.505  0.00  0.00    +0.000 HD
BRANCH   8  17
ATOM     12  C   UNL     1       0.883   9.366  19.738  0.00  0.00    +0.000 A 
ATOM     13  C   UNL     1       0.119  10.417  20.275  0.00  0.00    +0.000 A 
ATOM     14  C   UNL     1      -0.121  10.506  21.646  0.00  0.00    +0.000 A 
ATOM     15  C   UNL     1       0.433   9.558  22.496  0.00  0.00    +0.000 A 
ATOM     16  C   UNL     1       1.227   8.539  21.981  0.00  0.00    +0.000 A 
ATOM     17  C   UNL     1       1.464   8.412  20.604  0.00  0.00    +0.000 A 
BRANCH  12  19
ATOM     18  C   UNL     1       2.071  10.084  17.821  0.00  0.00    +0.000 C 
ATOM     19  O   UNL     1       1.085   9.210  18.383  0.00  0.00    +0.000 OA
ENDBRANCH  12  19
ENDBRANCH   8  17
ENDBRANCH   1   9
BRANCH   3  20
ATOM     20  S   UNL     1       6.961   5.455  19.393  0.00  0.00    +0.000 S 
BRANCH  20  21
ATOM     21  C   UNL     1       6.959   6.639  18.006  0.00  0.00    +0.000 C 
BRANCH  21  22
ATOM     22  C   UNL     1       6.570   5.902  16.753  0.00  0.00    +0.000 A 
ATOM     23  C   UNL     1       5.491   6.338  15.969  0.00  0.00    +0.000 A 
ATOM     24  C   UNL     1       5.030   5.555  14.908  0.00  0.00    +0.000 A 
ATOM     25  C   UNL     1       5.644   4.336  14.618  0.00  0.00    +0.000 A 
ATOM     26  C   UNL     1       6.733   3.907  15.374  0.00  0.00    +0.000 A 
ATOM     27  C   UNL     1       7.189   4.691  16.428  0.00  0.00    +0.000 A 
ATOM     28  F   UNL     1       8.221   4.250  17.164  0.00  0.00    +0.000 F 
ENDBRANCH  21  22
ENDBRANCH  20  21
ENDBRANCH   3  20
TORSDOF 6
ENDMDL
MODEL 5
REMARK VINA RESULT:      -7.4      2.961      4.529
REMARK  Name = 
REMARK  7 active torsions:
REMARK  status: ('A' for Active; 'I' for Inactive)
REMARK    1  A    between atoms: C_1  and  O_2
REMARK    2  A    between atoms: O_2  and  C_3
REMARK    3  A    between atoms: C_8  and  N_9
REMARK    4  A    between atoms: C_10  and  C_12
REMARK    5  A    between atoms: C_14  and  S_15
REMARK    6  A    between atoms: S_15  and  C_16
REMARK    7  A    between atoms: C_16  and  C_17
REMARK                            x       y       z     vdW  Elec       q    Type
REMARK                         _______ _______ _______ _____ _____    ______ ____
ROOT
ATOM      1  C   UNL     1       2.843   7.113  19.045  0.00  0.00    +0.000 A 
ATOM      2  N   UNL     1       3.589   6.011  19.326  0.00  0.00    +0.000 NA
ATOM      3  C   UNL     1       4.468   5.629  18.389  0.00  0.00    +0.000 A 
ATOM      4  N   UNL     1       4.672   6.257  17.223  0.00  0.00    +0.000 NA
ATOM      5  C   UNL     1       3.911   7.345  16.987  0.00  0.00    +0.000 A 
ATOM      6  C   UNL     1       2.963   7.830  17.862  0.00  0.00    +0.000 A 
ATOM      7 CL   UNL     1       2.067   9.213  17.378  0.00  0.00    +0.000 Cl
ENDROOT
BRANCH   1   9
ATOM      8  N   UNL     1       1.473   8.820  20.164  0.00  0.00    +0.000 N 
ATOM      9  C   UNL     1       1.859   7.480  20.118  0.00  0.00    +0.000 C 
ATOM     10  O   UNL     1       1.431   6.606  20.861  0.00  0.00    +0.000 OA
ATOM     11  H   UNL     1       1.759   9.427  19.399  0.00  0.00    +0.000 HD
BRANCH   8  17
ATOM     12  C   UNL     1      -0.324  10.374  20.804  0.00  0.00    +0.000 A 
ATOM     13  C   UNL     1      -1.110  10.972  21.805  0.00  0.00    +0.000 A 
ATOM     14  C   UNL     1      -0.997  10.582  23.139  0.00  0.00    +0.000 A 
ATOM     15  C   UNL     1      -0.068   9.611  23.487  0.00  0.00    +0.000 A 
ATOM     16  C   UNL     1       0.746   9.044  22.513  0.00  0.00    +0.000 A 
ATOM     17  C   UNL     1       0.637   9.400  21.160  0.00  0.00    +0.000 A 
BRANCH  12  19
ATOM     18  C   UNL     1      -0.183  12.055  19.145  0.00  0.00    +0.000 C 
ATOM     19  O   UNL     1      -0.455  10.687  19.468  0.00  0.00    +0.000 OA
ENDBRANCH  12  19
ENDBRANCH   8  17
ENDBRANCH   1   9
BRANCH   3  20
ATOM     20  S   UNL     1       5.325   4.125  18.700  0.00  0.00    +0.000 S 
BRANCH  20  21
ATOM     21  C   UNL     1       4.063   2.925  18.156  0.00  0.00    +0.000 C 
BRANCH  21  22
ATOM     22  C   UNL     1       3.017   2.816  19.233  0.00  0.00    +0.000 A 
ATOM     23  C   UNL     1       1.689   3.196  18.984  0.00  0.00    +0.000 A 
ATOM     24  C   UNL     1       0.767   3.255  20.031  0.00  0.00    +0.000 A 
ATOM     25  C   UNL     1       1.158   2.932  21.330  0.00  0.00    +0.000 A 
ATOM     26  C   UNL     1       2.468   2.528  21.583  0.00  0.00    +0.000 A 
ATOM     27  C   UNL     1       3.383   2.469  20.537  0.00  0.00    +0.000 A 
ATOM     28  F   UNL     1       4.647   2.106  20.802  0.00  0.00    +0.000 F 
ENDBRANCH  21  22
ENDBRANCH  20  21
ENDBRANCH   3  20
TORSDOF 6
ENDMDL
MODEL 6
REMARK VINA RESULT:      -7.3      1.531      1.927
REMARK  Name = 
REMARK  7 active torsions:
REMARK  status: ('A' for Active; 'I' for Inactive)
REMARK    1  A    between atoms: C_1  and  O_2
REMARK    2  A    between atoms: O_2  and  C_3
REMARK    3  A    between atoms: C_8  and  N_9
REMARK    4  A    between atoms: C_10  and  C_12
REMARK    5  A    between atoms: C_14  and  S_15
REMARK    6  A    between atoms: S_15  and  C_16
REMARK    7  A    between atoms: C_16  and  C_17
REMARK                            x       y       z     vdW  Elec       q    Type
REMARK                         _______ _______ _______ _____ _____    ______ ____
ROOT
ATOM      1  C   UNL     1       3.195   5.346  19.322  0.00  0.00    +0.000 A 
ATOM      2  N   UNL     1       3.777   6.003  18.283  0.00  0.00    +0.000 NA
ATOM      3  C   UNL     1       4.747   5.348  17.630  0.00  0.00    +0.000 A 
ATOM      4  N   UNL     1       5.164   4.107  17.913  0.00  0.00    +0.000 NA
ATOM      5  C   UNL     1       4.559   3.494  18.951  0.00  0.00    +0.000 A 
ATOM      6  C   UNL     1       3.560   4.064  19.711  0.00  0.00    +0.000 A 
ATOM      7 CL   UNL     1       2.926   3.142  21.013  0.00  0.00    +0.000 Cl
ENDROOT
BRANCH   1   9
ATOM      8  N   UNL     1       2.247   7.524  19.954  0.00  0.00    +0.000 N 
ATOM      9  C   UNL     1       2.134   6.136  20.032  0.00  0.00    +0.000 C 
ATOM     10  O   UNL     1       1.227   5.543  20.601  0.00  0.00    +0.000 OA
ATOM     11  H   UNL     1       2.940   7.914  19.318  0.00  0.00    +0.000 HD
BRANCH   8  17
ATOM     12  C   UNL     1       0.783   9.502  19.924  0.00  0.00    +0.000 A 
ATOM     13  C   UNL     1       0.002  10.442  20.618  0.00  0.00    +0.000 A 
ATOM     14  C   UNL     1      -0.207  10.331  21.993  0.00  0.00    +0.000 A 
ATOM     15  C   UNL     1       0.395   9.293  22.690  0.00  0.00    +0.000 A 
ATOM     16  C   UNL     1       1.207   8.383  22.022  0.00  0.00    +0.000 A 
ATOM     17  C   UNL     1       1.414   8.457  20.636  0.00  0.00    +0.000 A 
BRANCH  12  19
ATOM     18  C   UNL     1       1.732  10.650  18.086  0.00  0.00    +0.000 C 
ATOM     19  O   UNL     1       0.957   9.543  18.557  0.00  0.00    +0.000 OA
ENDBRANCH  12  19
ENDBRANCH   8  17
ENDBRANCH   1   9
BRANCH   3  20
ATOM     20  S   UNL     1       5.588   6.257  16.380  0.00  0.00    +0.000 S 
BRANCH  20  21
ATOM     21  C   UNL     1       6.832   5.021  15.877  0.00  0.00    +0.000 C 
BRANCH  21  22
ATOM     22  C   UNL     1       6.565   4.635  14.446  0.00  0.00    +0.000 A 
ATOM     23  C   UNL     1       5.444   3.861  14.109  0.00  0.00    +0.000 A 
ATOM     24  C   UNL     1       5.296   3.365  12.813  0.00  0.00    +0.000 A 
ATOM     25  C   UNL     1       6.260   3.639  11.842  0.00  0.00    +0.000 A 
ATOM     26  C   UNL     1       7.363   4.428  12.161  0.00  0.00    +0.000 A 
ATOM     27  C   UNL     1       7.506   4.922  13.453  0.00  0.00    +0.000 A 
ATOM     28  F   UNL     1       8.588   5.657  13.750  0.00  0.00    +0.000 F 
ENDBRANCH  21  22
ENDBRANCH  20  21
ENDBRANCH   3  20
TORSDOF 6
ENDMDL
MODEL 7
REMARK VINA RESULT:      -7.3      4.648      6.588
REMARK  Name = 
REMARK  7 active torsions:
REMARK  status: ('A' for Active; 'I' for Inactive)
REMARK    1  A    between atoms: C_1  and  O_2
REMARK    2  A    between atoms: O_2  and  C_3
REMARK    3  A    between atoms: C_8  and  N_9
REMARK    4  A    between atoms: C_10  and  C_12
REMARK    5  A    between atoms: C_14  and  S_15
REMARK    6  A    between atoms: S_15  and  C_16
REMARK    7  A    between atoms: C_16  and  C_17
REMARK                            x       y       z     vdW  Elec       q    Type
REMARK                         _______ _______ _______ _____ _____    ______ ____
ROOT
ATOM      1  C   UNL     1       6.041   5.445  17.685  0.00  0.00    +0.000 A 
ATOM      2  N   UNL     1       6.726   6.306  18.485  0.00  0.00    +0.000 NA
ATOM      3  C   UNL     1       7.635   7.085  17.884  0.00  0.00    +0.000 A 
ATOM      4  N   UNL     1       7.900   7.089  16.571  0.00  0.00    +0.000 NA
ATOM      5  C   UNL     1       7.197   6.220  15.816  0.00  0.00    +0.000 A 
ATOM      6  C   UNL     1       6.246   5.355  16.315  0.00  0.00    +0.000 A 
ATOM      7 CL   UNL     1       5.471   4.298  15.205  0.00  0.00    +0.000 Cl
ENDROOT
BRANCH   1   9
ATOM      8  N   UNL     1       3.714   4.750  18.065  0.00  0.00    +0.000 N 
ATOM      9  C   UNL     1       5.054   4.580  18.414  0.00  0.00    +0.000 C 
ATOM     10  O   UNL     1       5.462   3.768  19.234  0.00  0.00    +0.000 OA
ATOM     11  H   UNL     1       3.500   5.330  17.256  0.00  0.00    +0.000 HD
BRANCH   8  17
ATOM     12  C   UNL     1       2.097   4.623  19.915  0.00  0.00    +0.000 A 
ATOM     13  C   UNL     1       1.038   3.955  20.556  0.00  0.00    +0.000 A 
ATOM     14  C   UNL     1       0.450   2.825  19.988  0.00  0.00    +0.000 A 
ATOM     15  C   UNL     1       0.942   2.334  18.786  0.00  0.00    +0.000 A 
ATOM     16  C   UNL     1       2.017   2.960  18.165  0.00  0.00    +0.000 A 
ATOM     17  C   UNL     1       2.612   4.112  18.702  0.00  0.00    +0.000 A 
BRANCH  12  19
ATOM     18  C   UNL     1       1.810   6.931  20.350  0.00  0.00    +0.000 C 
ATOM     19  O   UNL     1       2.658   5.779  20.414  0.00  0.00    +0.000 OA
ENDBRANCH  12  19
ENDBRANCH   8  17
ENDBRANCH   1   9
BRANCH   3  20
ATOM     20  S   UNL     1       8.613   8.092  18.945  0.00  0.00    +0.000 S 
BRANCH  20  21
ATOM     21  C   UNL     1       8.336   9.722  18.173  0.00  0.00    +0.000 C 
BRANCH  21  22
ATOM     22  C   UNL     1       9.435  10.650  18.618  0.00  0.00    +0.000 A 
ATOM     23  C   UNL     1      10.420  11.080  17.715  0.00  0.00    +0.000 A 
ATOM     24  C   UNL     1      11.527  11.798  18.171  0.00  0.00    +0.000 A 
ATOM     25  C   UNL     1      11.659  12.097  19.528  0.00  0.00    +0.000 A 
ATOM     26  C   UNL     1      10.673  11.698  20.428  0.00  0.00    +0.000 A 
ATOM     27  C   UNL     1       9.571  10.984  19.969  0.00  0.00    +0.000 A 
ATOM     28  F   UNL     1       8.645  10.582  20.852  0.00  0.00    +0.000 F 
ENDBRANCH  21  22
ENDBRANCH  20  21
ENDBRANCH   3  20
TORSDOF 6
ENDMDL
MODEL 8
REMARK VINA RESULT:      -7.3      2.861      4.464
REMARK  Name = 
REMARK  7 active torsions:
REMARK  status: ('A' for Active; 'I' for Inactive)
REMARK    1  A    between atoms: C_1  and  O_2
REMARK    2  A    between atoms: O_2  and  C_3
REMARK    3  A    between atoms: C_8  and  N_9
REMARK    4  A    between atoms: C_10  and  C_12
REMARK    5  A    between atoms: C_14  and  S_15
REMARK    6  A    between atoms: S_15  and  C_16
REMARK    7  A    between atoms: C_16  and  C_17
REMARK                            x       y       z     vdW  Elec       q    Type
REMARK                         _______ _______ _______ _____ _____    ______ ____
ROOT
ATOM      1  C   UNL     1       2.874   7.152  18.972  0.00  0.00    +0.000 A 
ATOM      2  N   UNL     1       3.622   6.043  19.219  0.00  0.00    +0.000 NA
ATOM      3  C   UNL     1       4.487   5.680  18.262  0.00  0.00    +0.000 A 
ATOM      4  N   UNL     1       4.677   6.333  17.107  0.00  0.00    +0.000 NA
ATOM      5  C   UNL     1       3.915   7.427  16.905  0.00  0.00    +0.000 A 
ATOM      6  C   UNL     1       2.980   7.894  17.803  0.00  0.00    +0.000 A 
ATOM      7 CL   UNL     1       2.081   9.290  17.362  0.00  0.00    +0.000 Cl
ENDROOT
BRANCH   1   9
ATOM      8  N   UNL     1       1.482   8.826  20.114  0.00  0.00    +0.000 N 
ATOM      9  C   UNL     1       1.906   7.497  20.066  0.00  0.00    +0.000 C 
ATOM     10  O   UNL     1       1.520   6.616  20.823  0.00  0.00    +0.000 OA
ATOM     11  H   UNL     1       1.732   9.437  19.339  0.00  0.00    +0.000 HD
BRANCH   8  17
ATOM     12  C   UNL     1      -0.323  10.354  20.792  0.00  0.00    +0.000 A 
ATOM     13  C   UNL     1      -1.102  10.934  21.808  0.00  0.00    +0.000 A 
ATOM     14  C   UNL     1      -0.967  10.534  23.137  0.00  0.00    +0.000 A 
ATOM     15  C   UNL     1      -0.023   9.570  23.464  0.00  0.00    +0.000 A 
ATOM     16  C   UNL     1       0.785   9.021  22.474  0.00  0.00    +0.000 A 
ATOM     17  C   UNL     1       0.653   9.388  21.126  0.00  0.00    +0.000 A 
BRANCH  12  19
ATOM     18  C   UNL     1      -0.225  12.052  19.147  0.00  0.00    +0.000 C 
ATOM     19  O   UNL     1      -0.476  10.678  19.461  0.00  0.00    +0.000 OA
ENDBRANCH  12  19
ENDBRANCH   8  17
ENDBRANCH   1   9
BRANCH   3  20
ATOM     20  S   UNL     1       5.345   4.168  18.528  0.00  0.00    +0.000 S 
BRANCH  20  21
ATOM     21  C   UNL     1       4.005   2.980  18.179  0.00  0.00    +0.000 C 
BRANCH  21  22
ATOM     22  C   UNL     1       3.015   3.036  19.311  0.00  0.00    +0.000 A 
ATOM     23  C   UNL     1       3.398   2.698  20.618  0.00  0.00    +0.000 A 
ATOM     24  C   UNL     1       2.439   2.587  21.626  0.00  0.00    +0.000 A 
ATOM     25  C   UNL     1       1.092   2.816  21.341  0.00  0.00    +0.000 A 
ATOM     26  C   UNL     1       0.705   3.178  20.053  0.00  0.00    +0.000 A 
ATOM     27  C   UNL     1       1.664   3.289  19.052  0.00  0.00    +0.000 A 
ATOM     28  F   UNL     1       1.271   3.611  17.810  0.00  0.00    +0.000 F 
ENDBRANCH  21  22
ENDBRANCH  20  21
ENDBRANCH   3  20
TORSDOF 6
ENDMDL
MODEL 9
REMARK VINA RESULT:      -7.3      1.170      1.344
REMARK  Name = 
REMARK  7 active torsions:
REMARK  status: ('A' for Active; 'I' for Inactive)
REMARK    1  A    between atoms: C_1  and  O_2
REMARK    2  A    between atoms: O_2  and  C_3
REMARK    3  A    between atoms: C_8  and  N_9
REMARK    4  A    between atoms: C_10  and  C_12
REMARK    5  A    between atoms: C_14  and  S_15
REMARK    6  A    between atoms: S_15  and  C_16
REMARK    7  A    between atoms: C_16  and  C_17
REMARK                            x       y       z     vdW  Elec       q    Type
REMARK                         _______ _______ _______ _____ _____    ______ ____
ROOT
ATOM      1  C   UNL     1       3.139   5.389  19.366  0.00  0.00    +0.000 A 
ATOM      2  N   UNL     1       3.731   6.051  18.335  0.00  0.00    +0.000 NA
ATOM      3  C   UNL     1       4.688   5.389  17.671  0.00  0.00    +0.000 A 
ATOM      4  N   UNL     1       5.082   4.135  17.933  0.00  0.00    +0.000 NA
ATOM      5  C   UNL     1       4.467   3.518  18.962  0.00  0.00    +0.000 A 
ATOM      6  C   UNL     1       3.480   4.094  19.733  0.00  0.00    +0.000 A 
ATOM      7 CL   UNL     1       2.830   3.164  21.022  0.00  0.00    +0.000 Cl
ENDROOT
BRANCH   1   9
ATOM      8  N   UNL     1       2.170   7.573  19.945  0.00  0.00    +0.000 N 
ATOM      9  C   UNL     1       2.093   6.187  20.089  0.00  0.00    +0.000 C 
ATOM     10  O   UNL     1       1.228   5.601  20.727  0.00  0.00    +0.000 OA
ATOM     11  H   UNL     1       2.823   7.948  19.260  0.00  0.00    +0.000 HD
BRANCH   8  17
ATOM     12  C   UNL     1       0.724   9.563  19.908  0.00  0.00    +0.000 A 
ATOM     13  C   UNL     1      -0.047  10.515  20.599  0.00  0.00    +0.000 A 
ATOM     14  C   UNL     1      -0.251  10.414  21.975  0.00  0.00    +0.000 A 
ATOM     15  C   UNL     1       0.345   9.376  22.677  0.00  0.00    +0.000 A 
ATOM     16  C   UNL     1       1.146   8.454  22.012  0.00  0.00    +0.000 A 
ATOM     17  C   UNL     1       1.348   8.517  20.624  0.00  0.00    +0.000 A 
BRANCH  12  19
ATOM     18  C   UNL     1       1.835  10.565  18.075  0.00  0.00    +0.000 C 
ATOM     19  O   UNL     1       0.892   9.593  18.540  0.00  0.00    +0.000 OA
ENDBRANCH  12  19
ENDBRANCH   8  17
ENDBRANCH   1   9
BRANCH   3  20
ATOM     20  S   UNL     1       5.544   6.302  16.435  0.00  0.00    +0.000 S 
BRANCH  20  21
ATOM     21  C   UNL     1       7.003   5.230  16.207  0.00  0.00    +0.000 C 
BRANCH  21  22
ATOM     22  C   UNL     1       7.053   4.797  14.766  0.00  0.00    +0.000 A 
ATOM     23  C   UNL     1       7.820   5.506  13.830  0.00  0.00    +0.000 A 
ATOM     24  C   UNL     1       7.727   5.203  12.470  0.00  0.00    +0.000 A 
ATOM     25  C   UNL     1       6.872   4.190  12.034  0.00  0.00    +0.000 A 
ATOM     26  C   UNL     1       6.125   3.463  12.958  0.00  0.00    +0.000 A 
ATOM     27  C   UNL     1       6.223   3.767  14.312  0.00  0.00    +0.000 A 
ATOM     28  F   UNL     1       5.476   3.076  15.187  0.00  0.00    +0.000 F 
ENDBRANCH  21  22
ENDBRANCH  20  21
ENDBRANCH   3  20
TORSDOF 6
ENDMDL
