MODEL 1
REMARK VINA RESULT:      -7.1      0.000      0.000
REMARK  Name = 
REMARK  3 active torsions:
REMARK  status: ('A' for Active; 'I' for Inactive)
REMARK    1  A    between atoms: C_1  and  C_2
REMARK    2  A    between atoms: C_8  and  C_9
REMARK    3  A    between atoms: C_11  and  C_12
REMARK                            x       y       z     vdW  Elec       q    Type
REMARK                         _______ _______ _______ _____ _____    ______ ____
ROOT
ATOM      1  C   UNL     1       4.154   2.113  19.903  0.00  0.00    +0.000 C 
ATOM      2  C   UNL     1       3.679   3.541  19.726  0.00  0.00    +0.000 C 
ATOM      3  O   UNL     1       3.299   4.183  20.708  0.00  0.00    +0.000 OA
ATOM      4  N   UNL     1       3.798   4.039  18.429  0.00  0.00    +0.000 N 
ATOM      5  C   UNL     1       3.660   3.160  17.368  0.00  0.00    +0.000 C 
ATOM      6  O   UNL     1       2.654   2.465  17.195  0.00  0.00    +0.000 OA
ATOM      7  C   UNL     1       4.839   3.056  16.426  0.00  0.00    +0.000 C 
ATOM      8  C   UNL     1       5.134   4.379  15.732  0.00  0.00    +0.000 C 
ATOM      9  C   UNL     1       6.108   4.188  14.566  0.00  0.00    +0.000 C 
ATOM     10  N   UNL     1       5.566   5.429  16.678  0.00  0.00    +0.000 N 
ATOM     11  C   UNL     1       6.822   5.381  17.289  0.00  0.00    +0.000 C 
ATOM     12  C   UNL     1       7.154   6.426  18.335  0.00  0.00    +0.000 C 
ATOM     13  O   UNL     1       7.651   4.507  17.029  0.00  0.00    +0.000 OA
ATOM     14  C   UNL     1       4.486   6.110  17.293  0.00  0.00    +0.000 A 
ATOM     15  C   UNL     1       4.319   7.471  17.014  0.00  0.00    +0.000 A 
ATOM     16  C   UNL     1       3.272   8.174  17.599  0.00  0.00    +0.000 A 
ATOM     17  C   UNL     1       2.389   7.518  18.454  0.00  0.00    +0.000 A 
ATOM     18  C   UNL     1       2.556   6.157  18.739  0.00  0.00    +0.000 A 
ATOM     19  C   UNL     1       3.600   5.430  18.153  0.00  0.00    +0.000 A 
ENDROOT
TORSDOF 0
ENDMDL
MODEL 2
REMARK VINA RESULT:      -6.6      2.085      4.690
REMARK  Name = 
REMARK  3 active torsions:
REMARK  status: ('A' for Active; 'I' for Inactive)
REMARK    1  A    between atoms: C_1  and  C_2
REMARK    2  A    between atoms: C_8  and  C_9
REMARK    3  A    between atoms: C_11  and  C_12
REMARK                            x       y       z     vdW  Elec       q    Type
REMARK                         _______ _______ _______ _____ _____    ______ ____
ROOT
ATOM      1  C   UNL     1       7.045   6.351  18.611  0.00  0.00    +0.000 C 
ATOM      2  C   UNL     1       6.122   5.166  18.403  0.00  0.00    +0.000 C 
ATOM      3  O   UNL     1       6.486   4.041  18.751  0.00  0.00    +0.000 OA
ATOM      4  N   UNL     1       4.867   5.490  17.889  0.00  0.00    +0.000 N 
ATOM      5  C   UNL     1       4.761   6.570  17.030  0.00  0.00    +0.000 C 
ATOM      6  O   UNL     1       5.406   6.661  15.980  0.00  0.00    +0.000 OA
ATOM      7  C   UNL     1       3.827   7.680  17.458  0.00  0.00    +0.000 C 
ATOM      8  C   UNL     1       2.387   7.201  17.576  0.00  0.00    +0.000 C 
ATOM      9  C   UNL     1       1.419   8.381  17.700  0.00  0.00    +0.000 C 
ATOM     10  N   UNL     1       2.211   6.198  18.647  0.00  0.00    +0.000 N 
ATOM     11  C   UNL     1       2.284   6.556  19.996  0.00  0.00    +0.000 C 
ATOM     12  C   UNL     1       2.210   5.459  21.038  0.00  0.00    +0.000 C 
ATOM     13  O   UNL     1       2.433   7.724  20.362  0.00  0.00    +0.000 OA
ATOM     14  C   UNL     1       2.508   4.875  18.232  0.00  0.00    +0.000 A 
ATOM     15  C   UNL     1       1.467   3.941  18.206  0.00  0.00    +0.000 A 
ATOM     16  C   UNL     1       1.720   2.634  17.806  0.00  0.00    +0.000 A 
ATOM     17  C   UNL     1       3.007   2.262  17.424  0.00  0.00    +0.000 A 
ATOM     18  C   UNL     1       4.052   3.194  17.453  0.00  0.00    +0.000 A 
ATOM     19  C   UNL     1       3.816   4.517  17.846  0.00  0.00    +0.000 A 
ENDROOT
TORSDOF 0
ENDMDL
MODEL 3
REMARK VINA RESULT:      -6.6      1.505      4.255
REMARK  Name = 
REMARK  3 active torsions:
REMARK  status: ('A' for Active; 'I' for Inactive)
REMARK    1  A    between atoms: C_1  and  C_2
REMARK    2  A    between atoms: C_8  and  C_9
REMARK    3  A    between atoms: C_11  and  C_12
REMARK                            x       y       z     vdW  Elec       q    Type
REMARK                         _______ _______ _______ _____ _____    ______ ____
ROOT
ATOM      1  C   UNL     1       6.158   3.618  15.716  0.00  0.00    +0.000 C 
ATOM      2  C   UNL     1       5.406   4.892  16.046  0.00  0.00    +0.000 C 
ATOM      3  O   UNL     1       5.214   5.732  15.165  0.00  0.00    +0.000 OA
ATOM      4  N   UNL     1       4.914   4.958  17.349  0.00  0.00    +0.000 N 
ATOM      5  C   UNL     1       5.625   4.330  18.357  0.00  0.00    +0.000 C 
ATOM      6  O   UNL     1       6.808   4.583  18.607  0.00  0.00    +0.000 OA
ATOM      7  C   UNL     1       4.885   3.266  19.138  0.00  0.00    +0.000 C 
ATOM      8  C   UNL     1       3.681   3.834  19.877  0.00  0.00    +0.000 C 
ATOM      9  C   UNL     1       3.134   2.832  20.898  0.00  0.00    +0.000 C 
ATOM     10  N   UNL     1       2.642   4.344  18.958  0.00  0.00    +0.000 N 
ATOM     11  C   UNL     1       1.859   3.473  18.194  0.00  0.00    +0.000 C 
ATOM     12  C   UNL     1       0.895   4.068  17.187  0.00  0.00    +0.000 C 
ATOM     13  O   UNL     1       1.948   2.248  18.290  0.00  0.00    +0.000 OA
ATOM     14  C   UNL     1       2.876   5.675  18.528  0.00  0.00    +0.000 A 
ATOM     15  C   UNL     1       1.966   6.663  18.916  0.00  0.00    +0.000 A 
ATOM     16  C   UNL     1       2.161   7.980  18.513  0.00  0.00    +0.000 A 
ATOM     17  C   UNL     1       3.266   8.309  17.732  0.00  0.00    +0.000 A 
ATOM     18  C   UNL     1       4.176   7.321  17.338  0.00  0.00    +0.000 A 
ATOM     19  C   UNL     1       4.001   5.990  17.740  0.00  0.00    +0.000 A 
ENDROOT
TORSDOF 0
ENDMDL
MODEL 4
REMARK VINA RESULT:      -6.2      2.035      4.393
REMARK  Name = 
REMARK  3 active torsions:
REMARK  status: ('A' for Active; 'I' for Inactive)
REMARK    1  A    between atoms: C_1  and  C_2
REMARK    2  A    between atoms: C_8  and  C_9
REMARK    3  A    between atoms: C_11  and  C_12
REMARK                            x       y       z     vdW  Elec       q    Type
REMARK                         _______ _______ _______ _____ _____    ______ ____
ROOT
ATOM      1  C   UNL     1       5.480   5.962  15.998  0.00  0.00    +0.000 C 
ATOM      2  C   UNL     1       4.450   6.483  16.981  0.00  0.00    +0.000 C 
ATOM      3  O   UNL     1       3.711   7.414  16.654  0.00  0.00    +0.000 OA
ATOM      4  N   UNL     1       4.382   5.778  18.182  0.00  0.00    +0.000 N 
ATOM      5  C   UNL     1       5.539   5.203  18.679  0.00  0.00    +0.000 C 
ATOM      6  O   UNL     1       6.564   5.849  18.917  0.00  0.00    +0.000 OA
ATOM      7  C   UNL     1       5.508   3.705  18.889  0.00  0.00    +0.000 C 
ATOM      8  C   UNL     1       4.459   3.295  19.914  0.00  0.00    +0.000 C 
ATOM      9  C   UNL     1       4.648   1.837  20.346  0.00  0.00    +0.000 C 
ATOM     10  N   UNL     1       3.083   3.588  19.464  0.00  0.00    +0.000 N 
ATOM     11  C   UNL     1       2.482   2.850  18.440  0.00  0.00    +0.000 C 
ATOM     12  C   UNL     1       1.114   3.280  17.950  0.00  0.00    +0.000 C 
ATOM     13  O   UNL     1       3.036   1.887  17.907  0.00  0.00    +0.000 OA
ATOM     14  C   UNL     1       2.675   4.919  19.733  0.00  0.00    +0.000 A 
ATOM     15  C   UNL     1       1.628   5.118  20.638  0.00  0.00    +0.000 A 
ATOM     16  C   UNL     1       1.199   6.409  20.927  0.00  0.00    +0.000 A 
ATOM     17  C   UNL     1       1.820   7.498  20.320  0.00  0.00    +0.000 A 
ATOM     18  C   UNL     1       2.866   7.301  19.410  0.00  0.00    +0.000 A 
ATOM     19  C   UNL     1       3.317   6.009  19.111  0.00  0.00    +0.000 A 
ENDROOT
TORSDOF 0
ENDMDL
MODEL 5
REMARK VINA RESULT:      -6.0      8.935     10.917
REMARK  Name = 
REMARK  3 active torsions:
REMARK  status: ('A' for Active; 'I' for Inactive)
REMARK    1  A    between atoms: C_1  and  C_2
REMARK    2  A    between atoms: C_8  and  C_9
REMARK    3  A    between atoms: C_11  and  C_12
REMARK                            x       y       z     vdW  Elec       q    Type
REMARK                         _______ _______ _______ _____ _____    ______ ____
ROOT
ATOM      1  C   UNL     1       7.493  12.795  22.667  0.00  0.00    +0.000 C 
ATOM      2  C   UNL     1       8.622  12.295  21.788  0.00  0.00    +0.000 C 
ATOM      3  O   UNL     1       8.921  11.099  21.802  0.00  0.00    +0.000 OA
ATOM      4  N   UNL     1       9.183  13.261  20.954  0.00  0.00    +0.000 N 
ATOM      5  C   UNL     1       9.218  14.574  21.392  0.00  0.00    +0.000 C 
ATOM      6  O   UNL     1       9.763  14.918  22.446  0.00  0.00    +0.000 OA
ATOM      7  C   UNL     1       8.512  15.591  20.523  0.00  0.00    +0.000 C 
ATOM      8  C   UNL     1       9.130  15.682  19.135  0.00  0.00    +0.000 C 
ATOM      9  C   UNL     1       8.621  16.915  18.382  0.00  0.00    +0.000 C 
ATOM     10  N   UNL     1       8.973  14.432  18.363  0.00  0.00    +0.000 N 
ATOM     11  C   UNL     1       7.727  14.037  17.867  0.00  0.00    +0.000 C 
ATOM     12  C   UNL     1       7.618  12.688  17.186  0.00  0.00    +0.000 C 
ATOM     13  O   UNL     1       6.717  14.732  17.990  0.00  0.00    +0.000 OA
ATOM     14  C   UNL     1       9.982  13.473  18.636  0.00  0.00    +0.000 A 
ATOM     15  C   UNL     1      10.860  13.126  17.604  0.00  0.00    +0.000 A 
ATOM     16  C   UNL     1      11.861  12.189  17.832  0.00  0.00    +0.000 A 
ATOM     17  C   UNL     1      11.990  11.606  19.091  0.00  0.00    +0.000 A 
ATOM     18  C   UNL     1      11.110  11.948  20.125  0.00  0.00    +0.000 A 
ATOM     19  C   UNL     1      10.100  12.895  19.916  0.00  0.00    +0.000 A 
ENDROOT
TORSDOF 0
ENDMDL
MODEL 6
REMARK VINA RESULT:      -5.9      8.098     10.275
REMARK  Name = 
REMARK  3 active torsions:
REMARK  status: ('A' for Active; 'I' for Inactive)
REMARK    1  A    between atoms: C_1  and  C_2
REMARK    2  A    between atoms: C_8  and  C_9
REMARK    3  A    between atoms: C_11  and  C_12
REMARK                            x       y       z     vdW  Elec       q    Type
REMARK                         _______ _______ _______ _____ _____    ______ ____
ROOT
ATOM      1  C   UNL     1      -3.260  14.182  22.365  0.00  0.00    +0.000 C 
ATOM      2  C   UNL     1      -2.619  12.828  22.603  0.00  0.00    +0.000 C 
ATOM      3  O   UNL     1      -3.282  11.921  23.109  0.00  0.00    +0.000 OA
ATOM      4  N   UNL     1      -1.312  12.712  22.134  0.00  0.00    +0.000 N 
ATOM      5  C   UNL     1      -0.504  13.837  22.140  0.00  0.00    +0.000 C 
ATOM      6  O   UNL     1      -0.263  14.489  23.161  0.00  0.00    +0.000 OA
ATOM      7  C   UNL     1       0.058  14.267  20.803  0.00  0.00    +0.000 C 
ATOM      8  C   UNL     1       0.963  13.204  20.195  0.00  0.00    +0.000 C 
ATOM      9  C   UNL     1       1.762  13.766  19.015  0.00  0.00    +0.000 C 
ATOM     10  N   UNL     1       0.232  11.965  19.856  0.00  0.00    +0.000 N 
ATOM     11  C   UNL     1      -0.666  11.922  18.786  0.00  0.00    +0.000 C 
ATOM     12  C   UNL     1      -1.467  10.654  18.568  0.00  0.00    +0.000 C 
ATOM     13  O   UNL     1      -0.848  12.884  18.037  0.00  0.00    +0.000 OA
ATOM     14  C   UNL     1       0.096  11.076  20.952  0.00  0.00    +0.000 A 
ATOM     15  C   UNL     1       0.738   9.835  20.879  0.00  0.00    +0.000 A 
ATOM     16  C   UNL     1       0.628   8.935  21.933  0.00  0.00    +0.000 A 
ATOM     17  C   UNL     1      -0.115   9.277  23.061  0.00  0.00    +0.000 A 
ATOM     18  C   UNL     1      -0.762  10.517  23.135  0.00  0.00    +0.000 A 
ATOM     19  C   UNL     1      -0.657  11.439  22.087  0.00  0.00    +0.000 A 
ENDROOT
TORSDOF 0
ENDMDL
MODEL 7
REMARK VINA RESULT:      -5.9      1.589      4.889
REMARK  Name = 
REMARK  3 active torsions:
REMARK  status: ('A' for Active; 'I' for Inactive)
REMARK    1  A    between atoms: C_1  and  C_2
REMARK    2  A    between atoms: C_8  and  C_9
REMARK    3  A    between atoms: C_11  and  C_12
REMARK                            x       y       z     vdW  Elec       q    Type
REMARK                         _______ _______ _______ _____ _____    ______ ____
ROOT
ATOM      1  C   UNL     1       8.121   5.523  19.601  0.00  0.00    +0.000 C 
ATOM      2  C   UNL     1       7.924   4.997  18.192  0.00  0.00    +0.000 C 
ATOM      3  O   UNL     1       8.588   4.035  17.803  0.00  0.00    +0.000 OA
ATOM      4  N   UNL     1       6.912   5.629  17.471  0.00  0.00    +0.000 N 
ATOM      5  C   UNL     1       6.658   6.967  17.719  0.00  0.00    +0.000 C 
ATOM      6  O   UNL     1       7.519   7.847  17.614  0.00  0.00    +0.000 OA
ATOM      7  C   UNL     1       5.256   7.313  18.171  0.00  0.00    +0.000 C 
ATOM      8  C   UNL     1       4.214   6.961  17.118  0.00  0.00    +0.000 C 
ATOM      9  C   UNL     1       2.859   7.593  17.448  0.00  0.00    +0.000 C 
ATOM     10  N   UNL     1       4.126   5.506  16.873  0.00  0.00    +0.000 N 
ATOM     11  C   UNL     1       3.572   4.643  17.822  0.00  0.00    +0.000 C 
ATOM     12  C   UNL     1       3.620   3.152  17.555  0.00  0.00    +0.000 C 
ATOM     13  O   UNL     1       3.074   5.050  18.874  0.00  0.00    +0.000 OA
ATOM     14  C   UNL     1       5.081   5.036  15.936  0.00  0.00    +0.000 A 
ATOM     15  C   UNL     1       4.616   4.517  14.723  0.00  0.00    +0.000 A 
ATOM     16  C   UNL     1       5.521   4.045  13.780  0.00  0.00    +0.000 A 
ATOM     17  C   UNL     1       6.888   4.099  14.043  0.00  0.00    +0.000 A 
ATOM     18  C   UNL     1       7.357   4.614  15.258  0.00  0.00    +0.000 A 
ATOM     19  C   UNL     1       6.461   5.101  16.218  0.00  0.00    +0.000 A 
ENDROOT
TORSDOF 0
ENDMDL
MODEL 8
REMARK VINA RESULT:      -5.7      9.821     11.805
REMARK  Name = 
REMARK  3 active torsions:
REMARK  status: ('A' for Active; 'I' for Inactive)
REMARK    1  A    between atoms: C_1  and  C_2
REMARK    2  A    between atoms: C_8  and  C_9
REMARK    3  A    between atoms: C_11  and  C_12
REMARK                            x       y       z     vdW  Elec       q    Type
REMARK                         _______ _______ _______ _____ _____    ______ ____
ROOT
ATOM      1  C   UNL     1       8.524  14.758  22.875  0.00  0.00    +0.000 C 
ATOM      2  C   UNL     1       9.306  13.771  22.031  0.00  0.00    +0.000 C 
ATOM      3  O   UNL     1       9.274  12.571  22.311  0.00  0.00    +0.000 OA
ATOM      4  N   UNL     1       9.948  14.329  20.927  0.00  0.00    +0.000 N 
ATOM      5  C   UNL     1      10.408  15.632  21.016  0.00  0.00    +0.000 C 
ATOM      6  O   UNL     1      11.201  16.008  21.885  0.00  0.00    +0.000 OA
ATOM      7  C   UNL     1       9.856  16.610  20.003  0.00  0.00    +0.000 C 
ATOM      8  C   UNL     1      10.220  16.221  18.577  0.00  0.00    +0.000 C 
ATOM      9  C   UNL     1       9.933  17.365  17.600  0.00  0.00    +0.000 C 
ATOM     10  N   UNL     1       9.603  14.943  18.164  0.00  0.00    +0.000 N 
ATOM     11  C   UNL     1       8.230  14.846  17.922  0.00  0.00    +0.000 C 
ATOM     12  C   UNL     1       7.648  13.481  17.615  0.00  0.00    +0.000 C 
ATOM     13  O   UNL     1       7.479  15.822  17.976  0.00  0.00    +0.000 OA
ATOM     14  C   UNL     1      10.352  13.805  18.556  0.00  0.00    +0.000 A 
ATOM     15  C   UNL     1      10.910  13.004  17.554  0.00  0.00    +0.000 A 
ATOM     16  C   UNL     1      11.650  11.879  17.899  0.00  0.00    +0.000 A 
ATOM     17  C   UNL     1      11.839  11.559  19.242  0.00  0.00    +0.000 A 
ATOM     18  C   UNL     1      11.279  12.356  20.247  0.00  0.00    +0.000 A 
ATOM     19  C   UNL     1      10.536  13.498  19.920  0.00  0.00    +0.000 A 
ENDROOT
TORSDOF 0
ENDMDL
MODEL 9
REMARK VINA RESULT:      -5.7      8.189     10.144
REMARK  Name = 
REMARK  3 active torsions:
REMARK  status: ('A' for Active; 'I' for Inactive)
REMARK    1  A    between atoms: C_1  and  C_2
REMARK    2  A    between atoms: C_8  and  C_9
REMARK    3  A    between atoms: C_11  and  C_12
REMARK                            x       y       z     vdW  Elec       q    Type
REMARK                         _______ _______ _______ _____ _____    ______ ____
ROOT
ATOM      1  C   UNL     1      -1.815  15.238  22.107  0.00  0.00    +0.000 C 
ATOM      2  C   UNL     1      -1.676  13.758  22.409  0.00  0.00    +0.000 C 
ATOM      3  O   UNL     1      -2.527  13.194  23.099  0.00  0.00    +0.000 OA
ATOM      4  N   UNL     1      -0.596  13.136  21.786  0.00  0.00    +0.000 N 
ATOM      5  C   UNL     1       0.553  13.875  21.556  0.00  0.00    +0.000 C 
ATOM      6  O   UNL     1       1.178  14.445  22.456  0.00  0.00    +0.000 OA
ATOM      7  C   UNL     1       1.001  13.989  20.116  0.00  0.00    +0.000 C 
ATOM      8  C   UNL     1       1.347  12.633  19.516  0.00  0.00    +0.000 C 
ATOM      9  C   UNL     1       2.088  12.789  18.185  0.00  0.00    +0.000 C 
ATOM     10  N   UNL     1       0.173  11.741  19.420  0.00  0.00    +0.000 N 
ATOM     11  C   UNL     1      -0.844  11.979  18.492  0.00  0.00    +0.000 C 
ATOM     12  C   UNL     1      -2.073  11.092  18.527  0.00  0.00    +0.000 C 
ATOM     13  O   UNL     1      -0.788  12.896  17.670  0.00  0.00    +0.000 OA
ATOM     14  C   UNL     1      -0.091  11.029  20.618  0.00  0.00    +0.000 A 
ATOM     15  C   UNL     1       0.039   9.636  20.600  0.00  0.00    +0.000 A 
ATOM     16  C   UNL     1      -0.212   8.902  21.753  0.00  0.00    +0.000 A 
ATOM     17  C   UNL     1      -0.583   9.559  22.925  0.00  0.00    +0.000 A 
ATOM     18  C   UNL     1      -0.717  10.953  22.945  0.00  0.00    +0.000 A 
ATOM     19  C   UNL     1      -0.462  11.710  21.795  0.00  0.00    +0.000 A 
ENDROOT
TORSDOF 0
ENDMDL
