MODEL 1
REMARK VINA RESULT:      -7.0      0.000      0.000
REMARK  Name = 
REMARK  4 active torsions:
REMARK  status: ('A' for Active; 'I' for Inactive)
REMARK    1  A    between atoms: C_1  and  N_2
REMARK    2  A    between atoms: C_6  and  C_7
REMARK    3  A    between atoms: C_14  and  C_15
REMARK    4  A    between atoms: N_21  and  C_22
REMARK                            x       y       z     vdW  Elec       q    Type
REMARK                         _______ _______ _______ _____ _____    ______ ____
ROOT
ATOM      1  C   UNL     1       2.335  10.496  17.925  0.00  0.00    +0.000 C 
ATOM      2  N   UNL     1       2.177   9.260  18.673  0.00  0.00    +0.000 N 
ATOM      3  C   UNL     1       2.696   8.093  18.136  0.00  0.00    +0.000 A 
ATOM      4  O   UNL     1       3.064   8.002  16.970  0.00  0.00    +0.000 OA
ATOM      5  C   UNL     1       2.733   6.911  19.028  0.00  0.00    +0.000 A 
ATOM      6  C   UNL     1       3.613   5.795  18.865  0.00  0.00    +0.000 A 
ATOM      7  C   UNL     1       3.413   4.709  19.765  0.00  0.00    +0.000 A 
ATOM      8  C   UNL     1       2.376   4.759  20.698  0.00  0.00    +0.000 A 
ATOM      9  N   UNL     1       2.125   3.736  21.608  0.00  0.00    +0.000 N 
ATOM     10  N   UNL     1       1.598   5.839  20.852  0.00  0.00    +0.000 NA
ATOM     11  C   UNL     1       1.788   6.912  20.053  0.00  0.00    +0.000 A 
ATOM     12  N   UNL     1       1.009   8.059  20.314  0.00  0.00    +0.000 N 
ATOM     13  C   UNL     1       0.004   8.030  21.362  0.00  0.00    +0.000 C 
ATOM     14  C   UNL     1       1.220   9.260  19.672  0.00  0.00    +0.000 A 
ATOM     15  O   UNL     1       0.566  10.270  19.946  0.00  0.00    +0.000 OA
ATOM     16  H   UNL     1       2.084   2.805  21.204  0.00  0.00    +0.000 HD
ATOM     17  H   UNL     1       1.289   3.959  22.143  0.00  0.00    +0.000 HD
ENDROOT
BRANCH   6  18
ATOM     18  C   UNL     1       4.731   5.761  17.864  0.00  0.00    +0.000 A 
ATOM     19  C   UNL     1       5.968   6.398  18.104  0.00  0.00    +0.000 A 
ATOM     20  C   UNL     1       6.989   6.435  17.146  0.00  0.00    +0.000 A 
ATOM     21  C   UNL     1       6.840   5.750  15.946  0.00  0.00    +0.000 A 
ATOM     22  C   UNL     1       5.655   5.068  15.703  0.00  0.00    +0.000 A 
ATOM     23 BR   UNL     1       5.483   4.032  14.129  0.00  0.00    +0.000 Br
ATOM     24  C   UNL     1       4.598   5.115  16.619  0.00  0.00    +0.000 A 
ENDBRANCH   6  18
BRANCH   7  25
ATOM     25  C   UNL     1       4.239   3.534  19.774  0.00  0.00    +0.000 C 
ATOM     26  N   UNL     1       4.858   2.553  19.825  0.00  0.00    +0.000 NA
ENDBRANCH   7  25
TORSDOF 2
ENDMDL
MODEL 2
REMARK VINA RESULT:      -6.6      1.199      1.545
REMARK  Name = 
REMARK  4 active torsions:
REMARK  status: ('A' for Active; 'I' for Inactive)
REMARK    1  A    between atoms: C_1  and  N_2
REMARK    2  A    between atoms: C_6  and  C_7
REMARK    3  A    between atoms: C_14  and  C_15
REMARK    4  A    between atoms: N_21  and  C_22
REMARK                            x       y       z     vdW  Elec       q    Type
REMARK                         _______ _______ _______ _____ _____    ______ ____
ROOT
ATOM      1  C   UNL     1       1.975  10.616  18.221  0.00  0.00    +0.000 C 
ATOM      2  N   UNL     1       1.853   9.357  18.936  0.00  0.00    +0.000 N 
ATOM      3  C   UNL     1       2.368   8.212  18.350  0.00  0.00    +0.000 A 
ATOM      4  O   UNL     1       2.702   8.159  17.171  0.00  0.00    +0.000 OA
ATOM      5  C   UNL     1       2.445   7.005  19.205  0.00  0.00    +0.000 A 
ATOM      6  C   UNL     1       3.331   5.904  18.983  0.00  0.00    +0.000 A 
ATOM      7  C   UNL     1       3.170   4.791  19.857  0.00  0.00    +0.000 A 
ATOM      8  C   UNL     1       2.160   4.801  20.822  0.00  0.00    +0.000 A 
ATOM      9  N   UNL     1       1.948   3.750  21.708  0.00  0.00    +0.000 N 
ATOM     10  N   UNL     1       1.377   5.867  21.030  0.00  0.00    +0.000 NA
ATOM     11  C   UNL     1       1.531   6.966  20.258  0.00  0.00    +0.000 A 
ATOM     12  N   UNL     1       0.748   8.095  20.575  0.00  0.00    +0.000 N 
ATOM     13  C   UNL     1      -0.225   8.025  21.651  0.00  0.00    +0.000 C 
ATOM     14  C   UNL     1       0.927   9.317  19.963  0.00  0.00    +0.000 A 
ATOM     15  O   UNL     1       0.271  10.311  20.286  0.00  0.00    +0.000 OA
ATOM     16  H   UNL     1       1.905   2.830  21.278  0.00  0.00    +0.000 HD
ATOM     17  H   UNL     1       1.126   3.948  22.274  0.00  0.00    +0.000 HD
ENDROOT
BRANCH   6  18
ATOM     18  C   UNL     1       4.419   5.912  17.949  0.00  0.00    +0.000 A 
ATOM     19  C   UNL     1       4.332   5.145  16.767  0.00  0.00    +0.000 A 
ATOM     20  C   UNL     1       5.374   5.089  15.834  0.00  0.00    +0.000 A 
ATOM     21  C   UNL     1       6.504   5.877  16.007  0.00  0.00    +0.000 A 
ATOM     22  C   UNL     1       6.596   6.685  17.132  0.00  0.00    +0.000 A 
ATOM     23 BR   UNL     1       8.072   7.855  17.322  0.00  0.00    +0.000 Br
ATOM     24  C   UNL     1       5.598   6.665  18.114  0.00  0.00    +0.000 A 
ENDBRANCH   6  18
BRANCH   7  25
ATOM     25  C   UNL     1       4.008   3.625  19.807  0.00  0.00    +0.000 C 
ATOM     26  N   UNL     1       4.696   2.690  19.837  0.00  0.00    +0.000 NA
ENDBRANCH   7  25
TORSDOF 2
ENDMDL
MODEL 3
REMARK VINA RESULT:      -6.2      6.702      9.090
REMARK  Name = 
REMARK  4 active torsions:
REMARK  status: ('A' for Active; 'I' for Inactive)
REMARK    1  A    between atoms: C_1  and  N_2
REMARK    2  A    between atoms: C_6  and  C_7
REMARK    3  A    between atoms: C_14  and  C_15
REMARK    4  A    between atoms: N_21  and  C_22
REMARK                            x       y       z     vdW  Elec       q    Type
REMARK                         _______ _______ _______ _____ _____    ______ ____
ROOT
ATOM      1  C   UNL     1      -3.001  12.870  23.799  0.00  0.00    +0.000 C 
ATOM      2  N   UNL     1      -3.624  12.716  22.496  0.00  0.00    +0.000 N 
ATOM      3  C   UNL     1      -2.815  12.726  21.371  0.00  0.00    +0.000 A 
ATOM      4  O   UNL     1      -1.645  13.093  21.395  0.00  0.00    +0.000 OA
ATOM      5  C   UNL     1      -3.447  12.324  20.093  0.00  0.00    +0.000 A 
ATOM      6  C   UNL     1      -2.740  11.822  18.956  0.00  0.00    +0.000 A 
ATOM      7  C   UNL     1      -3.522  11.599  17.786  0.00  0.00    +0.000 A 
ATOM      8  C   UNL     1      -4.882  11.915  17.785  0.00  0.00    +0.000 A 
ATOM      9  N   UNL     1      -5.705  11.721  16.680  0.00  0.00    +0.000 N 
ATOM     10  N   UNL     1      -5.521  12.343  18.882  0.00  0.00    +0.000 NA
ATOM     11  C   UNL     1      -4.827  12.518  20.029  0.00  0.00    +0.000 A 
ATOM     12  N   UNL     1      -5.559  12.879  21.179  0.00  0.00    +0.000 N 
ATOM     13  C   UNL     1      -6.989  13.113  21.086  0.00  0.00    +0.000 C 
ATOM     14  C   UNL     1      -4.989  12.935  22.433  0.00  0.00    +0.000 A 
ATOM     15  O   UNL     1      -5.652  13.202  23.439  0.00  0.00    +0.000 OA
ATOM     16  H   UNL     1      -5.339  12.087  15.805  0.00  0.00    +0.000 HD
ATOM     17  H   UNL     1      -6.634  12.078  16.886  0.00  0.00    +0.000 HD
ENDROOT
BRANCH   6  18
ATOM     18  C   UNL     1      -1.279  11.476  18.976  0.00  0.00    +0.000 A 
ATOM     19  C   UNL     1      -0.822  10.187  19.327  0.00  0.00    +0.000 A 
ATOM     20  C   UNL     1       0.541   9.878  19.419  0.00  0.00    +0.000 A 
ATOM     21  C   UNL     1       1.494  10.827  19.071  0.00  0.00    +0.000 A 
ATOM     22  C   UNL     1       1.074  12.088  18.670  0.00  0.00    +0.000 A 
ATOM     23 BR   UNL     1       2.352  13.351  18.077  0.00  0.00    +0.000 Br
ATOM     24  C   UNL     1      -0.285  12.427  18.672  0.00  0.00    +0.000 A 
ENDBRANCH   6  18
BRANCH   7  25
ATOM     25  C   UNL     1      -2.982  11.050  16.573  0.00  0.00    +0.000 C 
ATOM     26  N   UNL     1      -2.612  10.583  15.577  0.00  0.00    +0.000 NA
ENDBRANCH   7  25
TORSDOF 2
ENDMDL
MODEL 4
REMARK VINA RESULT:      -6.2      6.762      9.143
REMARK  Name = 
REMARK  4 active torsions:
REMARK  status: ('A' for Active; 'I' for Inactive)
REMARK    1  A    between atoms: C_1  and  N_2
REMARK    2  A    between atoms: C_6  and  C_7
REMARK    3  A    between atoms: C_14  and  C_15
REMARK    4  A    between atoms: N_21  and  C_22
REMARK                            x       y       z     vdW  Elec       q    Type
REMARK                         _______ _______ _______ _____ _____    ______ ____
ROOT
ATOM      1  C   UNL     1      -3.154  13.228  23.864  0.00  0.00    +0.000 C 
ATOM      2  N   UNL     1      -3.766  12.979  22.570  0.00  0.00    +0.000 N 
ATOM      3  C   UNL     1      -2.954  12.970  21.446  0.00  0.00    +0.000 A 
ATOM      4  O   UNL     1      -1.803  13.392  21.453  0.00  0.00    +0.000 OA
ATOM      5  C   UNL     1      -3.564  12.474  20.190  0.00  0.00    +0.000 A 
ATOM      6  C   UNL     1      -2.830  11.949  19.081  0.00  0.00    +0.000 A 
ATOM      7  C   UNL     1      -3.597  11.631  17.923  0.00  0.00    +0.000 A 
ATOM      8  C   UNL     1      -4.971  11.882  17.906  0.00  0.00    +0.000 A 
ATOM      9  N   UNL     1      -5.780  11.594  16.811  0.00  0.00    +0.000 N 
ATOM     10  N   UNL     1      -5.632  12.334  18.979  0.00  0.00    +0.000 NA
ATOM     11  C   UNL     1      -4.951  12.600  20.116  0.00  0.00    +0.000 A 
ATOM     12  N   UNL     1      -5.702  12.984  21.246  0.00  0.00    +0.000 N 
ATOM     13  C   UNL     1      -7.141  13.146  21.140  0.00  0.00    +0.000 C 
ATOM     14  C   UNL     1      -5.139  13.129  22.495  0.00  0.00    +0.000 A 
ATOM     15  O   UNL     1      -5.816  13.416  23.487  0.00  0.00    +0.000 OA
ATOM     16  H   UNL     1      -5.430  11.933  15.919  0.00  0.00    +0.000 HD
ATOM     17  H   UNL     1      -6.726  11.917  16.999  0.00  0.00    +0.000 HD
ENDROOT
BRANCH   6  18
ATOM     18  C   UNL     1      -1.355  11.674  19.119  0.00  0.00    +0.000 A 
ATOM     19  C   UNL     1      -0.411  12.588  18.602  0.00  0.00    +0.000 A 
ATOM     20  C   UNL     1       0.960  12.306  18.567  0.00  0.00    +0.000 A 
ATOM     21  C   UNL     1       1.443  11.135  19.135  0.00  0.00    +0.000 A 
ATOM     22  C   UNL     1       0.545  10.239  19.700  0.00  0.00    +0.000 A 
ATOM     23 BR   UNL     1       1.196   8.699  20.584  0.00  0.00    +0.000 Br
ATOM     24  C   UNL     1      -0.834  10.476  19.647  0.00  0.00    +0.000 A 
ENDBRANCH   6  18
BRANCH   7  25
ATOM     25  C   UNL     1      -3.029  11.047  16.740  0.00  0.00    +0.000 C 
ATOM     26  N   UNL     1      -2.623  10.607  15.745  0.00  0.00    +0.000 NA
ENDBRANCH   7  25
TORSDOF 2
ENDMDL
MODEL 5
REMARK VINA RESULT:      -5.8      8.542     10.070
REMARK  Name = 
REMARK  4 active torsions:
REMARK  status: ('A' for Active; 'I' for Inactive)
REMARK    1  A    between atoms: C_1  and  N_2
REMARK    2  A    between atoms: C_6  and  C_7
REMARK    3  A    between atoms: C_14  and  C_15
REMARK    4  A    between atoms: N_21  and  C_22
REMARK                            x       y       z     vdW  Elec       q    Type
REMARK                         _______ _______ _______ _____ _____    ______ ____
ROOT
ATOM      1  C   UNL     1      -4.804  11.858  17.053  0.00  0.00    +0.000 C 
ATOM      2  N   UNL     1      -4.844  12.073  18.489  0.00  0.00    +0.000 N 
ATOM      3  C   UNL     1      -3.646  12.115  19.185  0.00  0.00    +0.000 A 
ATOM      4  O   UNL     1      -2.581  11.746  18.701  0.00  0.00    +0.000 OA
ATOM      5  C   UNL     1      -3.709  12.577  20.591  0.00  0.00    +0.000 A 
ATOM      6  C   UNL     1      -2.609  13.131  21.317  0.00  0.00    +0.000 A 
ATOM      7  C   UNL     1      -2.850  13.409  22.693  0.00  0.00    +0.000 A 
ATOM      8  C   UNL     1      -4.085  13.094  23.263  0.00  0.00    +0.000 A 
ATOM      9  N   UNL     1      -4.389  13.341  24.599  0.00  0.00    +0.000 N 
ATOM     10  N   UNL     1      -5.108  12.617  22.542  0.00  0.00    +0.000 NA
ATOM     11  C   UNL     1      -4.939  12.387  21.221  0.00  0.00    +0.000 A 
ATOM     12  N   UNL     1      -6.069  11.973  20.486  0.00  0.00    +0.000 N 
ATOM     13  C   UNL     1      -7.333  11.745  21.165  0.00  0.00    +0.000 C 
ATOM     14  C   UNL     1      -6.060  11.859  19.113  0.00  0.00    +0.000 A 
ATOM     15  O   UNL     1      -7.071  11.546  18.477  0.00  0.00    +0.000 OA
ATOM     16  H   UNL     1      -3.692  13.015  25.262  0.00  0.00    +0.000 HD
ATOM     17  H   UNL     1      -5.315  12.976  24.805  0.00  0.00    +0.000 HD
ENDROOT
BRANCH   6  18
ATOM     18  C   UNL     1      -1.290  13.474  20.688  0.00  0.00    +0.000 A 
ATOM     19  C   UNL     1      -0.194  12.584  20.718  0.00  0.00    +0.000 A 
ATOM     20  C   UNL     1       1.061  12.926  20.199  0.00  0.00    +0.000 A 
ATOM     21  C   UNL     1       1.235  14.140  19.546  0.00  0.00    +0.000 A 
ATOM     22  C   UNL     1       0.160  15.014  19.451  0.00  0.00    +0.000 A 
ATOM     23 BR   UNL     1       0.346  16.615  18.460  0.00  0.00    +0.000 Br
ATOM     24  C   UNL     1      -1.066  14.713  20.057  0.00  0.00    +0.000 A 
ENDBRANCH   6  18
BRANCH   7  25
ATOM     25  C   UNL     1      -1.872  14.013  23.556  0.00  0.00    +0.000 C 
ATOM     26  N   UNL     1      -1.102  14.565  24.226  0.00  0.00    +0.000 NA
ENDBRANCH   7  25
TORSDOF 2
ENDMDL
MODEL 6
REMARK VINA RESULT:      -5.6      7.423      9.514
REMARK  Name = 
REMARK  4 active torsions:
REMARK  status: ('A' for Active; 'I' for Inactive)
REMARK    1  A    between atoms: C_1  and  N_2
REMARK    2  A    between atoms: C_6  and  C_7
REMARK    3  A    between atoms: C_14  and  C_15
REMARK    4  A    between atoms: N_21  and  C_22
REMARK                            x       y       z     vdW  Elec       q    Type
REMARK                         _______ _______ _______ _____ _____    ______ ____
ROOT
ATOM      1  C   UNL     1      -5.744  12.198  16.896  0.00  0.00    +0.000 C 
ATOM      2  N   UNL     1      -5.522  12.330  18.326  0.00  0.00    +0.000 N 
ATOM      3  C   UNL     1      -4.262  12.047  18.828  0.00  0.00    +0.000 A 
ATOM      4  O   UNL     1      -3.400  11.467  18.175  0.00  0.00    +0.000 OA
ATOM      5  C   UNL     1      -4.007  12.425  20.237  0.00  0.00    +0.000 A 
ATOM      6  C   UNL     1      -2.712  12.659  20.797  0.00  0.00    +0.000 A 
ATOM      7  C   UNL     1      -2.676  12.902  22.200  0.00  0.00    +0.000 A 
ATOM      8  C   UNL     1      -3.855  12.854  22.947  0.00  0.00    +0.000 A 
ATOM      9  N   UNL     1      -3.893  13.084  24.319  0.00  0.00    +0.000 N 
ATOM     10  N   UNL     1      -5.056  12.675  22.382  0.00  0.00    +0.000 NA
ATOM     11  C   UNL     1      -5.142  12.493  21.046  0.00  0.00    +0.000 A 
ATOM     12  N   UNL     1      -6.433  12.402  20.486  0.00  0.00    +0.000 N 
ATOM     13  C   UNL     1      -7.602  12.438  21.347  0.00  0.00    +0.000 C 
ATOM     14  C   UNL     1      -6.650  12.372  19.126  0.00  0.00    +0.000 A 
ATOM     15  O   UNL     1      -7.788  12.345  18.647  0.00  0.00    +0.000 OA
ATOM     16  H   UNL     1      -3.206  12.564  24.858  0.00  0.00    +0.000 HD
ATOM     17  H   UNL     1      -4.840  12.936  24.658  0.00  0.00    +0.000 HD
ENDROOT
BRANCH   6  18
ATOM     18  C   UNL     1      -1.455  12.719  19.979  0.00  0.00    +0.000 A 
ATOM     19  C   UNL     1      -0.930  13.940  19.504  0.00  0.00    +0.000 A 
ATOM     20  C   UNL     1       0.200  13.998  18.679  0.00  0.00    +0.000 A 
ATOM     21  C   UNL     1       0.900  12.837  18.377  0.00  0.00    +0.000 A 
ATOM     22  C   UNL     1       0.439  11.624  18.875  0.00  0.00    +0.000 A 
ATOM     23 BR   UNL     1       1.447  10.051  18.575  0.00  0.00    +0.000 Br
ATOM     24  C   UNL     1      -0.745  11.556  19.617  0.00  0.00    +0.000 A 
ENDBRANCH   6  18
BRANCH   7  25
ATOM     25  C   UNL     1      -1.467  13.206  22.914  0.00  0.00    +0.000 C 
ATOM     26  N   UNL     1      -0.517  13.417  23.548  0.00  0.00    +0.000 NA
ENDBRANCH   7  25
TORSDOF 2
ENDMDL
MODEL 7
REMARK VINA RESULT:      -5.6      6.991      9.858
REMARK  Name = 
REMARK  4 active torsions:
REMARK  status: ('A' for Active; 'I' for Inactive)
REMARK    1  A    between atoms: C_1  and  N_2
REMARK    2  A    between atoms: C_6  and  C_7
REMARK    3  A    between atoms: C_14  and  C_15
REMARK    4  A    between atoms: N_21  and  C_22
REMARK                            x       y       z     vdW  Elec       q    Type
REMARK                         _______ _______ _______ _____ _____    ______ ____
ROOT
ATOM      1  C   UNL     1      -0.438  18.346  20.443  0.00  0.00    +0.000 C 
ATOM      2  N   UNL     1       0.244  17.202  19.862  0.00  0.00    +0.000 N 
ATOM      3  C   UNL     1       0.148  15.979  20.507  0.00  0.00    +0.000 A 
ATOM      4  O   UNL     1      -0.275  15.860  21.652  0.00  0.00    +0.000 OA
ATOM      5  C   UNL     1       0.644  14.796  19.765  0.00  0.00    +0.000 A 
ATOM      6  C   UNL     1       0.233  13.449  20.012  0.00  0.00    +0.000 A 
ATOM      7  C   UNL     1       0.913  12.445  19.263  0.00  0.00    +0.000 A 
ATOM      8  C   UNL     1       1.944  12.802  18.392  0.00  0.00    +0.000 A 
ATOM      9  N   UNL     1       2.648  11.875  17.630  0.00  0.00    +0.000 N 
ATOM     10  N   UNL     1       2.273  14.079  18.153  0.00  0.00    +0.000 NA
ATOM     11  C   UNL     1       1.617  15.066  18.803  0.00  0.00    +0.000 A 
ATOM     12  N   UNL     1       1.933  16.394  18.450  0.00  0.00    +0.000 N 
ATOM     13  C   UNL     1       2.976  16.657  17.473  0.00  0.00    +0.000 C 
ATOM     14  C   UNL     1       1.226  17.476  18.927  0.00  0.00    +0.000 A 
ATOM     15  O   UNL     1       1.480  18.631  18.570  0.00  0.00    +0.000 OA
ATOM     16  H   UNL     1       2.994  11.071  18.147  0.00  0.00    +0.000 HD
ATOM     17  H   UNL     1       3.389  12.352  17.122  0.00  0.00    +0.000 HD
ENDROOT
BRANCH   6  18
ATOM     18  C   UNL     1      -0.886  13.081  20.943  0.00  0.00    +0.000 A 
ATOM     19  C   UNL     1      -0.645  12.647  22.265  0.00  0.00    +0.000 A 
ATOM     20  C   UNL     1      -1.678  12.232  23.114  0.00  0.00    +0.000 A 
ATOM     21  C   UNL     1      -3.000  12.327  22.699  0.00  0.00    +0.000 A 
ATOM     22  C   UNL     1      -3.272  12.802  21.423  0.00  0.00    +0.000 A 
ATOM     23 BR   UNL     1      -5.069  13.052  20.886  0.00  0.00    +0.000 Br
ATOM     24  C   UNL     1      -2.235  13.123  20.539  0.00  0.00    +0.000 A 
ENDBRANCH   6  18
BRANCH   7  25
ATOM     25  C   UNL     1       0.591  11.047  19.350  0.00  0.00    +0.000 C 
ATOM     26  N   UNL     1       0.402   9.905  19.427  0.00  0.00    +0.000 NA
ENDBRANCH   7  25
TORSDOF 2
ENDMDL
MODEL 8
REMARK VINA RESULT:      -5.6      6.549      8.984
REMARK  Name = 
REMARK  4 active torsions:
REMARK  status: ('A' for Active; 'I' for Inactive)
REMARK    1  A    between atoms: C_1  and  N_2
REMARK    2  A    between atoms: C_6  and  C_7
REMARK    3  A    between atoms: C_14  and  C_15
REMARK    4  A    between atoms: N_21  and  C_22
REMARK                            x       y       z     vdW  Elec       q    Type
REMARK                         _______ _______ _______ _____ _____    ______ ____
ROOT
ATOM      1  C   UNL     1      -4.421  11.181  16.062  0.00  0.00    +0.000 C 
ATOM      2  N   UNL     1      -4.461  11.764  17.392  0.00  0.00    +0.000 N 
ATOM      3  C   UNL     1      -3.508  11.369  18.317  0.00  0.00    +0.000 A 
ATOM      4  O   UNL     1      -2.788  10.390  18.154  0.00  0.00    +0.000 OA
ATOM      5  C   UNL     1      -3.429  12.157  19.569  0.00  0.00    +0.000 A 
ATOM      6  C   UNL     1      -2.275  12.237  20.410  0.00  0.00    +0.000 A 
ATOM      7  C   UNL     1      -2.442  12.959  21.626  0.00  0.00    +0.000 A 
ATOM      8  C   UNL     1      -3.690  13.494  21.955  0.00  0.00    +0.000 A 
ATOM      9  N   UNL     1      -3.923  14.211  23.125  0.00  0.00    +0.000 N 
ATOM     10  N   UNL     1      -4.737  13.438  21.123  0.00  0.00    +0.000 NA
ATOM     11  C   UNL     1      -4.608  12.807  19.934  0.00  0.00    +0.000 A 
ATOM     12  N   UNL     1      -5.708  12.854  19.053  0.00  0.00    +0.000 N 
ATOM     13  C   UNL     1      -6.940  13.504  19.465  0.00  0.00    +0.000 C 
ATOM     14  C   UNL     1      -5.642  12.386  17.759  0.00  0.00    +0.000 A 
ATOM     15  O   UNL     1      -6.596  12.480  16.981  0.00  0.00    +0.000 OA
ATOM     16  H   UNL     1      -3.584  13.767  23.973  0.00  0.00    +0.000 HD
ATOM     17  H   UNL     1      -4.910  14.448  23.182  0.00  0.00    +0.000 HD
ENDROOT
BRANCH   6  18
ATOM     18  C   UNL     1      -0.938  11.666  20.038  0.00  0.00    +0.000 A 
ATOM     19  C   UNL     1      -0.043  12.353  19.189  0.00  0.00    +0.000 A 
ATOM     20  C   UNL     1       1.174  11.795  18.778  0.00  0.00    +0.000 A 
ATOM     21  C   UNL     1       1.579  10.566  19.280  0.00  0.00    +0.000 A 
ATOM     22  C   UNL     1       0.745   9.889  20.160  0.00  0.00    +0.000 A 
ATOM     23 BR   UNL     1       1.334   8.273  20.947  0.00  0.00    +0.000 Br
ATOM     24  C   UNL     1      -0.515  10.402  20.493  0.00  0.00    +0.000 A 
ENDBRANCH   6  18
BRANCH   7  25
ATOM     25  C   UNL     1      -1.374  13.180  22.562  0.00  0.00    +0.000 C 
ATOM     26  N   UNL     1      -0.561  13.367  23.369  0.00  0.00    +0.000 NA
ENDBRANCH   7  25
TORSDOF 2
ENDMDL
MODEL 9
REMARK VINA RESULT:      -5.6      7.329      9.718
REMARK  Name = 
REMARK  4 active torsions:
REMARK  status: ('A' for Active; 'I' for Inactive)
REMARK    1  A    between atoms: C_1  and  N_2
REMARK    2  A    between atoms: C_6  and  C_7
REMARK    3  A    between atoms: C_14  and  C_15
REMARK    4  A    between atoms: N_21  and  C_22
REMARK                            x       y       z     vdW  Elec       q    Type
REMARK                         _______ _______ _______ _____ _____    ______ ____
ROOT
ATOM      1  C   UNL     1      -4.507  14.098  23.857  0.00  0.00    +0.000 C 
ATOM      2  N   UNL     1      -4.805  13.628  22.515  0.00  0.00    +0.000 N 
ATOM      3  C   UNL     1      -3.765  13.523  21.605  0.00  0.00    +0.000 A 
ATOM      4  O   UNL     1      -2.663  14.025  21.793  0.00  0.00    +0.000 OA
ATOM      5  C   UNL     1      -4.060  12.815  20.338  0.00  0.00    +0.000 A 
ATOM      6  C   UNL     1      -3.077  12.196  19.503  0.00  0.00    +0.000 A 
ATOM      7  C   UNL     1      -3.555  11.665  18.270  0.00  0.00    +0.000 A 
ATOM      8  C   UNL     1      -4.900  11.810  17.922  0.00  0.00    +0.000 A 
ATOM      9  N   UNL     1      -5.433  11.314  16.736  0.00  0.00    +0.000 N 
ATOM     10  N   UNL     1      -5.801  12.357  18.749  0.00  0.00    +0.000 NA
ATOM     11  C   UNL     1      -5.400  12.827  19.951  0.00  0.00    +0.000 A 
ATOM     12  N   UNL     1      -6.398  13.307  20.824  0.00  0.00    +0.000 N 
ATOM     13  C   UNL     1      -7.784  13.346  20.390  0.00  0.00    +0.000 C 
ATOM     14  C   UNL     1      -6.133  13.665  22.128  0.00  0.00    +0.000 A 
ATOM     15  O   UNL     1      -7.025  14.036  22.897  0.00  0.00    +0.000 OA
ATOM     16  H   UNL     1      -4.908  11.551  15.900  0.00  0.00    +0.000 HD
ATOM     17  H   UNL     1      -6.410  11.589  16.667  0.00  0.00    +0.000 HD
ENDROOT
BRANCH   6  18
ATOM     18  C   UNL     1      -1.637  12.038  19.896  0.00  0.00    +0.000 A 
ATOM     19  C   UNL     1      -0.639  12.933  19.451  0.00  0.00    +0.000 A 
ATOM     20  C   UNL     1       0.716  12.750  19.753  0.00  0.00    +0.000 A 
ATOM     21  C   UNL     1       1.108  11.714  20.591  0.00  0.00    +0.000 A 
ATOM     22  C   UNL     1       0.142  10.848  21.088  0.00  0.00    +0.000 A 
ATOM     23 BR   UNL     1       0.642   9.507  22.326  0.00  0.00    +0.000 Br
ATOM     24  C   UNL     1      -1.199  10.973  20.707  0.00  0.00    +0.000 A 
ENDBRANCH   6  18
BRANCH   7  25
ATOM     25  C   UNL     1      -2.715  10.967  17.337  0.00  0.00    +0.000 C 
ATOM     26  N   UNL     1      -1.992  10.459  16.584  0.00  0.00    +0.000 NA
ENDBRANCH   7  25
TORSDOF 2
ENDMDL
