MODEL 1
REMARK VINA RESULT:      -5.6      0.000      0.000
REMARK  Name = 
REMARK  2 active torsions:
REMARK  status: ('A' for Active; 'I' for Inactive)
REMARK    1  A    between atoms: C_5  and  C_6
REMARK    2  A    between atoms: C_6  and  N_7
REMARK                            x       y       z     vdW  Elec       q    Type
REMARK                         _______ _______ _______ _____ _____    ______ ____
ROOT
ATOM      1  C   UNL     1       6.710   4.391  16.107  0.00  0.00    +0.000 A 
ATOM      2  C   UNL     1       7.517   4.565  17.219  0.00  0.00    +0.000 A 
ATOM      3  N   UNL     1       7.046   4.647  18.480  0.00  0.00    +0.000 NA
ATOM      4  C   UNL     1       5.705   4.533  18.637  0.00  0.00    +0.000 A 
ATOM      5  C   UNL     1       4.802   4.341  17.596  0.00  0.00    +0.000 A 
ATOM      6  C   UNL     1       5.336   4.280  16.301  0.00  0.00    +0.000 A 
ENDROOT
BRANCH   5   7
ATOM      7  C   UNL     1       3.334   4.124  17.859  0.00  0.00    +0.000 C 
BRANCH   7   8
ATOM      8  N   UNL     1       2.930   3.362  19.042  0.00  0.00    +0.000 NA
ATOM      9  C   UNL     1       2.118   2.176  18.797  0.00  0.00    +0.000 C 
ATOM     10  C   UNL     1       0.693   2.595  19.102  0.00  0.00    +0.000 C 
ATOM     11  C   UNL     1       0.843   3.632  20.199  0.00  0.00    +0.000 C 
ATOM     12  C   UNL     1       2.279   4.130  20.101  0.00  0.00    +0.000 C 
ENDBRANCH   7   8
ENDBRANCH   5   7
TORSDOF 2
ENDMDL
MODEL 2
REMARK VINA RESULT:      -5.5      1.451      1.844
REMARK  Name = 
REMARK  2 active torsions:
REMARK  status: ('A' for Active; 'I' for Inactive)
REMARK    1  A    between atoms: C_5  and  C_6
REMARK    2  A    between atoms: C_6  and  N_7
REMARK                            x       y       z     vdW  Elec       q    Type
REMARK                         _______ _______ _______ _____ _____    ______ ____
ROOT
ATOM      1  C   UNL     1       5.491   4.472  15.404  0.00  0.00    +0.000 A 
ATOM      2  C   UNL     1       6.873   4.555  15.441  0.00  0.00    +0.000 A 
ATOM      3  N   UNL     1       7.585   4.663  16.582  0.00  0.00    +0.000 NA
ATOM      4  C   UNL     1       6.882   4.671  17.740  0.00  0.00    +0.000 A 
ATOM      5  C   UNL     1       5.496   4.577  17.822  0.00  0.00    +0.000 A 
ATOM      6  C   UNL     1       4.797   4.485  16.611  0.00  0.00    +0.000 A 
ENDROOT
BRANCH   5   7
ATOM      7  C   UNL     1       4.791   4.494  19.151  0.00  0.00    +0.000 C 
BRANCH   7   8
ATOM      8  N   UNL     1       3.510   3.789  19.232  0.00  0.00    +0.000 NA
ATOM      9  C   UNL     1       2.347   4.605  19.563  0.00  0.00    +0.000 C 
ATOM     10  C   UNL     1       2.092   4.361  21.037  0.00  0.00    +0.000 C 
ATOM     11  C   UNL     1       2.544   2.930  21.256  0.00  0.00    +0.000 C 
ATOM     12  C   UNL     1       3.484   2.614  20.100  0.00  0.00    +0.000 C 
ENDBRANCH   7   8
ENDBRANCH   5   7
TORSDOF 2
ENDMDL
MODEL 3
REMARK VINA RESULT:      -5.5      1.476      2.067
REMARK  Name = 
REMARK  2 active torsions:
REMARK  status: ('A' for Active; 'I' for Inactive)
REMARK    1  A    between atoms: C_5  and  C_6
REMARK    2  A    between atoms: C_6  and  N_7
REMARK                            x       y       z     vdW  Elec       q    Type
REMARK                         _______ _______ _______ _____ _____    ______ ____
ROOT
ATOM      1  C   UNL     1       6.117   4.091  14.316  0.00  0.00    +0.000 A 
ATOM      2  C   UNL     1       7.152   4.960  14.617  0.00  0.00    +0.000 A 
ATOM      3  N   UNL     1       7.278   5.593  15.802  0.00  0.00    +0.000 NA
ATOM      4  C   UNL     1       6.332   5.328  16.736  0.00  0.00    +0.000 A 
ATOM      5  C   UNL     1       5.260   4.462  16.549  0.00  0.00    +0.000 A 
ATOM      6  C   UNL     1       5.160   3.842  15.296  0.00  0.00    +0.000 A 
ENDROOT
BRANCH   5   7
ATOM      7  C   UNL     1       4.303   4.143  17.669  0.00  0.00    +0.000 C 
BRANCH   7   8
ATOM      8  N   UNL     1       2.987   3.592  17.342  0.00  0.00    +0.000 NA
ATOM      9  C   UNL     1       1.837   4.400  17.734  0.00  0.00    +0.000 C 
ATOM     10  C   UNL     1       1.317   3.766  19.009  0.00  0.00    +0.000 C 
ATOM     11  C   UNL     1       1.635   2.292  18.843  0.00  0.00    +0.000 C 
ATOM     12  C   UNL     1       2.738   2.225  17.795  0.00  0.00    +0.000 C 
ENDBRANCH   7   8
ENDBRANCH   5   7
TORSDOF 2
ENDMDL
MODEL 4
REMARK VINA RESULT:      -5.5      1.215      1.832
REMARK  Name = 
REMARK  2 active torsions:
REMARK  status: ('A' for Active; 'I' for Inactive)
REMARK    1  A    between atoms: C_5  and  C_6
REMARK    2  A    between atoms: C_6  and  N_7
REMARK                            x       y       z     vdW  Elec       q    Type
REMARK                         _______ _______ _______ _____ _____    ______ ____
ROOT
ATOM      1  C   UNL     1       5.690   4.637  15.311  0.00  0.00    +0.000 A 
ATOM      2  C   UNL     1       7.044   4.650  15.598  0.00  0.00    +0.000 A 
ATOM      3  N   UNL     1       7.543   4.644  16.852  0.00  0.00    +0.000 NA
ATOM      4  C   UNL     1       6.644   4.606  17.865  0.00  0.00    +0.000 A 
ATOM      5  C   UNL     1       5.263   4.575  17.693  0.00  0.00    +0.000 A 
ATOM      6  C   UNL     1       4.791   4.600  16.374  0.00  0.00    +0.000 A 
ENDROOT
BRANCH   5   7
ATOM      7  C   UNL     1       4.329   4.433  18.867  0.00  0.00    +0.000 C 
BRANCH   7   8
ATOM      8  N   UNL     1       2.918   4.786  18.697  0.00  0.00    +0.000 NA
ATOM      9  C   UNL     1       2.414   5.854  19.554  0.00  0.00    +0.000 C 
ATOM     10  C   UNL     1       1.667   5.152  20.670  0.00  0.00    +0.000 C 
ATOM     11  C   UNL     1       1.115   3.900  20.014  0.00  0.00    +0.000 C 
ATOM     12  C   UNL     1       1.970   3.677  18.773  0.00  0.00    +0.000 C 
ENDBRANCH   7   8
ENDBRANCH   5   7
TORSDOF 2
ENDMDL
MODEL 5
REMARK VINA RESULT:      -5.5      1.488      5.186
REMARK  Name = 
REMARK  2 active torsions:
REMARK  status: ('A' for Active; 'I' for Inactive)
REMARK    1  A    between atoms: C_5  and  C_6
REMARK    2  A    between atoms: C_6  and  N_7
REMARK                            x       y       z     vdW  Elec       q    Type
REMARK                         _______ _______ _______ _____ _____    ______ ____
ROOT
ATOM      1  C   UNL     1       1.644   4.104  17.892  0.00  0.00    +0.000 A 
ATOM      2  C   UNL     1       1.644   2.763  18.236  0.00  0.00    +0.000 A 
ATOM      3  N   UNL     1       2.675   2.148  18.852  0.00  0.00    +0.000 NA
ATOM      4  C   UNL     1       3.749   2.917  19.154  0.00  0.00    +0.000 A 
ATOM      5  C   UNL     1       3.850   4.276  18.872  0.00  0.00    +0.000 A 
ATOM      6  C   UNL     1       2.763   4.867  18.215  0.00  0.00    +0.000 A 
ENDROOT
BRANCH   5   7
ATOM      7  C   UNL     1       5.036   5.087  19.328  0.00  0.00    +0.000 C 
BRANCH   7   8
ATOM      8  N   UNL     1       6.344   4.835  18.719  0.00  0.00    +0.000 NA
ATOM      9  C   UNL     1       7.439   5.686  19.171  0.00  0.00    +0.000 C 
ATOM     10  C   UNL     1       7.607   6.733  18.087  0.00  0.00    +0.000 C 
ATOM     11  C   UNL     1       7.216   6.008  16.813  0.00  0.00    +0.000 C 
ATOM     12  C   UNL     1       6.373   4.820  17.258  0.00  0.00    +0.000 C 
ENDBRANCH   7   8
ENDBRANCH   5   7
TORSDOF 2
ENDMDL
MODEL 6
REMARK VINA RESULT:      -5.4      1.744      2.442
REMARK  Name = 
REMARK  2 active torsions:
REMARK  status: ('A' for Active; 'I' for Inactive)
REMARK    1  A    between atoms: C_5  and  C_6
REMARK    2  A    between atoms: C_6  and  N_7
REMARK                            x       y       z     vdW  Elec       q    Type
REMARK                         _______ _______ _______ _____ _____    ______ ____
ROOT
ATOM      1  C   UNL     1       5.723   4.023  14.965  0.00  0.00    +0.000 A 
ATOM      2  C   UNL     1       6.792   4.854  14.678  0.00  0.00    +0.000 A 
ATOM      3  N   UNL     1       7.431   5.598  15.604  0.00  0.00    +0.000 NA
ATOM      4  C   UNL     1       6.990   5.491  16.881  0.00  0.00    +0.000 A 
ATOM      5  C   UNL     1       5.936   4.677  17.285  0.00  0.00    +0.000 A 
ATOM      6  C   UNL     1       5.291   3.937  16.286  0.00  0.00    +0.000 A 
ENDROOT
BRANCH   5   7
ATOM      7  C   UNL     1       5.567   4.535  18.739  0.00  0.00    +0.000 C 
BRANCH   7   8
ATOM      8  N   UNL     1       4.382   5.235  19.241  0.00  0.00    +0.000 NA
ATOM      9  C   UNL     1       3.322   4.394  19.786  0.00  0.00    +0.000 C 
ATOM     10  C   UNL     1       2.280   4.301  18.688  0.00  0.00    +0.000 C 
ATOM     11  C   UNL     1       2.384   5.633  17.969  0.00  0.00    +0.000 C 
ATOM     12  C   UNL     1       3.762   6.181  18.317  0.00  0.00    +0.000 C 
ENDBRANCH   7   8
ENDBRANCH   5   7
TORSDOF 2
ENDMDL
MODEL 7
REMARK VINA RESULT:      -5.4      1.058      1.097
REMARK  Name = 
REMARK  2 active torsions:
REMARK  status: ('A' for Active; 'I' for Inactive)
REMARK    1  A    between atoms: C_5  and  C_6
REMARK    2  A    between atoms: C_6  and  N_7
REMARK                            x       y       z     vdW  Elec       q    Type
REMARK                         _______ _______ _______ _____ _____    ______ ____
ROOT
ATOM      1  C   UNL     1       6.119   4.604  16.291  0.00  0.00    +0.000 A 
ATOM      2  C   UNL     1       7.290   4.508  17.023  0.00  0.00    +0.000 A 
ATOM      3  N   UNL     1       7.369   4.769  18.345  0.00  0.00    +0.000 NA
ATOM      4  C   UNL     1       6.218   5.125  18.964  0.00  0.00    +0.000 A 
ATOM      5  C   UNL     1       4.984   5.237  18.332  0.00  0.00    +0.000 A 
ATOM      6  C   UNL     1       4.954   4.975  16.956  0.00  0.00    +0.000 A 
ENDROOT
BRANCH   5   7
ATOM      7  C   UNL     1       3.728   5.543  19.108  0.00  0.00    +0.000 C 
BRANCH   7   8
ATOM      8  N   UNL     1       3.202   4.535  20.031  0.00  0.00    +0.000 NA
ATOM      9  C   UNL     1       2.946   3.215  19.464  0.00  0.00    +0.000 C 
ATOM     10  C   UNL     1       1.449   3.166  19.225  0.00  0.00    +0.000 C 
ATOM     11  C   UNL     1       0.872   4.033  20.329  0.00  0.00    +0.000 C 
ATOM     12  C   UNL     1       2.017   4.925  20.791  0.00  0.00    +0.000 C 
ENDBRANCH   7   8
ENDBRANCH   5   7
TORSDOF 2
ENDMDL
MODEL 8
REMARK VINA RESULT:      -5.4      1.683      1.895
REMARK  Name = 
REMARK  2 active torsions:
REMARK  status: ('A' for Active; 'I' for Inactive)
REMARK    1  A    between atoms: C_5  and  C_6
REMARK    2  A    between atoms: C_6  and  N_7
REMARK                            x       y       z     vdW  Elec       q    Type
REMARK                         _______ _______ _______ _____ _____    ______ ____
ROOT
ATOM      1  C   UNL     1       5.583   4.084  15.624  0.00  0.00    +0.000 A 
ATOM      2  C   UNL     1       6.013   5.354  15.281  0.00  0.00    +0.000 A 
ATOM      3  N   UNL     1       5.557   6.482  15.865  0.00  0.00    +0.000 NA
ATOM      4  C   UNL     1       4.640   6.328  16.851  0.00  0.00    +0.000 A 
ATOM      5  C   UNL     1       4.150   5.101  17.288  0.00  0.00    +0.000 A 
ATOM      6  C   UNL     1       4.639   3.959  16.640  0.00  0.00    +0.000 A 
ENDROOT
BRANCH   5   7
ATOM      7  C   UNL     1       3.205   5.005  18.458  0.00  0.00    +0.000 C 
BRANCH   7   8
ATOM      8  N   UNL     1       2.745   3.684  18.892  0.00  0.00    +0.000 NA
ATOM      9  C   UNL     1       1.306   3.534  19.079  0.00  0.00    +0.000 C 
ATOM     10  C   UNL     1       1.084   3.634  20.575  0.00  0.00    +0.000 C 
ATOM     11  C   UNL     1       2.350   3.051  21.175  0.00  0.00    +0.000 C 
ATOM     12  C   UNL     1       3.402   3.138  20.077  0.00  0.00    +0.000 C 
ENDBRANCH   7   8
ENDBRANCH   5   7
TORSDOF 2
ENDMDL
MODEL 9
REMARK VINA RESULT:      -5.4      1.207      1.763
REMARK  Name = 
REMARK  2 active torsions:
REMARK  status: ('A' for Active; 'I' for Inactive)
REMARK    1  A    between atoms: C_5  and  C_6
REMARK    2  A    between atoms: C_6  and  N_7
REMARK                            x       y       z     vdW  Elec       q    Type
REMARK                         _______ _______ _______ _____ _____    ______ ____
ROOT
ATOM      1  C   UNL     1       7.186   5.182  18.389  0.00  0.00    +0.000 A 
ATOM      2  C   UNL     1       7.366   4.700  17.104  0.00  0.00    +0.000 A 
ATOM      3  N   UNL     1       6.375   4.171  16.357  0.00  0.00    +0.000 NA
ATOM      4  C   UNL     1       5.142   4.138  16.919  0.00  0.00    +0.000 A 
ATOM      5  C   UNL     1       4.843   4.608  18.194  0.00  0.00    +0.000 A 
ATOM      6  C   UNL     1       5.908   5.132  18.939  0.00  0.00    +0.000 A 
ENDROOT
BRANCH   5   7
ATOM      7  C   UNL     1       3.428   4.628  18.712  0.00  0.00    +0.000 C 
BRANCH   7   8
ATOM      8  N   UNL     1       2.804   3.368  19.120  0.00  0.00    +0.000 NA
ATOM      9  C   UNL     1       1.351   3.383  19.252  0.00  0.00    +0.000 C 
ATOM     10  C   UNL     1       1.086   3.507  20.740  0.00  0.00    +0.000 C 
ATOM     11  C   UNL     1       2.253   2.781  21.383  0.00  0.00    +0.000 C 
ATOM     12  C   UNL     1       3.349   2.749  20.325  0.00  0.00    +0.000 C 
ENDBRANCH   7   8
ENDBRANCH   5   7
TORSDOF 2
ENDMDL
