MODEL 1
REMARK VINA RESULT:      -7.5      0.000      0.000
REMARK  Name = 
REMARK  11 active torsions:
REMARK  status: ('A' for Active; 'I' for Inactive)
REMARK    1  A    between atoms: O_1  and  C_2
REMARK    2  A    between atoms: C_7  and  C_8
REMARK    3  A    between atoms: N_9  and  C_10
REMARK    4  A    between atoms: C_10  and  C_11
REMARK    5  A    between atoms: C_11  and  C_12
REMARK    6  A    between atoms: C_12  and  C_13
REMARK    7  A    between atoms: C_13  and  C_14
REMARK    8  A    between atoms: C_14  and  C_15
REMARK    9  A    between atoms: C_15  and  N_16
REMARK   10  A    between atoms: C_17  and  C_18
REMARK   11  A    between atoms: C_23  and  O_24
REMARK                            x       y       z     vdW  Elec       q    Type
REMARK                         _______ _______ _______ _____ _____    ______ ____
ROOT
ATOM      1  C   UNL     1       7.606   7.763  17.327  0.00  0.00    +0.000 C 
ENDROOT
BRANCH   1   2
ATOM      2  C   UNL     1       7.093   6.337  17.509  0.00  0.00    +0.000 C 
BRANCH   2   3
ATOM      3  C   UNL     1       7.602   5.685  18.799  0.00  0.00    +0.000 C 
BRANCH   3   5
ATOM      4  C   UNL     1       5.442   4.789  18.887  0.00  0.00    +0.000 C 
ATOM      5  N   UNL     1       6.420   5.291  19.558  0.00  0.00    +0.000 NA
BRANCH   4  11
ATOM      6  C   UNL     1       4.012   3.044  19.997  0.00  0.00    +0.000 A 
ATOM      7  C   UNL     1       2.833   2.685  20.657  0.00  0.00    +0.000 A 
ATOM      8  C   UNL     1       1.845   3.644  20.901  0.00  0.00    +0.000 A 
ATOM      9  C   UNL     1       2.033   4.961  20.488  0.00  0.00    +0.000 A 
ATOM     10  C   UNL     1       3.210   5.320  19.832  0.00  0.00    +0.000 A 
ATOM     11  C   UNL     1       4.205   4.365  19.584  0.00  0.00    +0.000 A 
BRANCH   6  12
ATOM     12  O   UNL     1       4.970   2.099  19.763  0.00  0.00    +0.000 OA
ATOM     13  H   UNL     1       5.302   2.206  18.855  0.00  0.00    +0.000 HD
ENDBRANCH   6  12
ENDBRANCH   4  11
ENDBRANCH   3   5
ENDBRANCH   2   3
ENDBRANCH   1   2
BRANCH   1  14
ATOM     14  C   UNL     1       8.445   8.208  18.533  0.00  0.00    +0.000 C 
BRANCH  14  15
ATOM     15  C   UNL     1       8.772   9.697  18.444  0.00  0.00    +0.000 C 
BRANCH  15  16
ATOM     16  C   UNL     1       9.376  10.245  19.737  0.00  0.00    +0.000 C 
BRANCH  16  17
ATOM     17  N   UNL     1       9.940  11.554  19.416  0.00  0.00    +0.000 NA
ATOM     18  C   UNL     1       9.622  12.027  18.258  0.00  0.00    +0.000 C 
BRANCH  18  19
ATOM     19  C   UNL     1      10.162  13.327  17.805  0.00  0.00    +0.000 A 
ATOM     20  C   UNL     1       9.375  14.478  17.936  0.00  0.00    +0.000 A 
ATOM     21  C   UNL     1       9.879  15.722  17.563  0.00  0.00    +0.000 A 
ATOM     22  C   UNL     1      11.174  15.823  17.058  0.00  0.00    +0.000 A 
ATOM     23  C   UNL     1      11.962  14.677  16.911  0.00  0.00    +0.000 A 
ATOM     24  C   UNL     1      11.455  13.430  17.282  0.00  0.00    +0.000 A 
BRANCH  24  25
ATOM     25  O   UNL     1      12.230  12.313  17.137  0.00  0.00    +0.000 OA
ATOM     26  H   UNL     1      13.034  12.415  17.673  0.00  0.00    +0.000 HD
ENDBRANCH  24  25
ENDBRANCH  18  19
ENDBRANCH  16  17
ENDBRANCH  15  16
ENDBRANCH  14  15
ENDBRANCH   1  14
TORSDOF 11
ENDMDL
MODEL 2
REMARK VINA RESULT:      -7.4      5.340      8.381
REMARK  Name = 
REMARK  11 active torsions:
REMARK  status: ('A' for Active; 'I' for Inactive)
REMARK    1  A    between atoms: O_1  and  C_2
REMARK    2  A    between atoms: C_7  and  C_8
REMARK    3  A    between atoms: N_9  and  C_10
REMARK    4  A    between atoms: C_10  and  C_11
REMARK    5  A    between atoms: C_11  and  C_12
REMARK    6  A    between atoms: C_12  and  C_13
REMARK    7  A    between atoms: C_13  and  C_14
REMARK    8  A    between atoms: C_14  and  C_15
REMARK    9  A    between atoms: C_15  and  N_16
REMARK   10  A    between atoms: C_17  and  C_18
REMARK   11  A    between atoms: C_23  and  O_24
REMARK                            x       y       z     vdW  Elec       q    Type
REMARK                         _______ _______ _______ _____ _____    ______ ____
ROOT
ATOM      1  C   UNL     1       3.157   2.190  19.104  0.00  0.00    +0.000 C 
ENDROOT
BRANCH   1   2
ATOM      2  C   UNL     1       2.164   2.437  17.972  0.00  0.00    +0.000 C 
BRANCH   2   3
ATOM      3  C   UNL     1       2.274   3.848  17.386  0.00  0.00    +0.000 C 
BRANCH   3   5
ATOM      4  C   UNL     1       4.273   5.023  17.068  0.00  0.00    +0.000 C 
ATOM      5  N   UNL     1       3.509   4.420  17.912  0.00  0.00    +0.000 NA
BRANCH   4  11
ATOM      6  C   UNL     1       6.409   4.959  18.393  0.00  0.00    +0.000 A 
ATOM      7  C   UNL     1       7.604   5.563  18.794  0.00  0.00    +0.000 A 
ATOM      8  C   UNL     1       7.937   6.838  18.328  0.00  0.00    +0.000 A 
ATOM      9  C   UNL     1       7.078   7.512  17.463  0.00  0.00    +0.000 A 
ATOM     10  C   UNL     1       5.886   6.909  17.061  0.00  0.00    +0.000 A 
ATOM     11  C   UNL     1       5.546   5.630  17.523  0.00  0.00    +0.000 A 
BRANCH   6  12
ATOM     12  O   UNL     1       6.094   3.712  18.855  0.00  0.00    +0.000 OA
ATOM     13  H   UNL     1       5.426   3.319  18.268  0.00  0.00    +0.000 HD
ENDBRANCH   6  12
ENDBRANCH   4  11
ENDBRANCH   3   5
ENDBRANCH   2   3
ENDBRANCH   1   2
BRANCH   1  14
ATOM     14  C   UNL     1       2.432   1.923  20.429  0.00  0.00    +0.000 C 
BRANCH  14  15
ATOM     15  C   UNL     1       1.386   3.001  20.701  0.00  0.00    +0.000 C 
BRANCH  15  16
ATOM     16  C   UNL     1       1.982   4.250  21.350  0.00  0.00    +0.000 C 
BRANCH  16  17
ATOM     17  N   UNL     1       1.541   5.391  20.551  0.00  0.00    +0.000 NA
ATOM     18  C   UNL     1       2.357   6.389  20.509  0.00  0.00    +0.000 C 
BRANCH  18  19
ATOM     19  C   UNL     1       2.004   7.616  19.762  0.00  0.00    +0.000 A 
ATOM     20  C   UNL     1       2.376   7.729  18.416  0.00  0.00    +0.000 A 
ATOM     21  C   UNL     1       2.012   8.854  17.678  0.00  0.00    +0.000 A 
ATOM     22  C   UNL     1       1.273   9.870  18.281  0.00  0.00    +0.000 A 
ATOM     23  C   UNL     1       0.909   9.771  19.627  0.00  0.00    +0.000 A 
ATOM     24  C   UNL     1       1.277   8.645  20.367  0.00  0.00    +0.000 A 
BRANCH  24  25
ATOM     25  O   UNL     1       0.918   8.553  21.683  0.00  0.00    +0.000 OA
ATOM     26  H   UNL     1       1.685   8.252  22.200  0.00  0.00    +0.000 HD
ENDBRANCH  24  25
ENDBRANCH  18  19
ENDBRANCH  16  17
ENDBRANCH  15  16
ENDBRANCH  14  15
ENDBRANCH   1  14
TORSDOF 11
ENDMDL
MODEL 3
REMARK VINA RESULT:      -7.2      5.483      8.479
REMARK  Name = 
REMARK  11 active torsions:
REMARK  status: ('A' for Active; 'I' for Inactive)
REMARK    1  A    between atoms: O_1  and  C_2
REMARK    2  A    between atoms: C_7  and  C_8
REMARK    3  A    between atoms: N_9  and  C_10
REMARK    4  A    between atoms: C_10  and  C_11
REMARK    5  A    between atoms: C_11  and  C_12
REMARK    6  A    between atoms: C_12  and  C_13
REMARK    7  A    between atoms: C_13  and  C_14
REMARK    8  A    between atoms: C_14  and  C_15
REMARK    9  A    between atoms: C_15  and  N_16
REMARK   10  A    between atoms: C_17  and  C_18
REMARK   11  A    between atoms: C_23  and  O_24
REMARK                            x       y       z     vdW  Elec       q    Type
REMARK                         _______ _______ _______ _____ _____    ______ ____
ROOT
ATOM      1  C   UNL     1       1.665   1.833  19.033  0.00  0.00    +0.000 C 
ENDROOT
BRANCH   1   2
ATOM      2  C   UNL     1       1.472   3.148  18.284  0.00  0.00    +0.000 C 
BRANCH   2   3
ATOM      3  C   UNL     1       2.494   3.342  17.158  0.00  0.00    +0.000 C 
BRANCH   3   5
ATOM      4  C   UNL     1       4.363   4.743  17.020  0.00  0.00    +0.000 C 
ATOM      5  N   UNL     1       3.669   3.956  17.767  0.00  0.00    +0.000 NA
BRANCH   4  11
ATOM      6  C   UNL     1       6.213   6.439  16.874  0.00  0.00    +0.000 A 
ATOM      7  C   UNL     1       7.349   7.043  17.422  0.00  0.00    +0.000 A 
ATOM      8  C   UNL     1       7.847   6.612  18.655  0.00  0.00    +0.000 A 
ATOM      9  C   UNL     1       7.213   5.579  19.343  0.00  0.00    +0.000 A 
ATOM     10  C   UNL     1       6.079   4.979  18.797  0.00  0.00    +0.000 A 
ATOM     11  C   UNL     1       5.572   5.405  17.562  0.00  0.00    +0.000 A 
BRANCH   6  12
ATOM     12  O   UNL     1       5.736   6.868  15.668  0.00  0.00    +0.000 OA
ATOM     13  H   UNL     1       5.047   7.538  15.823  0.00  0.00    +0.000 HD
ENDBRANCH   6  12
ENDBRANCH   4  11
ENDBRANCH   3   5
ENDBRANCH   2   3
ENDBRANCH   1   2
BRANCH   1  14
ATOM     14  C   UNL     1       2.018   2.080  20.506  0.00  0.00    +0.000 C 
BRANCH  14  15
ATOM     15  C   UNL     1       1.330   3.342  21.022  0.00  0.00    +0.000 C 
BRANCH  15  16
ATOM     16  C   UNL     1       2.308   4.494  21.255  0.00  0.00    +0.000 C 
BRANCH  16  17
ATOM     17  N   UNL     1       1.690   5.692  20.692  0.00  0.00    +0.000 NA
ATOM     18  C   UNL     1       2.509   6.566  20.214  0.00  0.00    +0.000 C 
BRANCH  18  19
ATOM     19  C   UNL     1       2.003   7.837  19.651  0.00  0.00    +0.000 A 
ATOM     20  C   UNL     1       2.175   8.097  18.285  0.00  0.00    +0.000 A 
ATOM     21  C   UNL     1       1.664   9.265  17.721  0.00  0.00    +0.000 A 
ATOM     22  C   UNL     1       0.977  10.178  18.518  0.00  0.00    +0.000 A 
ATOM     23  C   UNL     1       0.813   9.933  19.885  0.00  0.00    +0.000 A 
ATOM     24  C   UNL     1       1.329   8.764  20.451  0.00  0.00    +0.000 A 
BRANCH  24  25
ATOM     25  O   UNL     1       1.165   8.530  21.788  0.00  0.00    +0.000 OA
ATOM     26  H   UNL     1       1.998   8.728  22.248  0.00  0.00    +0.000 HD
ENDBRANCH  24  25
ENDBRANCH  18  19
ENDBRANCH  16  17
ENDBRANCH  15  16
ENDBRANCH  14  15
ENDBRANCH   1  14
TORSDOF 11
ENDMDL
MODEL 4
REMARK VINA RESULT:      -7.2      5.210      7.823
REMARK  Name = 
REMARK  11 active torsions:
REMARK  status: ('A' for Active; 'I' for Inactive)
REMARK    1  A    between atoms: O_1  and  C_2
REMARK    2  A    between atoms: C_7  and  C_8
REMARK    3  A    between atoms: N_9  and  C_10
REMARK    4  A    between atoms: C_10  and  C_11
REMARK    5  A    between atoms: C_11  and  C_12
REMARK    6  A    between atoms: C_12  and  C_13
REMARK    7  A    between atoms: C_13  and  C_14
REMARK    8  A    between atoms: C_14  and  C_15
REMARK    9  A    between atoms: C_15  and  N_16
REMARK   10  A    between atoms: C_17  and  C_18
REMARK   11  A    between atoms: C_23  and  O_24
REMARK                            x       y       z     vdW  Elec       q    Type
REMARK                         _______ _______ _______ _____ _____    ______ ____
ROOT
ATOM      1  C   UNL     1       1.405   3.233  19.473  0.00  0.00    +0.000 C 
ENDROOT
BRANCH   1   2
ATOM      2  C   UNL     1       2.320   3.049  20.680  0.00  0.00    +0.000 C 
BRANCH   2   3
ATOM      3  C   UNL     1       2.418   4.310  21.545  0.00  0.00    +0.000 C 
BRANCH   3   5
ATOM      4  C   UNL     1       2.608   6.408  20.527  0.00  0.00    +0.000 C 
ATOM      5  N   UNL     1       1.844   5.397  20.759  0.00  0.00    +0.000 NA
BRANCH   4  11
ATOM      6  C   UNL     1       1.273   8.528  20.305  0.00  0.00    +0.000 A 
ATOM      7  C   UNL     1       0.820   9.598  19.528  0.00  0.00    +0.000 A 
ATOM      8  C   UNL     1       1.189   9.694  18.183  0.00  0.00    +0.000 A 
ATOM      9  C   UNL     1       2.010   8.725  17.612  0.00  0.00    +0.000 A 
ATOM     10  C   UNL     1       2.464   7.658  18.388  0.00  0.00    +0.000 A 
ATOM     11  C   UNL     1       2.100   7.554  19.737  0.00  0.00    +0.000 A 
BRANCH   6  12
ATOM     12  O   UNL     1       0.906   8.443  21.618  0.00  0.00    +0.000 OA
ATOM     13  H   UNL     1       1.707   8.355  22.164  0.00  0.00    +0.000 HD
ENDBRANCH   6  12
ENDBRANCH   4  11
ENDBRANCH   3   5
ENDBRANCH   2   3
ENDBRANCH   1   2
BRANCH   1  14
ATOM     14  C   UNL     1       1.547   2.065  18.487  0.00  0.00    +0.000 C 
BRANCH  14  15
ATOM     15  C   UNL     1       2.647   2.348  17.467  0.00  0.00    +0.000 C 
BRANCH  15  16
ATOM     16  C   UNL     1       2.662   3.806  17.005  0.00  0.00    +0.000 C 
BRANCH  16  17
ATOM     17  N   UNL     1       3.804   4.442  17.657  0.00  0.00    +0.000 NA
ATOM     18  C   UNL     1       4.612   5.071  16.873  0.00  0.00    +0.000 C 
BRANCH  18  19
ATOM     19  C   UNL     1       5.824   5.724  17.412  0.00  0.00    +0.000 A 
ATOM     20  C   UNL     1       6.185   6.993  16.940  0.00  0.00    +0.000 A 
ATOM     21  C   UNL     1       7.295   7.650  17.468  0.00  0.00    +0.000 A 
ATOM     22  C   UNL     1       8.049   7.043  18.471  0.00  0.00    +0.000 A 
ATOM     23  C   UNL     1       7.704   5.771  18.938  0.00  0.00    +0.000 A 
ATOM     24  C   UNL     1       6.594   5.112  18.406  0.00  0.00    +0.000 A 
BRANCH  24  25
ATOM     25  O   UNL     1       6.260   3.868  18.866  0.00  0.00    +0.000 OA
ATOM     26  H   UNL     1       5.759   3.400  18.177  0.00  0.00    +0.000 HD
ENDBRANCH  24  25
ENDBRANCH  18  19
ENDBRANCH  16  17
ENDBRANCH  15  16
ENDBRANCH  14  15
ENDBRANCH   1  14
TORSDOF 11
ENDMDL
MODEL 5
REMARK VINA RESULT:      -7.2      1.793      2.501
REMARK  Name = 
REMARK  11 active torsions:
REMARK  status: ('A' for Active; 'I' for Inactive)
REMARK    1  A    between atoms: O_1  and  C_2
REMARK    2  A    between atoms: C_7  and  C_8
REMARK    3  A    between atoms: N_9  and  C_10
REMARK    4  A    between atoms: C_10  and  C_11
REMARK    5  A    between atoms: C_11  and  C_12
REMARK    6  A    between atoms: C_12  and  C_13
REMARK    7  A    between atoms: C_13  and  C_14
REMARK    8  A    between atoms: C_14  and  C_15
REMARK    9  A    between atoms: C_15  and  N_16
REMARK   10  A    between atoms: C_17  and  C_18
REMARK   11  A    between atoms: C_23  and  O_24
REMARK                            x       y       z     vdW  Elec       q    Type
REMARK                         _______ _______ _______ _____ _____    ______ ____
ROOT
ATOM      1  C   UNL     1       7.047   5.733  16.059  0.00  0.00    +0.000 C 
ENDROOT
BRANCH   1   2
ATOM      2  C   UNL     1       5.552   5.561  15.803  0.00  0.00    +0.000 C 
BRANCH   2   3
ATOM      3  C   UNL     1       5.080   4.118  16.001  0.00  0.00    +0.000 C 
BRANCH   3   5
ATOM      4  C   UNL     1       3.436   3.373  17.492  0.00  0.00    +0.000 C 
ATOM      5  N   UNL     1       4.526   4.044  17.349  0.00  0.00    +0.000 NA
BRANCH   4  11
ATOM      6  C   UNL     1       3.493   2.695  19.912  0.00  0.00    +0.000 A 
ATOM      7  C   UNL     1       2.868   2.604  21.160  0.00  0.00    +0.000 A 
ATOM      8  C   UNL     1       1.559   3.066  21.324  0.00  0.00    +0.000 A 
ATOM      9  C   UNL     1       0.872   3.619  20.245  0.00  0.00    +0.000 A 
ATOM     10  C   UNL     1       1.496   3.711  19.001  0.00  0.00    +0.000 A 
ATOM     11  C   UNL     1       2.809   3.252  18.828  0.00  0.00    +0.000 A 
BRANCH   6  12
ATOM     12  O   UNL     1       4.773   2.240  19.763  0.00  0.00    +0.000 OA
ATOM     13  H   UNL     1       4.910   1.986  18.834  0.00  0.00    +0.000 HD
ENDBRANCH   6  12
ENDBRANCH   4  11
ENDBRANCH   3   5
ENDBRANCH   2   3
ENDBRANCH   1   2
BRANCH   1  14
ATOM     14  C   UNL     1       7.307   6.312  17.455  0.00  0.00    +0.000 C 
BRANCH  14  15
ATOM     15  C   UNL     1       7.645   7.799  17.370  0.00  0.00    +0.000 C 
BRANCH  15  16
ATOM     16  C   UNL     1       8.349   8.316  18.625  0.00  0.00    +0.000 C 
BRANCH  16  17
ATOM     17  N   UNL     1       9.021   9.557  18.249  0.00  0.00    +0.000 NA
ATOM     18  C   UNL     1       9.239  10.385  19.213  0.00  0.00    +0.000 C 
BRANCH  18  19
ATOM     19  C   UNL     1       9.879  11.692  18.950  0.00  0.00    +0.000 A 
ATOM     20  C   UNL     1      11.069  12.018  19.615  0.00  0.00    +0.000 A 
ATOM     21  C   UNL     1      11.718  13.222  19.346  0.00  0.00    +0.000 A 
ATOM     22  C   UNL     1      11.182  14.106  18.412  0.00  0.00    +0.000 A 
ATOM     23  C   UNL     1       9.989  13.795  17.754  0.00  0.00    +0.000 A 
ATOM     24  C   UNL     1       9.337  12.590  18.026  0.00  0.00    +0.000 A 
BRANCH  24  25
ATOM     25  O   UNL     1       8.170  12.290  17.379  0.00  0.00    +0.000 OA
ATOM     26  H   UNL     1       8.153  11.338  17.182  0.00  0.00    +0.000 HD
ENDBRANCH  24  25
ENDBRANCH  18  19
ENDBRANCH  16  17
ENDBRANCH  15  16
ENDBRANCH  14  15
ENDBRANCH   1  14
TORSDOF 11
ENDMDL
MODEL 6
REMARK VINA RESULT:      -7.2      5.318      8.121
REMARK  Name = 
REMARK  11 active torsions:
REMARK  status: ('A' for Active; 'I' for Inactive)
REMARK    1  A    between atoms: O_1  and  C_2
REMARK    2  A    between atoms: C_7  and  C_8
REMARK    3  A    between atoms: N_9  and  C_10
REMARK    4  A    between atoms: C_10  and  C_11
REMARK    5  A    between atoms: C_11  and  C_12
REMARK    6  A    between atoms: C_12  and  C_13
REMARK    7  A    between atoms: C_13  and  C_14
REMARK    8  A    between atoms: C_14  and  C_15
REMARK    9  A    between atoms: C_15  and  N_16
REMARK   10  A    between atoms: C_17  and  C_18
REMARK   11  A    between atoms: C_23  and  O_24
REMARK                            x       y       z     vdW  Elec       q    Type
REMARK                         _______ _______ _______ _____ _____    ______ ____
ROOT
ATOM      1  C   UNL     1       1.590   2.665  20.692  0.00  0.00    +0.000 C 
ENDROOT
BRANCH   1   2
ATOM      2  C   UNL     1       1.096   4.108  20.667  0.00  0.00    +0.000 C 
BRANCH   2   3
ATOM      3  C   UNL     1       2.234   5.125  20.801  0.00  0.00    +0.000 C 
BRANCH   3   5
ATOM      4  C   UNL     1       1.704   7.403  20.706  0.00  0.00    +0.000 C 
ATOM      5  N   UNL     1       1.827   6.305  20.044  0.00  0.00    +0.000 NA
BRANCH   4  11
ATOM      6  C   UNL     1       1.767   8.964  18.737  0.00  0.00    +0.000 A 
ATOM      7  C   UNL     1       1.351  10.144  18.112  0.00  0.00    +0.000 A 
ATOM      8  C   UNL     1       0.462  11.006  18.761  0.00  0.00    +0.000 A 
ATOM      9  C   UNL     1      -0.011  10.693  20.034  0.00  0.00    +0.000 A 
ATOM     10  C   UNL     1       0.403   9.516  20.656  0.00  0.00    +0.000 A 
ATOM     11  C   UNL     1       1.292   8.645  20.012  0.00  0.00    +0.000 A 
BRANCH   6  12
ATOM     12  O   UNL     1       2.636   8.129  18.093  0.00  0.00    +0.000 OA
ATOM     13  H   UNL     1       3.391   7.949  18.679  0.00  0.00    +0.000 HD
ENDBRANCH   6  12
ENDBRANCH   4  11
ENDBRANCH   3   5
ENDBRANCH   2   3
ENDBRANCH   1   2
BRANCH   1  14
ATOM     14  C   UNL     1       2.696   2.440  19.653  0.00  0.00    +0.000 C 
BRANCH  14  15
ATOM     15  C   UNL     1       2.107   2.344  18.247  0.00  0.00    +0.000 C 
BRANCH  15  16
ATOM     16  C   UNL     1       2.443   3.560  17.383  0.00  0.00    +0.000 C 
BRANCH  16  17
ATOM     17  N   UNL     1       3.722   4.077  17.864  0.00  0.00    +0.000 NA
ATOM     18  C   UNL     1       4.203   5.072  17.201  0.00  0.00    +0.000 C 
BRANCH  18  19
ATOM     19  C   UNL     1       5.511   5.657  17.570  0.00  0.00    +0.000 A 
ATOM     20  C   UNL     1       5.865   6.915  17.063  0.00  0.00    +0.000 A 
ATOM     21  C   UNL     1       7.070   7.509  17.435  0.00  0.00    +0.000 A 
ATOM     22  C   UNL     1       7.926   6.851  18.316  0.00  0.00    +0.000 A 
ATOM     23  C   UNL     1       7.586   5.590  18.815  0.00  0.00    +0.000 A 
ATOM     24  C   UNL     1       6.380   4.993  18.439  0.00  0.00    +0.000 A 
BRANCH  24  25
ATOM     25  O   UNL     1       6.053   3.760  18.931  0.00  0.00    +0.000 OA
ATOM     26  H   UNL     1       5.345   3.379  18.384  0.00  0.00    +0.000 HD
ENDBRANCH  24  25
ENDBRANCH  18  19
ENDBRANCH  16  17
ENDBRANCH  15  16
ENDBRANCH  14  15
ENDBRANCH   1  14
TORSDOF 11
ENDMDL
MODEL 7
REMARK VINA RESULT:      -7.2      5.349      8.432
REMARK  Name = 
REMARK  11 active torsions:
REMARK  status: ('A' for Active; 'I' for Inactive)
REMARK    1  A    between atoms: O_1  and  C_2
REMARK    2  A    between atoms: C_7  and  C_8
REMARK    3  A    between atoms: N_9  and  C_10
REMARK    4  A    between atoms: C_10  and  C_11
REMARK    5  A    between atoms: C_11  and  C_12
REMARK    6  A    between atoms: C_12  and  C_13
REMARK    7  A    between atoms: C_13  and  C_14
REMARK    8  A    between atoms: C_14  and  C_15
REMARK    9  A    between atoms: C_15  and  N_16
REMARK   10  A    between atoms: C_17  and  C_18
REMARK   11  A    between atoms: C_23  and  O_24
REMARK                            x       y       z     vdW  Elec       q    Type
REMARK                         _______ _______ _______ _____ _____    ______ ____
ROOT
ATOM      1  C   UNL     1       1.942   4.039  20.295  0.00  0.00    +0.000 C 
ENDROOT
BRANCH   1   2
ATOM      2  C   UNL     1       1.438   5.462  20.518  0.00  0.00    +0.000 C 
BRANCH   2   3
ATOM      3  C   UNL     1       2.450   6.524  20.076  0.00  0.00    +0.000 C 
BRANCH   3   5
ATOM      4  C   UNL     1       0.968   7.893  21.261  0.00  0.00    +0.000 C 
ATOM      5  N   UNL     1       1.813   7.819  20.292  0.00  0.00    +0.000 NA
BRANCH   4  11
ATOM      6  C   UNL     1       0.141  10.165  20.570  0.00  0.00    +0.000 A 
ATOM      7  C   UNL     1      -0.524  11.357  20.875  0.00  0.00    +0.000 A 
ATOM      8  C   UNL     1      -1.051  11.558  22.154  0.00  0.00    +0.000 A 
ATOM      9  C   UNL     1      -0.916  10.572  23.130  0.00  0.00    +0.000 A 
ATOM     10  C   UNL     1      -0.255   9.383  22.824  0.00  0.00    +0.000 A 
ATOM     11  C   UNL     1       0.276   9.172  21.544  0.00  0.00    +0.000 A 
BRANCH   6  12
ATOM     12  O   UNL     1       0.653   9.979  19.317  0.00  0.00    +0.000 OA
ATOM     13  H   UNL     1      -0.050   9.640  18.737  0.00  0.00    +0.000 HD
ENDBRANCH   6  12
ENDBRANCH   4  11
ENDBRANCH   3   5
ENDBRANCH   2   3
ENDBRANCH   1   2
BRANCH   1  14
ATOM     14  C   UNL     1       1.242   3.384  19.097  0.00  0.00    +0.000 C 
BRANCH  14  15
ATOM     15  C   UNL     1       1.629   4.084  17.796  0.00  0.00    +0.000 C 
BRANCH  15  16
ATOM     16  C   UNL     1       2.622   3.272  16.963  0.00  0.00    +0.000 C 
BRANCH  16  17
ATOM     17  N   UNL     1       3.956   3.749  17.319  0.00  0.00    +0.000 NA
ATOM     18  C   UNL     1       4.106   5.030  17.322  0.00  0.00    +0.000 C 
BRANCH  18  19
ATOM     19  C   UNL     1       5.422   5.630  17.629  0.00  0.00    +0.000 A 
ATOM     20  C   UNL     1       5.786   6.835  17.013  0.00  0.00    +0.000 A 
ATOM     21  C   UNL     1       6.999   7.446  17.323  0.00  0.00    +0.000 A 
ATOM     22  C   UNL     1       7.855   6.857  18.252  0.00  0.00    +0.000 A 
ATOM     23  C   UNL     1       7.507   5.648  18.862  0.00  0.00    +0.000 A 
ATOM     24  C   UNL     1       6.292   5.034  18.547  0.00  0.00    +0.000 A 
BRANCH  24  25
ATOM     25  O   UNL     1       5.956   3.852  19.147  0.00  0.00    +0.000 OA
ATOM     26  H   UNL     1       6.613   3.649  19.834  0.00  0.00    +0.000 HD
ENDBRANCH  24  25
ENDBRANCH  18  19
ENDBRANCH  16  17
ENDBRANCH  15  16
ENDBRANCH  14  15
ENDBRANCH   1  14
TORSDOF 11
ENDMDL
MODEL 8
REMARK VINA RESULT:      -7.1      1.649     11.232
REMARK  Name = 
REMARK  11 active torsions:
REMARK  status: ('A' for Active; 'I' for Inactive)
REMARK    1  A    between atoms: O_1  and  C_2
REMARK    2  A    between atoms: C_7  and  C_8
REMARK    3  A    between atoms: N_9  and  C_10
REMARK    4  A    between atoms: C_10  and  C_11
REMARK    5  A    between atoms: C_11  and  C_12
REMARK    6  A    between atoms: C_12  and  C_13
REMARK    7  A    between atoms: C_13  and  C_14
REMARK    8  A    between atoms: C_14  and  C_15
REMARK    9  A    between atoms: C_15  and  N_16
REMARK   10  A    between atoms: C_17  and  C_18
REMARK   11  A    between atoms: C_23  and  O_24
REMARK                            x       y       z     vdW  Elec       q    Type
REMARK                         _______ _______ _______ _____ _____    ______ ____
ROOT
ATOM      1  C   UNL     1       8.010   7.447  17.925  0.00  0.00    +0.000 C 
ENDROOT
BRANCH   1   2
ATOM      2  C   UNL     1       7.931   8.965  17.798  0.00  0.00    +0.000 C 
BRANCH   2   3
ATOM      3  C   UNL     1       8.749   9.691  18.871  0.00  0.00    +0.000 C 
BRANCH   3   5
ATOM      4  C   UNL     1       9.564  11.883  18.778  0.00  0.00    +0.000 C 
ATOM      5  N   UNL     1       9.493  10.742  18.183  0.00  0.00    +0.000 NA
BRANCH   4  11
ATOM      6  C   UNL     1      11.541  12.814  17.533  0.00  0.00    +0.000 A 
ATOM      7  C   UNL     1      12.201  13.896  16.942  0.00  0.00    +0.000 A 
ATOM      8  C   UNL     1      11.622  15.168  16.965  0.00  0.00    +0.000 A 
ATOM      9  C   UNL     1      10.385  15.362  17.577  0.00  0.00    +0.000 A 
ATOM     10  C   UNL     1       9.727  14.283  18.165  0.00  0.00    +0.000 A 
ATOM     11  C   UNL     1      10.299  13.004  18.145  0.00  0.00    +0.000 A 
BRANCH   6  12
ATOM     12  O   UNL     1      12.117  11.575  17.505  0.00  0.00    +0.000 OA
ATOM     13  H   UNL     1      12.246  11.309  16.578  0.00  0.00    +0.000 HD
ENDBRANCH   6  12
ENDBRANCH   4  11
ENDBRANCH   3   5
ENDBRANCH   2   3
ENDBRANCH   1   2
BRANCH   1  14
ATOM     14  C   UNL     1       6.979   6.760  17.020  0.00  0.00    +0.000 C 
BRANCH  14  15
ATOM     15  C   UNL     1       5.710   6.427  17.801  0.00  0.00    +0.000 C 
BRANCH  15  16
ATOM     16  C   UNL     1       4.437   6.667  16.989  0.00  0.00    +0.000 C 
BRANCH  16  17
ATOM     17  N   UNL     1       3.370   5.917  17.647  0.00  0.00    +0.000 NA
ATOM     18  C   UNL     1       3.748   5.131  18.597  0.00  0.00    +0.000 C 
BRANCH  18  19
ATOM     19  C   UNL     1       2.763   4.291  19.312  0.00  0.00    +0.000 A 
ATOM     20  C   UNL     1       2.766   4.276  20.714  0.00  0.00    +0.000 A 
ATOM     21  C   UNL     1       1.817   3.532  21.411  0.00  0.00    +0.000 A 
ATOM     22  C   UNL     1       0.858   2.801  20.713  0.00  0.00    +0.000 A 
ATOM     23  C   UNL     1       0.856   2.799  19.314  0.00  0.00    +0.000 A 
ATOM     24  C   UNL     1       1.811   3.542  18.616  0.00  0.00    +0.000 A 
BRANCH  24  25
ATOM     25  O   UNL     1       1.804   3.538  17.248  0.00  0.00    +0.000 OA
ATOM     26  H   UNL     1       2.544   2.994  16.931  0.00  0.00    +0.000 HD
ENDBRANCH  24  25
ENDBRANCH  18  19
ENDBRANCH  16  17
ENDBRANCH  15  16
ENDBRANCH  14  15
ENDBRANCH   1  14
TORSDOF 11
ENDMDL
MODEL 9
REMARK VINA RESULT:      -7.1      5.957      8.759
REMARK  Name = 
REMARK  11 active torsions:
REMARK  status: ('A' for Active; 'I' for Inactive)
REMARK    1  A    between atoms: O_1  and  C_2
REMARK    2  A    between atoms: C_7  and  C_8
REMARK    3  A    between atoms: N_9  and  C_10
REMARK    4  A    between atoms: C_10  and  C_11
REMARK    5  A    between atoms: C_11  and  C_12
REMARK    6  A    between atoms: C_12  and  C_13
REMARK    7  A    between atoms: C_13  and  C_14
REMARK    8  A    between atoms: C_14  and  C_15
REMARK    9  A    between atoms: C_15  and  N_16
REMARK   10  A    between atoms: C_17  and  C_18
REMARK   11  A    between atoms: C_23  and  O_24
REMARK                            x       y       z     vdW  Elec       q    Type
REMARK                         _______ _______ _______ _____ _____    ______ ____
ROOT
ATOM      1  C   UNL     1       2.046   3.912  21.324  0.00  0.00    +0.000 C 
ENDROOT
BRANCH   1   2
ATOM      2  C   UNL     1       1.440   5.071  20.539  0.00  0.00    +0.000 C 
BRANCH   2   3
ATOM      3  C   UNL     1       2.498   6.053  20.023  0.00  0.00    +0.000 C 
BRANCH   3   5
ATOM      4  C   UNL     1       1.009   7.496  21.108  0.00  0.00    +0.000 C 
ATOM      5  N   UNL     1       1.968   7.392  20.254  0.00  0.00    +0.000 NA
BRANCH   4  11
ATOM      6  C   UNL     1       0.295   9.804  20.412  0.00  0.00    +0.000 A 
ATOM      7  C   UNL     1      -0.278  11.040  20.724  0.00  0.00    +0.000 A 
ATOM      8  C   UNL     1      -0.728  11.297  22.023  0.00  0.00    +0.000 A 
ATOM      9  C   UNL     1      -0.608  10.322  23.010  0.00  0.00    +0.000 A 
ATOM     10  C   UNL     1      -0.038   9.088  22.698  0.00  0.00    +0.000 A 
ATOM     11  C   UNL     1       0.414   8.821  21.398  0.00  0.00    +0.000 A 
BRANCH   6  12
ATOM     12  O   UNL     1       0.731   9.564  19.140  0.00  0.00    +0.000 OA
ATOM     13  H   UNL     1       0.614   8.619  18.940  0.00  0.00    +0.000 HD
ENDBRANCH   6  12
ENDBRANCH   4  11
ENDBRANCH   3   5
ENDBRANCH   2   3
ENDBRANCH   1   2
BRANCH   1  14
ATOM     14  C   UNL     1       2.733   2.908  20.389  0.00  0.00    +0.000 C 
BRANCH  14  15
ATOM     15  C   UNL     1       1.726   2.298  19.417  0.00  0.00    +0.000 C 
BRANCH  15  16
ATOM     16  C   UNL     1       2.175   2.404  17.959  0.00  0.00    +0.000 C 
BRANCH  16  17
ATOM     17  N   UNL     1       3.438   3.139  17.961  0.00  0.00    +0.000 NA
ATOM     18  C   UNL     1       3.577   4.005  17.016  0.00  0.00    +0.000 C 
BRANCH  18  19
ATOM     19  C   UNL     1       4.828   4.785  16.891  0.00  0.00    +0.000 A 
ATOM     20  C   UNL     1       4.859   6.107  17.352  0.00  0.00    +0.000 A 
ATOM     21  C   UNL     1       6.039   6.846  17.292  0.00  0.00    +0.000 A 
ATOM     22  C   UNL     1       7.195   6.267  16.771  0.00  0.00    +0.000 A 
ATOM     23  C   UNL     1       7.169   4.952  16.295  0.00  0.00    +0.000 A 
ATOM     24  C   UNL     1       5.985   4.213  16.353  0.00  0.00    +0.000 A 
BRANCH  24  25
ATOM     25  O   UNL     1       5.965   2.928  15.888  0.00  0.00    +0.000 OA
ATOM     26  H   UNL     1       6.373   2.346  16.551  0.00  0.00    +0.000 HD
ENDBRANCH  24  25
ENDBRANCH  18  19
ENDBRANCH  16  17
ENDBRANCH  15  16
ENDBRANCH  14  15
ENDBRANCH   1  14
TORSDOF 11
ENDMDL
