MODEL 1
REMARK VINA RESULT:      -5.8      0.000      0.000
REMARK  Name = 
REMARK  6 active torsions:
REMARK  status: ('A' for Active; 'I' for Inactive)
REMARK    1  A    between atoms: C_1  and  O_2
REMARK    2  A    between atoms: O_2  and  C_3
REMARK    3  A    between atoms: C_5  and  C_6
REMARK    4  A    between atoms: C_8  and  O_9
REMARK    5  A    between atoms: C_10  and  O_11
REMARK    6  A    between atoms: C_12  and  O_13
REMARK                            x       y       z     vdW  Elec       q    Type
REMARK                         _______ _______ _______ _____ _____    ______ ____
ROOT
ATOM      1  C   UNL     1       5.722   5.431  15.185  0.00  0.00    +0.000 C 
ATOM      2  O   UNL     1       4.776   5.875  16.168  0.00  0.00    +0.000 OA
ATOM      3  C   UNL     1       4.539   4.901  17.200  0.00  0.00    +0.000 C 
ATOM      4  C   UNL     1       5.837   4.568  17.954  0.00  0.00    +0.000 C 
ATOM      5  C   UNL     1       6.978   4.231  16.974  0.00  0.00    +0.000 C 
ATOM      6  C   UNL     1       7.088   5.292  15.877  0.00  0.00    +0.000 C 
ENDROOT
BRANCH   1   8
ATOM      7  C   UNL     1       6.158   3.848  13.467  0.00  0.00    +0.000 C 
ATOM      8  O   UNL     1       5.368   4.182  14.601  0.00  0.00    +0.000 OA
ENDBRANCH   1   8
BRANCH   3   9
ATOM      9  C   UNL     1       3.496   5.447  18.175  0.00  0.00    +0.000 C 
ATOM     10 BR   UNL     1       1.826   4.437  18.025  0.00  0.00    +0.000 Br
ENDBRANCH   3   9
BRANCH   4  11
ATOM     11  O   UNL     1       5.590   3.488  18.866  0.00  0.00    +0.000 OA
ATOM     12  H   UNL     1       6.348   3.423  19.473  0.00  0.00    +0.000 HD
ENDBRANCH   4  11
BRANCH   5  13
ATOM     13  O   UNL     1       8.218   4.131  17.687  0.00  0.00    +0.000 OA
ATOM     14  H   UNL     1       8.077   3.464  18.389  0.00  0.00    +0.000 HD
ENDBRANCH   5  13
BRANCH   6  15
ATOM     15  O   UNL     1       7.512   6.539  16.473  0.00  0.00    +0.000 OA
ATOM     16  H   UNL     1       7.984   6.320  17.299  0.00  0.00    +0.000 HD
ENDBRANCH   6  15
TORSDOF 5
ENDMDL
MODEL 2
REMARK VINA RESULT:      -5.6      3.161      5.244
REMARK  Name = 
REMARK  6 active torsions:
REMARK  status: ('A' for Active; 'I' for Inactive)
REMARK    1  A    between atoms: C_1  and  O_2
REMARK    2  A    between atoms: O_2  and  C_3
REMARK    3  A    between atoms: C_5  and  C_6
REMARK    4  A    between atoms: C_8  and  O_9
REMARK    5  A    between atoms: C_10  and  O_11
REMARK    6  A    between atoms: C_12  and  O_13
REMARK                            x       y       z     vdW  Elec       q    Type
REMARK                         _______ _______ _______ _____ _____    ______ ____
ROOT
ATOM      1  C   UNL     1       1.681   3.419  19.508  0.00  0.00    +0.000 C 
ATOM      2  O   UNL     1       2.184   4.472  18.674  0.00  0.00    +0.000 OA
ATOM      3  C   UNL     1       3.609   4.641  18.779  0.00  0.00    +0.000 C 
ATOM      4  C   UNL     1       4.349   3.360  18.366  0.00  0.00    +0.000 C 
ATOM      5  C   UNL     1       3.773   2.127  19.090  0.00  0.00    +0.000 C 
ATOM      6  C   UNL     1       2.247   2.091  18.978  0.00  0.00    +0.000 C 
ENDROOT
BRANCH   1   8
ATOM      7  C   UNL     1       1.425   2.626  21.733  0.00  0.00    +0.000 C 
ATOM      8  O   UNL     1       2.051   3.569  20.874  0.00  0.00    +0.000 OA
ENDBRANCH   1   8
BRANCH   3   9
ATOM      9  C   UNL     1       4.043   5.805  17.888  0.00  0.00    +0.000 C 
ATOM     10 BR   UNL     1       2.827   7.323  18.106  0.00  0.00    +0.000 Br
ENDBRANCH   3   9
BRANCH   4  11
ATOM     11  O   UNL     1       5.751   3.517  18.631  0.00  0.00    +0.000 OA
ATOM     12  H   UNL     1       6.034   2.788  19.211  0.00  0.00    +0.000 HD
ENDBRANCH   4  11
BRANCH   5  13
ATOM     13  O   UNL     1       4.335   0.930  18.535  0.00  0.00    +0.000 OA
ATOM     14  H   UNL     1       3.595   0.453  18.107  0.00  0.00    +0.000 HD
ENDBRANCH   5  13
BRANCH   6  15
ATOM     15  O   UNL     1       1.885   1.871  17.596  0.00  0.00    +0.000 OA
ATOM     16  H   UNL     1       1.154   2.484  17.387  0.00  0.00    +0.000 HD
ENDBRANCH   6  15
TORSDOF 5
ENDMDL
MODEL 3
REMARK VINA RESULT:      -5.6      2.863      4.712
REMARK  Name = 
REMARK  6 active torsions:
REMARK  status: ('A' for Active; 'I' for Inactive)
REMARK    1  A    between atoms: C_1  and  O_2
REMARK    2  A    between atoms: O_2  and  C_3
REMARK    3  A    between atoms: C_5  and  C_6
REMARK    4  A    between atoms: C_8  and  O_9
REMARK    5  A    between atoms: C_10  and  O_11
REMARK    6  A    between atoms: C_12  and  O_13
REMARK                            x       y       z     vdW  Elec       q    Type
REMARK                         _______ _______ _______ _____ _____    ______ ____
ROOT
ATOM      1  C   UNL     1       2.278   3.125  18.219  0.00  0.00    +0.000 C 
ATOM      2  O   UNL     1       3.066   3.793  17.223  0.00  0.00    +0.000 OA
ATOM      3  C   UNL     1       4.117   4.598  17.783  0.00  0.00    +0.000 C 
ATOM      4  C   UNL     1       5.087   3.742  18.612  0.00  0.00    +0.000 C 
ATOM      5  C   UNL     1       4.326   2.853  19.616  0.00  0.00    +0.000 C 
ATOM      6  C   UNL     1       3.184   2.104  18.926  0.00  0.00    +0.000 C 
ENDROOT
BRANCH   1   8
ATOM      7  C   UNL     1       0.794   3.403  20.053  0.00  0.00    +0.000 C 
ATOM      8  O   UNL     1       1.740   4.017  19.189  0.00  0.00    +0.000 OA
ENDBRANCH   1   8
BRANCH   3   9
ATOM      9  C   UNL     1       4.873   5.295  16.652  0.00  0.00    +0.000 C 
ATOM     10 BR   UNL     1       5.945   4.001  15.649  0.00  0.00    +0.000 Br
ENDBRANCH   3   9
BRANCH   4  11
ATOM     11  O   UNL     1       6.027   4.600  19.277  0.00  0.00    +0.000 OA
ATOM     12  H   UNL     1       6.743   4.046  19.634  0.00  0.00    +0.000 HD
ENDBRANCH   4  11
BRANCH   5  13
ATOM     13  O   UNL     1       5.230   1.920  20.223  0.00  0.00    +0.000 OA
ATOM     14  H   UNL     1       6.122   2.150  19.893  0.00  0.00    +0.000 HD
ENDBRANCH   5  13
BRANCH   6  15
ATOM     15  O   UNL     1       3.746   1.154  17.991  0.00  0.00    +0.000 OA
ATOM     16  H   UNL     1       4.699   1.081  18.189  0.00  0.00    +0.000 HD
ENDBRANCH   6  15
TORSDOF 5
ENDMDL
MODEL 4
REMARK VINA RESULT:      -5.4      2.844      4.062
REMARK  Name = 
REMARK  6 active torsions:
REMARK  status: ('A' for Active; 'I' for Inactive)
REMARK    1  A    between atoms: C_1  and  O_2
REMARK    2  A    between atoms: O_2  and  C_3
REMARK    3  A    between atoms: C_5  and  C_6
REMARK    4  A    between atoms: C_8  and  O_9
REMARK    5  A    between atoms: C_10  and  O_11
REMARK    6  A    between atoms: C_12  and  O_13
REMARK                            x       y       z     vdW  Elec       q    Type
REMARK                         _______ _______ _______ _____ _____    ______ ____
ROOT
ATOM      1  C   UNL     1       4.195   5.082  18.710  0.00  0.00    +0.000 C 
ATOM      2  O   UNL     1       3.153   4.895  19.678  0.00  0.00    +0.000 OA
ATOM      3  C   UNL     1       2.046   4.128  19.173  0.00  0.00    +0.000 C 
ATOM      4  C   UNL     1       2.500   2.726  18.736  0.00  0.00    +0.000 C 
ATOM      5  C   UNL     1       3.731   2.802  17.812  0.00  0.00    +0.000 C 
ATOM      6  C   UNL     1       4.810   3.704  18.413  0.00  0.00    +0.000 C 
ENDROOT
BRANCH   1   8
ATOM      7  C   UNL     1       4.739   6.330  16.763  0.00  0.00    +0.000 C 
ATOM      8  O   UNL     1       3.725   5.653  17.494  0.00  0.00    +0.000 OA
ENDBRANCH   1   8
BRANCH   3   9
ATOM      9  C   UNL     1       0.976   4.015  20.258  0.00  0.00    +0.000 C 
ATOM     10 BR   UNL     1       1.530   2.737  21.633  0.00  0.00    +0.000 Br
ENDBRANCH   3   9
BRANCH   4  11
ATOM     11  O   UNL     1       1.404   2.051  18.099  0.00  0.00    +0.000 OA
ATOM     12  H   UNL     1       1.767   1.329  17.556  0.00  0.00    +0.000 HD
ENDBRANCH   4  11
BRANCH   5  13
ATOM     13  O   UNL     1       4.256   1.486  17.592  0.00  0.00    +0.000 OA
ATOM     14  H   UNL     1       4.792   1.538  16.775  0.00  0.00    +0.000 HD
ENDBRANCH   5  13
BRANCH   6  15
ATOM     15  O   UNL     1       5.326   3.082  19.611  0.00  0.00    +0.000 OA
ATOM     16  H   UNL     1       4.669   2.420  19.900  0.00  0.00    +0.000 HD
ENDBRANCH   6  15
TORSDOF 5
ENDMDL
MODEL 5
REMARK VINA RESULT:      -5.4      1.899      2.313
REMARK  Name = 
REMARK  6 active torsions:
REMARK  status: ('A' for Active; 'I' for Inactive)
REMARK    1  A    between atoms: C_1  and  O_2
REMARK    2  A    between atoms: O_2  and  C_3
REMARK    3  A    between atoms: C_5  and  C_6
REMARK    4  A    between atoms: C_8  and  O_9
REMARK    5  A    between atoms: C_10  and  O_11
REMARK    6  A    between atoms: C_12  and  O_13
REMARK                            x       y       z     vdW  Elec       q    Type
REMARK                         _______ _______ _______ _____ _____    ______ ____
ROOT
ATOM      1  C   UNL     1       4.767   4.540  16.334  0.00  0.00    +0.000 C 
ATOM      2  O   UNL     1       3.626   3.823  16.826  0.00  0.00    +0.000 OA
ATOM      3  C   UNL     1       3.966   2.828  17.807  0.00  0.00    +0.000 C 
ATOM      4  C   UNL     1       4.647   3.466  19.028  0.00  0.00    +0.000 C 
ATOM      5  C   UNL     1       5.799   4.397  18.599  0.00  0.00    +0.000 C 
ATOM      6  C   UNL     1       5.345   5.359  17.500  0.00  0.00    +0.000 C 
ENDROOT
BRANCH   1   8
ATOM      7  C   UNL     1       6.607   4.307  14.849  0.00  0.00    +0.000 C 
ATOM      8  O   UNL     1       5.781   3.682  15.822  0.00  0.00    +0.000 OA
ENDBRANCH   1   8
BRANCH   3   9
ATOM      9  C   UNL     1       2.697   2.096  18.242  0.00  0.00    +0.000 C 
ATOM     10 BR   UNL     1       1.358   3.372  18.883  0.00  0.00    +0.000 Br
ENDBRANCH   3   9
BRANCH   4  11
ATOM     11  O   UNL     1       5.108   2.430  19.909  0.00  0.00    +0.000 OA
ATOM     12  H   UNL     1       4.469   2.347  20.639  0.00  0.00    +0.000 HD
ENDBRANCH   4  11
BRANCH   5  13
ATOM     13  O   UNL     1       6.276   5.135  19.733  0.00  0.00    +0.000 OA
ATOM     14  H   UNL     1       7.160   5.475  19.486  0.00  0.00    +0.000 HD
ENDBRANCH   5  13
BRANCH   6  15
ATOM     15  O   UNL     1       4.364   6.267  18.050  0.00  0.00    +0.000 OA
ATOM     16  H   UNL     1       4.839   7.073  18.330  0.00  0.00    +0.000 HD
ENDBRANCH   6  15
TORSDOF 5
ENDMDL
MODEL 6
REMARK VINA RESULT:      -5.3      1.041      1.041
REMARK  Name = 
REMARK  6 active torsions:
REMARK  status: ('A' for Active; 'I' for Inactive)
REMARK    1  A    between atoms: C_1  and  O_2
REMARK    2  A    between atoms: O_2  and  C_3
REMARK    3  A    between atoms: C_5  and  C_6
REMARK    4  A    between atoms: C_8  and  O_9
REMARK    5  A    between atoms: C_10  and  O_11
REMARK    6  A    between atoms: C_12  and  O_13
REMARK                            x       y       z     vdW  Elec       q    Type
REMARK                         _______ _______ _______ _____ _____    ______ ____
ROOT
ATOM      1  C   UNL     1       6.145   5.312  15.576  0.00  0.00    +0.000 C 
ATOM      2  O   UNL     1       4.818   5.268  16.119  0.00  0.00    +0.000 OA
ATOM      3  C   UNL     1       4.646   4.232  17.103  0.00  0.00    +0.000 C 
ATOM      4  C   UNL     1       5.602   4.433  18.289  0.00  0.00    +0.000 C 
ATOM      5  C   UNL     1       7.049   4.655  17.806  0.00  0.00    +0.000 C 
ATOM      6  C   UNL     1       7.102   5.720  16.709  0.00  0.00    +0.000 C 
ENDROOT
BRANCH   1   8
ATOM      7  C   UNL     1       6.216   3.888  13.675  0.00  0.00    +0.000 C 
ATOM      8  O   UNL     1       6.566   4.062  15.041  0.00  0.00    +0.000 OA
ENDBRANCH   1   8
BRANCH   3   9
ATOM      9  C   UNL     1       3.198   4.241  17.593  0.00  0.00    +0.000 C 
ATOM     10 BR   UNL     1       2.723   6.009  18.286  0.00  0.00    +0.000 Br
ENDBRANCH   3   9
BRANCH   4  11
ATOM     11  O   UNL     1       5.509   3.302  19.168  0.00  0.00    +0.000 OA
ATOM     12  H   UNL     1       6.104   2.607  18.833  0.00  0.00    +0.000 HD
ENDBRANCH   4  11
BRANCH   5  13
ATOM     13  O   UNL     1       7.877   5.045  18.910  0.00  0.00    +0.000 OA
ATOM     14  H   UNL     1       7.315   4.979  19.709  0.00  0.00    +0.000 HD
ENDBRANCH   5  13
BRANCH   6  15
ATOM     15  O   UNL     1       6.737   6.997  17.279  0.00  0.00    +0.000 OA
ATOM     16  H   UNL     1       6.125   7.430  16.654  0.00  0.00    +0.000 HD
ENDBRANCH   6  15
TORSDOF 5
ENDMDL
MODEL 7
REMARK VINA RESULT:      -5.3      2.159      3.909
REMARK  Name = 
REMARK  6 active torsions:
REMARK  status: ('A' for Active; 'I' for Inactive)
REMARK    1  A    between atoms: C_1  and  O_2
REMARK    2  A    between atoms: O_2  and  C_3
REMARK    3  A    between atoms: C_5  and  C_6
REMARK    4  A    between atoms: C_8  and  O_9
REMARK    5  A    between atoms: C_10  and  O_11
REMARK    6  A    between atoms: C_12  and  O_13
REMARK                            x       y       z     vdW  Elec       q    Type
REMARK                         _______ _______ _______ _____ _____    ______ ____
ROOT
ATOM      1  C   UNL     1       4.042   4.180  17.705  0.00  0.00    +0.000 C 
ATOM      2  O   UNL     1       4.907   3.752  16.644  0.00  0.00    +0.000 OA
ATOM      3  C   UNL     1       5.936   4.709  16.336  0.00  0.00    +0.000 C 
ATOM      4  C   UNL     1       6.832   4.968  17.558  0.00  0.00    +0.000 C 
ATOM      5  C   UNL     1       5.988   5.281  18.810  0.00  0.00    +0.000 C 
ATOM      6  C   UNL     1       4.879   4.244  18.994  0.00  0.00    +0.000 C 
ENDROOT
BRANCH   1   8
ATOM      7  C   UNL     1       2.324   5.719  18.278  0.00  0.00    +0.000 C 
ATOM      8  O   UNL     1       3.461   5.457  17.466  0.00  0.00    +0.000 OA
ENDBRANCH   1   8
BRANCH   3   9
ATOM      9  C   UNL     1       6.779   4.183  15.174  0.00  0.00    +0.000 C 
ATOM     10 BR   UNL     1       5.662   3.912  13.589  0.00  0.00    +0.000 Br
ENDBRANCH   3   9
BRANCH   4  11
ATOM     11  O   UNL     1       7.744   6.035  17.258  0.00  0.00    +0.000 OA
ATOM     12  H   UNL     1       7.764   6.154  16.292  0.00  0.00    +0.000 HD
ENDBRANCH   4  11
BRANCH   5  13
ATOM     13  O   UNL     1       6.832   5.310  19.970  0.00  0.00    +0.000 OA
ATOM     14  H   UNL     1       7.743   5.154  19.650  0.00  0.00    +0.000 HD
ENDBRANCH   5  13
BRANCH   6  15
ATOM     15  O   UNL     1       5.479   2.966  19.303  0.00  0.00    +0.000 OA
ATOM     16  H   UNL     1       6.157   2.792  18.621  0.00  0.00    +0.000 HD
ENDBRANCH   6  15
TORSDOF 5
ENDMDL
MODEL 8
REMARK VINA RESULT:      -5.3      2.521      4.235
REMARK  Name = 
REMARK  6 active torsions:
REMARK  status: ('A' for Active; 'I' for Inactive)
REMARK    1  A    between atoms: C_1  and  O_2
REMARK    2  A    between atoms: O_2  and  C_3
REMARK    3  A    between atoms: C_5  and  C_6
REMARK    4  A    between atoms: C_8  and  O_9
REMARK    5  A    between atoms: C_10  and  O_11
REMARK    6  A    between atoms: C_12  and  O_13
REMARK                            x       y       z     vdW  Elec       q    Type
REMARK                         _______ _______ _______ _____ _____    ______ ____
ROOT
ATOM      1  C   UNL     1       4.707   4.538  19.162  0.00  0.00    +0.000 C 
ATOM      2  O   UNL     1       5.736   5.527  19.299  0.00  0.00    +0.000 OA
ATOM      3  C   UNL     1       6.944   5.184  18.597  0.00  0.00    +0.000 C 
ATOM      4  C   UNL     1       6.681   5.025  17.091  0.00  0.00    +0.000 C 
ATOM      5  C   UNL     1       5.477   4.099  16.831  0.00  0.00    +0.000 C 
ATOM      6  C   UNL     1       4.276   4.510  17.686  0.00  0.00    +0.000 C 
ENDROOT
BRANCH   1   8
ATOM      7  C   UNL     1       4.061   2.359  19.857  0.00  0.00    +0.000 C 
ATOM      8  O   UNL     1       5.135   3.235  19.545  0.00  0.00    +0.000 OA
ENDBRANCH   1   8
BRANCH   3   9
ATOM      9  C   UNL     1       7.989   6.274  18.833  0.00  0.00    +0.000 C 
ATOM     10 BR   UNL     1       7.641   7.814  17.675  0.00  0.00    +0.000 Br
ENDBRANCH   3   9
BRANCH   4  11
ATOM     11  O   UNL     1       7.870   4.535  16.453  0.00  0.00    +0.000 OA
ATOM     12  H   UNL     1       8.070   3.655  16.819  0.00  0.00    +0.000 HD
ENDBRANCH   4  11
BRANCH   5  13
ATOM     13  O   UNL     1       5.126   4.136  15.441  0.00  0.00    +0.000 OA
ATOM     14  H   UNL     1       5.049   3.204  15.154  0.00  0.00    +0.000 HD
ENDBRANCH   5  13
BRANCH   6  15
ATOM     15  O   UNL     1       3.809   5.805  17.244  0.00  0.00    +0.000 OA
ATOM     16  H   UNL     1       4.281   6.479  17.770  0.00  0.00    +0.000 HD
ENDBRANCH   6  15
TORSDOF 5
ENDMDL
MODEL 9
REMARK VINA RESULT:      -5.3      2.536      4.596
REMARK  Name = 
REMARK  6 active torsions:
REMARK  status: ('A' for Active; 'I' for Inactive)
REMARK    1  A    between atoms: C_1  and  O_2
REMARK    2  A    between atoms: O_2  and  C_3
REMARK    3  A    between atoms: C_5  and  C_6
REMARK    4  A    between atoms: C_8  and  O_9
REMARK    5  A    between atoms: C_10  and  O_11
REMARK    6  A    between atoms: C_12  and  O_13
REMARK                            x       y       z     vdW  Elec       q    Type
REMARK                         _______ _______ _______ _____ _____    ______ ____
ROOT
ATOM      1  C   UNL     1       2.462   4.423  18.592  0.00  0.00    +0.000 C 
ATOM      2  O   UNL     1       3.207   4.912  17.467  0.00  0.00    +0.000 OA
ATOM      3  C   UNL     1       4.587   5.175  17.778  0.00  0.00    +0.000 C 
ATOM      4  C   UNL     1       5.297   3.899  18.257  0.00  0.00    +0.000 C 
ATOM      5  C   UNL     1       4.490   3.196  19.367  0.00  0.00    +0.000 C 
ATOM      6  C   UNL     1       3.024   3.040  18.961  0.00  0.00    +0.000 C 
ENDROOT
BRANCH   1   8
ATOM      7  C   UNL     1       1.501   5.073  20.666  0.00  0.00    +0.000 C 
ATOM      8  O   UNL     1       2.549   5.277  19.727  0.00  0.00    +0.000 OA
ENDBRANCH   1   8
BRANCH   3   9
ATOM      9  C   UNL     1       5.285   5.724  16.534  0.00  0.00    +0.000 C 
ATOM     10 BR   UNL     1       5.574   4.297  15.226  0.00  0.00    +0.000 Br
ENDBRANCH   3   9
BRANCH   4  11
ATOM     11  O   UNL     1       6.621   4.234  18.701  0.00  0.00    +0.000 OA
ATOM     12  H   UNL     1       7.053   3.418  19.010  0.00  0.00    +0.000 HD
ENDBRANCH   4  11
BRANCH   5  13
ATOM     13  O   UNL     1       5.064   1.912  19.646  0.00  0.00    +0.000 OA
ATOM     14  H   UNL     1       4.319   1.277  19.657  0.00  0.00    +0.000 HD
ENDBRANCH   5  13
BRANCH   6  15
ATOM     15  O   UNL     1       2.943   2.119  17.849  0.00  0.00    +0.000 OA
ATOM     16  H   UNL     1       2.921   2.652  17.032  0.00  0.00    +0.000 HD
ENDBRANCH   6  15
TORSDOF 5
ENDMDL
