MODEL 1
REMARK VINA RESULT:      -7.7      0.000      0.000
REMARK  Name = 
REMARK  10 active torsions:
REMARK  status: ('A' for Active; 'I' for Inactive)
REMARK    1  A    between atoms: C_1  and  C_2
REMARK    2  A    between atoms: C_2  and  N_3
REMARK    3  A    between atoms: C_2  and  C_15
REMARK    4  A    between atoms: C_4  and  C_6
REMARK    5  A    between atoms: C_6  and  C_7
REMARK    6  A    between atoms: N_17  and  C_18
REMARK    7  A    between atoms: C_18  and  C_19
REMARK    8  A    between atoms: C_18  and  C_20
REMARK    9  A    between atoms: C_20  and  O_21
REMARK   10  A    between atoms: C_20  and  C_22
REMARK                            x       y       z     vdW  Elec       q    Type
REMARK                         _______ _______ _______ _____ _____    ______ ____
ROOT
ATOM      1  C   UNL     1       3.490   1.862  17.833  0.00  0.00    +0.000 C 
ATOM      2  C   UNL     1       3.597   3.061  16.880  0.00  0.00    +0.000 C 
ENDROOT
BRANCH   2   3
ATOM      3  N   UNL     1       4.994   3.525  16.866  0.00  0.00    +0.000 N 
ATOM      4  C   UNL     1       5.534   4.033  15.698  0.00  0.00    +0.000 C 
ATOM      5  O   UNL     1       4.871   4.206  14.675  0.00  0.00    +0.000 OA
ATOM      6  H   UNL     1       5.611   3.100  17.541  0.00  0.00    +0.000 HD
BRANCH   4   7
ATOM      7  C   UNL     1       7.020   4.358  15.749  0.00  0.00    +0.000 C 
BRANCH   7   8
ATOM      8  C   UNL     1       7.366   5.325  16.855  0.00  0.00    +0.000 A 
ATOM      9  C   UNL     1       7.309   6.710  16.641  0.00  0.00    +0.000 A 
ATOM     10  C   UNL     1       7.685   7.591  17.654  0.00  0.00    +0.000 A 
ATOM     11  F   UNL     1       7.652   8.909  17.423  0.00  0.00    +0.000 F 
ATOM     12  C   UNL     1       8.111   7.126  18.890  0.00  0.00    +0.000 A 
ATOM     13  C   UNL     1       8.142   5.757  19.109  0.00  0.00    +0.000 A 
ATOM     14  F   UNL     1       8.552   5.288  20.296  0.00  0.00    +0.000 F 
ATOM     15  C   UNL     1       7.770   4.855  18.114  0.00  0.00    +0.000 A 
ENDBRANCH   7   8
ENDBRANCH   4   7
ENDBRANCH   2   3
BRANCH   2  16
ATOM     16  C   UNL     1       2.605   4.177  17.323  0.00  0.00    +0.000 C 
ATOM     17  O   UNL     1       1.380   4.008  17.243  0.00  0.00    +0.000 OA
ATOM     18  N   UNL     1       3.162   5.315  17.877  0.00  0.00    +0.000 N 
ATOM     19  H   UNL     1       4.173   5.419  17.847  0.00  0.00    +0.000 HD
BRANCH  18  20
ATOM     20  C   UNL     1       2.412   6.447  18.473  0.00  0.00    +0.000 C 
ATOM     21  C   UNL     1       2.885   7.807  17.952  0.00  0.00    +0.000 C 
BRANCH  20  22
ATOM     22  C   UNL     1       2.455   6.408  20.052  0.00  0.00    +0.000 C 
BRANCH  22  23
ATOM     23  C   UNL     1       2.045   5.035  20.561  0.00  0.00    +0.000 A 
ATOM     24  C   UNL     1       2.998   4.242  21.227  0.00  0.00    +0.000 A 
ATOM     25  C   UNL     1       2.727   2.915  21.548  0.00  0.00    +0.000 A 
ATOM     26  C   UNL     1       1.487   2.366  21.231  0.00  0.00    +0.000 A 
ATOM     27  C   UNL     1       0.515   3.148  20.611  0.00  0.00    +0.000 A 
ATOM     28  C   UNL     1       0.788   4.476  20.284  0.00  0.00    +0.000 A 
ENDBRANCH  22  23
BRANCH  22  29
ATOM     29  O   UNL     1       1.649   7.448  20.621  0.00  0.00    +0.000 OA
ATOM     30  H   UNL     1       0.988   7.032  21.199  0.00  0.00    +0.000 HD
ENDBRANCH  22  29
ENDBRANCH  20  22
ENDBRANCH  18  20
ENDBRANCH   2  16
TORSDOF 8
ENDMDL
MODEL 2
REMARK VINA RESULT:      -7.6      0.190      1.591
REMARK  Name = 
REMARK  10 active torsions:
REMARK  status: ('A' for Active; 'I' for Inactive)
REMARK    1  A    between atoms: C_1  and  C_2
REMARK    2  A    between atoms: C_2  and  N_3
REMARK    3  A    between atoms: C_2  and  C_15
REMARK    4  A    between atoms: C_4  and  C_6
REMARK    5  A    between atoms: C_6  and  C_7
REMARK    6  A    between atoms: N_17  and  C_18
REMARK    7  A    between atoms: C_18  and  C_19
REMARK    8  A    between atoms: C_18  and  C_20
REMARK    9  A    between atoms: C_20  and  O_21
REMARK   10  A    between atoms: C_20  and  C_22
REMARK                            x       y       z     vdW  Elec       q    Type
REMARK                         _______ _______ _______ _____ _____    ______ ____
ROOT
ATOM      1  C   UNL     1       3.173   1.795  17.765  0.00  0.00    +0.000 C 
ATOM      2  C   UNL     1       3.397   2.997  16.836  0.00  0.00    +0.000 C 
ENDROOT
BRANCH   2   3
ATOM      3  N   UNL     1       4.830   3.336  16.844  0.00  0.00    +0.000 N 
ATOM      4  C   UNL     1       5.366   4.060  15.794  0.00  0.00    +0.000 C 
ATOM      5  O   UNL     1       4.682   4.525  14.883  0.00  0.00    +0.000 OA
ATOM      6  H   UNL     1       5.431   2.713  17.361  0.00  0.00    +0.000 HD
BRANCH   4   7
ATOM      7  C   UNL     1       6.878   4.241  15.827  0.00  0.00    +0.000 C 
BRANCH   7   8
ATOM      8  C   UNL     1       7.322   5.229  16.879  0.00  0.00    +0.000 A 
ATOM      9  C   UNL     1       7.759   4.789  18.137  0.00  0.00    +0.000 A 
ATOM     10  C   UNL     1       8.113   5.714  19.118  0.00  0.00    +0.000 A 
ATOM     11  F   UNL     1       8.501   5.277  20.322  0.00  0.00    +0.000 F 
ATOM     12  C   UNL     1       8.052   7.078  18.875  0.00  0.00    +0.000 A 
ATOM     13  C   UNL     1       7.645   7.512  17.622  0.00  0.00    +0.000 A 
ATOM     14  F   UNL     1       7.577   8.826  17.369  0.00  0.00    +0.000 F 
ATOM     15  C   UNL     1       7.286   6.608  16.624  0.00  0.00    +0.000 A 
ENDBRANCH   7   8
ENDBRANCH   4   7
ENDBRANCH   2   3
BRANCH   2  16
ATOM     16  C   UNL     1       2.503   4.189  17.291  0.00  0.00    +0.000 C 
ATOM     17  O   UNL     1       1.267   4.106  17.259  0.00  0.00    +0.000 OA
ATOM     18  N   UNL     1       3.159   5.294  17.801  0.00  0.00    +0.000 N 
ATOM     19  H   UNL     1       4.173   5.325  17.732  0.00  0.00    +0.000 HD
BRANCH  18  20
ATOM     20  C   UNL     1       2.514   6.488  18.399  0.00  0.00    +0.000 C 
ATOM     21  C   UNL     1       3.099   7.801  17.874  0.00  0.00    +0.000 C 
BRANCH  20  22
ATOM     22  C   UNL     1       2.563   6.446  19.979  0.00  0.00    +0.000 C 
BRANCH  22  23
ATOM     23  C   UNL     1       2.177   5.066  20.486  0.00  0.00    +0.000 A 
ATOM     24  C   UNL     1       3.183   4.218  20.986  0.00  0.00    +0.000 A 
ATOM     25  C   UNL     1       2.912   2.887  21.291  0.00  0.00    +0.000 A 
ATOM     26  C   UNL     1       1.621   2.389  21.125  0.00  0.00    +0.000 A 
ATOM     27  C   UNL     1       0.603   3.224  20.672  0.00  0.00    +0.000 A 
ATOM     28  C   UNL     1       0.876   4.557  20.361  0.00  0.00    +0.000 A 
ENDBRANCH  22  23
BRANCH  22  29
ATOM     29  O   UNL     1       1.742   7.472  20.552  0.00  0.00    +0.000 OA
ATOM     30  H   UNL     1       1.510   7.199  21.455  0.00  0.00    +0.000 HD
ENDBRANCH  22  29
ENDBRANCH  20  22
ENDBRANCH  18  20
ENDBRANCH   2  16
TORSDOF 8
ENDMDL
MODEL 3
REMARK VINA RESULT:      -7.5      3.716      5.315
REMARK  Name = 
REMARK  10 active torsions:
REMARK  status: ('A' for Active; 'I' for Inactive)
REMARK    1  A    between atoms: C_1  and  C_2
REMARK    2  A    between atoms: C_2  and  N_3
REMARK    3  A    between atoms: C_2  and  C_15
REMARK    4  A    between atoms: C_4  and  C_6
REMARK    5  A    between atoms: C_6  and  C_7
REMARK    6  A    between atoms: N_17  and  C_18
REMARK    7  A    between atoms: C_18  and  C_19
REMARK    8  A    between atoms: C_18  and  C_20
REMARK    9  A    between atoms: C_20  and  O_21
REMARK   10  A    between atoms: C_20  and  C_22
REMARK                            x       y       z     vdW  Elec       q    Type
REMARK                         _______ _______ _______ _____ _____    ______ ____
ROOT
ATOM      1  C   UNL     1       7.735   7.202  17.828  0.00  0.00    +0.000 C 
ATOM      2  C   UNL     1       7.317   5.852  17.228  0.00  0.00    +0.000 C 
ENDROOT
BRANCH   2   3
ATOM      3  N   UNL     1       7.259   5.988  15.763  0.00  0.00    +0.000 N 
ATOM      4  C   UNL     1       7.052   4.866  14.981  0.00  0.00    +0.000 C 
ATOM      5  O   UNL     1       6.818   3.754  15.454  0.00  0.00    +0.000 OA
ATOM      6  H   UNL     1       7.760   6.770  15.369  0.00  0.00    +0.000 HD
BRANCH   4   7
ATOM      7  C   UNL     1       7.144   5.089  13.477  0.00  0.00    +0.000 C 
BRANCH   7   8
ATOM      8  C   UNL     1       6.476   3.992  12.685  0.00  0.00    +0.000 A 
ATOM      9  C   UNL     1       7.235   2.973  12.089  0.00  0.00    +0.000 A 
ATOM     10  C   UNL     1       6.610   1.998  11.313  0.00  0.00    +0.000 A 
ATOM     11  F   UNL     1       7.352   1.050  10.729  0.00  0.00    +0.000 F 
ATOM     12  C   UNL     1       5.236   2.003  11.120  0.00  0.00    +0.000 A 
ATOM     13  C   UNL     1       4.484   2.995  11.731  0.00  0.00    +0.000 A 
ATOM     14  F   UNL     1       3.156   3.019  11.555  0.00  0.00    +0.000 F 
ATOM     15  C   UNL     1       5.084   3.981  12.512  0.00  0.00    +0.000 A 
ENDBRANCH   7   8
ENDBRANCH   4   7
ENDBRANCH   2   3
BRANCH   2  16
ATOM     16  C   UNL     1       5.955   5.403  17.837  0.00  0.00    +0.000 C 
ATOM     17  O   UNL     1       5.848   5.163  19.047  0.00  0.00    +0.000 OA
ATOM     18  N   UNL     1       4.874   5.370  16.976  0.00  0.00    +0.000 N 
ATOM     19  H   UNL     1       5.046   5.509  15.983  0.00  0.00    +0.000 HD
BRANCH  18  20
ATOM     20  C   UNL     1       3.468   5.090  17.356  0.00  0.00    +0.000 C 
ATOM     21  C   UNL     1       2.992   5.950  18.530  0.00  0.00    +0.000 C 
BRANCH  20  22
ATOM     22  C   UNL     1       3.241   3.556  17.659  0.00  0.00    +0.000 C 
BRANCH  22  23
ATOM     23  C   UNL     1       2.608   3.374  19.030  0.00  0.00    +0.000 A 
ATOM     24  C   UNL     1       3.415   2.948  20.102  0.00  0.00    +0.000 A 
ATOM     25  C   UNL     1       2.852   2.593  21.324  0.00  0.00    +0.000 A 
ATOM     26  C   UNL     1       1.474   2.684  21.504  0.00  0.00    +0.000 A 
ATOM     27  C   UNL     1       0.663   3.145  20.469  0.00  0.00    +0.000 A 
ATOM     28  C   UNL     1       1.227   3.495  19.241  0.00  0.00    +0.000 A 
ENDBRANCH  22  23
BRANCH  22  29
ATOM     29  O   UNL     1       4.461   2.814  17.534  0.00  0.00    +0.000 OA
ATOM     30  H   UNL     1       5.120   3.392  17.112  0.00  0.00    +0.000 HD
ENDBRANCH  22  29
ENDBRANCH  20  22
ENDBRANCH  18  20
ENDBRANCH   2  16
TORSDOF 8
ENDMDL
MODEL 4
REMARK VINA RESULT:      -7.4      3.745      5.098
REMARK  Name = 
REMARK  10 active torsions:
REMARK  status: ('A' for Active; 'I' for Inactive)
REMARK    1  A    between atoms: C_1  and  C_2
REMARK    2  A    between atoms: C_2  and  N_3
REMARK    3  A    between atoms: C_2  and  C_15
REMARK    4  A    between atoms: C_4  and  C_6
REMARK    5  A    between atoms: C_6  and  C_7
REMARK    6  A    between atoms: N_17  and  C_18
REMARK    7  A    between atoms: C_18  and  C_19
REMARK    8  A    between atoms: C_18  and  C_20
REMARK    9  A    between atoms: C_20  and  O_21
REMARK   10  A    between atoms: C_20  and  C_22
REMARK                            x       y       z     vdW  Elec       q    Type
REMARK                         _______ _______ _______ _____ _____    ______ ____
ROOT
ATOM      1  C   UNL     1       7.607   7.127  17.421  0.00  0.00    +0.000 C 
ATOM      2  C   UNL     1       6.689   6.061  16.807  0.00  0.00    +0.000 C 
ENDROOT
BRANCH   2   3
ATOM      3  N   UNL     1       7.062   5.878  15.394  0.00  0.00    +0.000 N 
ATOM      4  C   UNL     1       6.733   4.701  14.748  0.00  0.00    +0.000 C 
ATOM      5  O   UNL     1       6.053   3.818  15.270  0.00  0.00    +0.000 OA
ATOM      6  H   UNL     1       7.864   6.400  15.076  0.00  0.00    +0.000 HD
BRANCH   4   7
ATOM      7  C   UNL     1       7.280   4.554  13.334  0.00  0.00    +0.000 C 
BRANCH   7   8
ATOM      8  C   UNL     1       6.434   3.645  12.475  0.00  0.00    +0.000 A 
ATOM      9  C   UNL     1       5.117   3.995  12.142  0.00  0.00    +0.000 A 
ATOM     10  C   UNL     1       4.328   3.121  11.395  0.00  0.00    +0.000 A 
ATOM     11  F   UNL     1       3.065   3.459  11.110  0.00  0.00    +0.000 F 
ATOM     12  C   UNL     1       4.823   1.900  10.959  0.00  0.00    +0.000 A 
ATOM     13  C   UNL     1       6.134   1.567  11.267  0.00  0.00    +0.000 A 
ATOM     14  F   UNL     1       6.629   0.391  10.856  0.00  0.00    +0.000 F 
ATOM     15  C   UNL     1       6.943   2.423  12.011  0.00  0.00    +0.000 A 
ENDBRANCH   7   8
ENDBRANCH   4   7
ENDBRANCH   2   3
BRANCH   2  16
ATOM     16  C   UNL     1       5.200   6.483  16.978  0.00  0.00    +0.000 C 
ATOM     17  O   UNL     1       4.570   6.987  16.038  0.00  0.00    +0.000 OA
ATOM     18  N   UNL     1       4.610   6.191  18.194  0.00  0.00    +0.000 N 
ATOM     19  H   UNL     1       5.202   5.843  18.944  0.00  0.00    +0.000 HD
BRANCH  18  20
ATOM     20  C   UNL     1       3.181   6.391  18.537  0.00  0.00    +0.000 C 
ATOM     21  C   UNL     1       2.751   7.858  18.444  0.00  0.00    +0.000 C 
BRANCH  20  22
ATOM     22  C   UNL     1       2.834   5.796  19.959  0.00  0.00    +0.000 C 
BRANCH  22  23
ATOM     23  C   UNL     1       2.390   4.347  19.834  0.00  0.00    +0.000 A 
ATOM     24  C   UNL     1       3.361   3.353  19.612  0.00  0.00    +0.000 A 
ATOM     25  C   UNL     1       2.992   2.045  19.311  0.00  0.00    +0.000 A 
ATOM     26  C   UNL     1       1.643   1.704  19.254  0.00  0.00    +0.000 A 
ATOM     27  C   UNL     1       0.667   2.663  19.513  0.00  0.00    +0.000 A 
ATOM     28  C   UNL     1       1.038   3.976  19.810  0.00  0.00    +0.000 A 
ENDBRANCH  22  23
BRANCH  22  29
ATOM     29  O   UNL     1       1.855   6.597  20.634  0.00  0.00    +0.000 OA
ATOM     30  H   UNL     1       1.791   7.447  20.167  0.00  0.00    +0.000 HD
ENDBRANCH  22  29
ENDBRANCH  20  22
ENDBRANCH  18  20
ENDBRANCH   2  16
TORSDOF 8
ENDMDL
MODEL 5
REMARK VINA RESULT:      -7.2      4.448      6.358
REMARK  Name = 
REMARK  10 active torsions:
REMARK  status: ('A' for Active; 'I' for Inactive)
REMARK    1  A    between atoms: C_1  and  C_2
REMARK    2  A    between atoms: C_2  and  N_3
REMARK    3  A    between atoms: C_2  and  C_15
REMARK    4  A    between atoms: C_4  and  C_6
REMARK    5  A    between atoms: C_6  and  C_7
REMARK    6  A    between atoms: N_17  and  C_18
REMARK    7  A    between atoms: C_18  and  C_19
REMARK    8  A    between atoms: C_18  and  C_20
REMARK    9  A    between atoms: C_20  and  O_21
REMARK   10  A    between atoms: C_20  and  C_22
REMARK                            x       y       z     vdW  Elec       q    Type
REMARK                         _______ _______ _______ _____ _____    ______ ____
ROOT
ATOM      1  C   UNL     1       1.617   8.454  21.761  0.00  0.00    +0.000 C 
ATOM      2  C   UNL     1       1.417   7.888  20.348  0.00  0.00    +0.000 C 
ENDROOT
BRANCH   2   3
ATOM      3  N   UNL     1       2.547   6.998  20.035  0.00  0.00    +0.000 N 
ATOM      4  C   UNL     1       2.352   5.629  20.006  0.00  0.00    +0.000 C 
ATOM      5  O   UNL     1       1.244   5.108  20.139  0.00  0.00    +0.000 OA
ATOM      6  H   UNL     1       3.466   7.353  20.254  0.00  0.00    +0.000 HD
BRANCH   4   7
ATOM      7  C   UNL     1       3.608   4.791  19.808  0.00  0.00    +0.000 C 
BRANCH   7   8
ATOM      8  C   UNL     1       4.602   5.445  18.880  0.00  0.00    +0.000 A 
ATOM      9  C   UNL     1       4.198   5.951  17.636  0.00  0.00    +0.000 A 
ATOM     10  C   UNL     1       5.137   6.502  16.765  0.00  0.00    +0.000 A 
ATOM     11  F   UNL     1       4.737   6.954  15.571  0.00  0.00    +0.000 F 
ATOM     12  C   UNL     1       6.479   6.572  17.107  0.00  0.00    +0.000 A 
ATOM     13  C   UNL     1       6.874   6.096  18.348  0.00  0.00    +0.000 A 
ATOM     14  F   UNL     1       8.168   6.153  18.695  0.00  0.00    +0.000 F 
ATOM     15  C   UNL     1       5.956   5.541  19.236  0.00  0.00    +0.000 A 
ENDBRANCH   7   8
ENDBRANCH   4   7
ENDBRANCH   2   3
BRANCH   2  16
ATOM     16  C   UNL     1       1.279   9.055  19.326  0.00  0.00    +0.000 C 
ATOM     17  O   UNL     1       1.926   9.054  18.269  0.00  0.00    +0.000 OA
ATOM     18  N   UNL     1       0.348  10.032  19.625  0.00  0.00    +0.000 N 
ATOM     19  H   UNL     1      -0.096  10.010  20.540  0.00  0.00    +0.000 HD
BRANCH  18  20
ATOM     20  C   UNL     1      -0.035  11.164  18.748  0.00  0.00    +0.000 C 
ATOM     21  C   UNL     1       0.912  12.360  18.879  0.00  0.00    +0.000 C 
BRANCH  20  22
ATOM     22  C   UNL     1      -1.533  11.608  18.989  0.00  0.00    +0.000 C 
BRANCH  22  23
ATOM     23  C   UNL     1      -2.424  11.103  17.865  0.00  0.00    +0.000 A 
ATOM     24  C   UNL     1      -1.889  10.206  16.922  0.00  0.00    +0.000 A 
ATOM     25  C   UNL     1      -2.603   9.859  15.778  0.00  0.00    +0.000 A 
ATOM     26  C   UNL     1      -3.877  10.383  15.573  0.00  0.00    +0.000 A 
ATOM     27  C   UNL     1      -4.441  11.238  16.517  0.00  0.00    +0.000 A 
ATOM     28  C   UNL     1      -3.723  11.590  17.660  0.00  0.00    +0.000 A 
ENDBRANCH  22  23
BRANCH  22  29
ATOM     29  O   UNL     1      -1.635  13.029  19.152  0.00  0.00    +0.000 OA
ATOM     30  H   UNL     1      -1.207  13.449  18.387  0.00  0.00    +0.000 HD
ENDBRANCH  22  29
ENDBRANCH  20  22
ENDBRANCH  18  20
ENDBRANCH   2  16
TORSDOF 8
ENDMDL
MODEL 6
REMARK VINA RESULT:      -7.2      4.432      6.456
REMARK  Name = 
REMARK  10 active torsions:
REMARK  status: ('A' for Active; 'I' for Inactive)
REMARK    1  A    between atoms: C_1  and  C_2
REMARK    2  A    between atoms: C_2  and  N_3
REMARK    3  A    between atoms: C_2  and  C_15
REMARK    4  A    between atoms: C_4  and  C_6
REMARK    5  A    between atoms: C_6  and  C_7
REMARK    6  A    between atoms: N_17  and  C_18
REMARK    7  A    between atoms: C_18  and  C_19
REMARK    8  A    between atoms: C_18  and  C_20
REMARK    9  A    between atoms: C_20  and  O_21
REMARK   10  A    between atoms: C_20  and  C_22
REMARK                            x       y       z     vdW  Elec       q    Type
REMARK                         _______ _______ _______ _____ _____    ______ ____
ROOT
ATOM      1  C   UNL     1       1.614   8.471  21.830  0.00  0.00    +0.000 C 
ATOM      2  C   UNL     1       1.457   7.871  20.425  0.00  0.00    +0.000 C 
ENDROOT
BRANCH   2   3
ATOM      3  N   UNL     1       2.610   6.995  20.158  0.00  0.00    +0.000 N 
ATOM      4  C   UNL     1       2.410   5.638  19.978  0.00  0.00    +0.000 C 
ATOM      5  O   UNL     1       1.291   5.127  19.935  0.00  0.00    +0.000 OA
ATOM      6  H   UNL     1       3.500   7.312  20.511  0.00  0.00    +0.000 HD
BRANCH   4   7
ATOM      7  C   UNL     1       3.674   4.801  19.844  0.00  0.00    +0.000 C 
BRANCH   7   8
ATOM      8  C   UNL     1       4.674   5.406  18.888  0.00  0.00    +0.000 A 
ATOM      9  C   UNL     1       6.026   5.523  19.244  0.00  0.00    +0.000 A 
ATOM     10  C   UNL     1       6.928   6.135  18.375  0.00  0.00    +0.000 A 
ATOM     11  F   UNL     1       8.208   6.263  18.742  0.00  0.00    +0.000 F 
ATOM     12  C   UNL     1       6.518   6.631  17.146  0.00  0.00    +0.000 A 
ATOM     13  C   UNL     1       5.187   6.492  16.784  0.00  0.00    +0.000 A 
ATOM     14  F   UNL     1       4.771   6.967  15.602  0.00  0.00    +0.000 F 
ATOM     15  C   UNL     1       4.265   5.883  17.634  0.00  0.00    +0.000 A 
ENDBRANCH   7   8
ENDBRANCH   4   7
ENDBRANCH   2   3
BRANCH   2  16
ATOM     16  C   UNL     1       1.323   9.013  19.374  0.00  0.00    +0.000 C 
ATOM     17  O   UNL     1       1.957   8.975  18.311  0.00  0.00    +0.000 OA
ATOM     18  N   UNL     1       0.409  10.010  19.658  0.00  0.00    +0.000 N 
ATOM     19  H   UNL     1      -0.024  10.018  20.578  0.00  0.00    +0.000 HD
BRANCH  18  20
ATOM     20  C   UNL     1       0.031  11.124  18.755  0.00  0.00    +0.000 C 
ATOM     21  C   UNL     1       1.016  12.295  18.817  0.00  0.00    +0.000 C 
BRANCH  20  22
ATOM     22  C   UNL     1      -1.445  11.621  19.029  0.00  0.00    +0.000 C 
BRANCH  22  23
ATOM     23  C   UNL     1      -2.382  11.125  17.938  0.00  0.00    +0.000 A 
ATOM     24  C   UNL     1      -1.892  10.221  16.978  0.00  0.00    +0.000 A 
ATOM     25  C   UNL     1      -2.651   9.881  15.862  0.00  0.00    +0.000 A 
ATOM     26  C   UNL     1      -3.925  10.420  15.702  0.00  0.00    +0.000 A 
ATOM     27  C   UNL     1      -4.445  11.282  16.664  0.00  0.00    +0.000 A 
ATOM     28  C   UNL     1      -3.682  11.627  17.780  0.00  0.00    +0.000 A 
ENDBRANCH  22  23
BRANCH  22  29
ATOM     29  O   UNL     1      -1.497  13.047  19.168  0.00  0.00    +0.000 OA
ATOM     30  H   UNL     1      -0.626  13.348  19.476  0.00  0.00    +0.000 HD
ENDBRANCH  22  29
ENDBRANCH  20  22
ENDBRANCH  18  20
ENDBRANCH   2  16
TORSDOF 8
ENDMDL
MODEL 7
REMARK VINA RESULT:      -7.1      3.457      4.878
REMARK  Name = 
REMARK  10 active torsions:
REMARK  status: ('A' for Active; 'I' for Inactive)
REMARK    1  A    between atoms: C_1  and  C_2
REMARK    2  A    between atoms: C_2  and  N_3
REMARK    3  A    between atoms: C_2  and  C_15
REMARK    4  A    between atoms: C_4  and  C_6
REMARK    5  A    between atoms: C_6  and  C_7
REMARK    6  A    between atoms: N_17  and  C_18
REMARK    7  A    between atoms: C_18  and  C_19
REMARK    8  A    between atoms: C_18  and  C_20
REMARK    9  A    between atoms: C_20  and  O_21
REMARK   10  A    between atoms: C_20  and  C_22
REMARK                            x       y       z     vdW  Elec       q    Type
REMARK                         _______ _______ _______ _____ _____    ______ ____
ROOT
ATOM      1  C   UNL     1       7.508   5.502  18.132  0.00  0.00    +0.000 C 
ATOM      2  C   UNL     1       6.790   4.427  17.305  0.00  0.00    +0.000 C 
ENDROOT
BRANCH   2   3
ATOM      3  N   UNL     1       7.347   4.434  15.942  0.00  0.00    +0.000 N 
ATOM      4  C   UNL     1       6.823   5.294  14.994  0.00  0.00    +0.000 C 
ATOM      5  O   UNL     1       5.963   6.135  15.256  0.00  0.00    +0.000 OA
ATOM      6  H   UNL     1       7.778   3.576  15.633  0.00  0.00    +0.000 HD
BRANCH   4   7
ATOM      7  C   UNL     1       7.373   5.130  13.584  0.00  0.00    +0.000 C 
BRANCH   7   8
ATOM      8  C   UNL     1       6.649   4.065  12.798  0.00  0.00    +0.000 A 
ATOM      9  C   UNL     1       7.360   3.045  12.147  0.00  0.00    +0.000 A 
ATOM     10  C   UNL     1       6.682   2.100  11.378  0.00  0.00    +0.000 A 
ATOM     11  F   UNL     1       7.378   1.151  10.741  0.00  0.00    +0.000 F 
ATOM     12  C   UNL     1       5.301   2.137  11.245  0.00  0.00    +0.000 A 
ATOM     13  C   UNL     1       4.597   3.130  11.910  0.00  0.00    +0.000 A 
ATOM     14  F   UNL     1       3.263   3.184  11.792  0.00  0.00    +0.000 F 
ATOM     15  C   UNL     1       5.251   4.086  12.685  0.00  0.00    +0.000 A 
ENDBRANCH   7   8
ENDBRANCH   4   7
ENDBRANCH   2   3
BRANCH   2  16
ATOM     16  C   UNL     1       5.254   4.687  17.319  0.00  0.00    +0.000 C 
ATOM     17  O   UNL     1       4.460   3.828  16.911  0.00  0.00    +0.000 OA
ATOM     18  N   UNL     1       4.834   5.878  17.880  0.00  0.00    +0.000 N 
ATOM     19  H   UNL     1       5.540   6.568  18.129  0.00  0.00    +0.000 HD
BRANCH  18  20
ATOM     20  C   UNL     1       3.426   6.283  18.108  0.00  0.00    +0.000 C 
ATOM     21  C   UNL     1       3.109   7.668  17.536  0.00  0.00    +0.000 C 
BRANCH  20  22
ATOM     22  C   UNL     1       3.038   6.208  19.638  0.00  0.00    +0.000 C 
BRANCH  22  23
ATOM     23  C   UNL     1       2.536   4.817  19.991  0.00  0.00    +0.000 A 
ATOM     24  C   UNL     1       1.287   4.398  19.496  0.00  0.00    +0.000 A 
ATOM     25  C   UNL     1       0.704   3.213  19.936  0.00  0.00    +0.000 A 
ATOM     26  C   UNL     1       1.374   2.413  20.859  0.00  0.00    +0.000 A 
ATOM     27  C   UNL     1       2.631   2.790  21.327  0.00  0.00    +0.000 A 
ATOM     28  C   UNL     1       3.212   3.980  20.891  0.00  0.00    +0.000 A 
ENDBRANCH  22  23
BRANCH  22  29
ATOM     29  O   UNL     1       2.085   7.222  19.983  0.00  0.00    +0.000 OA
ATOM     30  H   UNL     1       2.113   7.343  20.948  0.00  0.00    +0.000 HD
ENDBRANCH  22  29
ENDBRANCH  20  22
ENDBRANCH  18  20
ENDBRANCH   2  16
TORSDOF 8
ENDMDL
MODEL 8
REMARK VINA RESULT:      -7.0      3.527      4.823
REMARK  Name = 
REMARK  10 active torsions:
REMARK  status: ('A' for Active; 'I' for Inactive)
REMARK    1  A    between atoms: C_1  and  C_2
REMARK    2  A    between atoms: C_2  and  N_3
REMARK    3  A    between atoms: C_2  and  C_15
REMARK    4  A    between atoms: C_4  and  C_6
REMARK    5  A    between atoms: C_6  and  C_7
REMARK    6  A    between atoms: N_17  and  C_18
REMARK    7  A    between atoms: C_18  and  C_19
REMARK    8  A    between atoms: C_18  and  C_20
REMARK    9  A    between atoms: C_20  and  O_21
REMARK   10  A    between atoms: C_20  and  C_22
REMARK                            x       y       z     vdW  Elec       q    Type
REMARK                         _______ _______ _______ _____ _____    ______ ____
ROOT
ATOM      1  C   UNL     1       7.822   6.138  18.444  0.00  0.00    +0.000 C 
ATOM      2  C   UNL     1       7.148   6.615  17.149  0.00  0.00    +0.000 C 
ENDROOT
BRANCH   2   3
ATOM      3  N   UNL     1       7.260   8.081  17.075  0.00  0.00    +0.000 N 
ATOM      4  C   UNL     1       8.054   8.753  17.988  0.00  0.00    +0.000 C 
ATOM      5  O   UNL     1       8.757   8.174  18.816  0.00  0.00    +0.000 OA
ATOM      6  H   UNL     1       6.479   8.566  16.661  0.00  0.00    +0.000 HD
BRANCH   4   7
ATOM      7  C   UNL     1       7.996  10.272  17.914  0.00  0.00    +0.000 C 
BRANCH   7   8
ATOM      8  C   UNL     1       9.212  10.930  18.520  0.00  0.00    +0.000 A 
ATOM      9  C   UNL     1       9.308  11.122  19.907  0.00  0.00    +0.000 A 
ATOM     10  C   UNL     1      10.410  11.782  20.448  0.00  0.00    +0.000 A 
ATOM     11  F   UNL     1      10.472  11.981  21.769  0.00  0.00    +0.000 F 
ATOM     12  C   UNL     1      11.435  12.251  19.639  0.00  0.00    +0.000 A 
ATOM     13  C   UNL     1      11.353  12.037  18.271  0.00  0.00    +0.000 A 
ATOM     14  F   UNL     1      12.332  12.486  17.474  0.00  0.00    +0.000 F 
ATOM     15  C   UNL     1      10.262  11.381  17.706  0.00  0.00    +0.000 A 
ENDBRANCH   7   8
ENDBRANCH   4   7
ENDBRANCH   2   3
BRANCH   2  16
ATOM     16  C   UNL     1       5.668   6.131  17.115  0.00  0.00    +0.000 C 
ATOM     17  O   UNL     1       5.327   5.178  16.401  0.00  0.00    +0.000 OA
ATOM     18  N   UNL     1       4.791   6.763  17.976  0.00  0.00    +0.000 N 
ATOM     19  H   UNL     1       5.119   7.583  18.481  0.00  0.00    +0.000 HD
BRANCH  18  20
ATOM     20  C   UNL     1       3.373   6.391  18.199  0.00  0.00    +0.000 C 
ATOM     21  C   UNL     1       2.408   7.547  17.919  0.00  0.00    +0.000 C 
BRANCH  20  22
ATOM     22  C   UNL     1       3.143   5.812  19.651  0.00  0.00    +0.000 C 
BRANCH  22  23
ATOM     23  C   UNL     1       2.645   4.377  19.577  0.00  0.00    +0.000 A 
ATOM     24  C   UNL     1       3.217   3.505  18.632  0.00  0.00    +0.000 A 
ATOM     25  C   UNL     1       2.675   2.244  18.402  0.00  0.00    +0.000 A 
ATOM     26  C   UNL     1       1.567   1.823  19.133  0.00  0.00    +0.000 A 
ATOM     27  C   UNL     1       1.014   2.654  20.104  0.00  0.00    +0.000 A 
ATOM     28  C   UNL     1       1.554   3.921  20.331  0.00  0.00    +0.000 A 
ENDBRANCH  22  23
BRANCH  22  29
ATOM     29  O   UNL     1       2.256   6.644  20.410  0.00  0.00    +0.000 OA
ATOM     30  H   UNL     1       2.707   6.885  21.237  0.00  0.00    +0.000 HD
ENDBRANCH  22  29
ENDBRANCH  20  22
ENDBRANCH  18  20
ENDBRANCH   2  16
TORSDOF 8
ENDMDL
MODEL 9
REMARK VINA RESULT:      -7.0      4.914      8.427
REMARK  Name = 
REMARK  10 active torsions:
REMARK  status: ('A' for Active; 'I' for Inactive)
REMARK    1  A    between atoms: C_1  and  C_2
REMARK    2  A    between atoms: C_2  and  N_3
REMARK    3  A    between atoms: C_2  and  C_15
REMARK    4  A    between atoms: C_4  and  C_6
REMARK    5  A    between atoms: C_6  and  C_7
REMARK    6  A    between atoms: N_17  and  C_18
REMARK    7  A    between atoms: C_18  and  C_19
REMARK    8  A    between atoms: C_18  and  C_20
REMARK    9  A    between atoms: C_20  and  O_21
REMARK   10  A    between atoms: C_20  and  C_22
REMARK                            x       y       z     vdW  Elec       q    Type
REMARK                         _______ _______ _______ _____ _____    ______ ____
ROOT
ATOM      1  C   UNL     1       0.141   8.149  21.546  0.00  0.00    +0.000 C 
ATOM      2  C   UNL     1       1.402   8.364  20.697  0.00  0.00    +0.000 C 
ENDROOT
BRANCH   2   3
ATOM      3  N   UNL     1       1.083   9.310  19.614  0.00  0.00    +0.000 N 
ATOM      4  C   UNL     1       0.793  10.627  19.921  0.00  0.00    +0.000 C 
ATOM      5  O   UNL     1       0.880  11.084  21.060  0.00  0.00    +0.000 OA
ATOM      6  H   UNL     1       0.692   8.909  18.775  0.00  0.00    +0.000 HD
BRANCH   4   7
ATOM      7  C   UNL     1       0.344  11.489  18.749  0.00  0.00    +0.000 C 
BRANCH   7   8
ATOM      8  C   UNL     1      -1.111  11.286  18.402  0.00  0.00    +0.000 A 
ATOM      9  C   UNL     1      -2.115  12.006  19.068  0.00  0.00    +0.000 A 
ATOM     10  C   UNL     1      -3.457  11.768  18.778  0.00  0.00    +0.000 A 
ATOM     11  F   UNL     1      -4.402  12.444  19.441  0.00  0.00    +0.000 F 
ATOM     12  C   UNL     1      -3.832  10.829  17.827  0.00  0.00    +0.000 A 
ATOM     13  C   UNL     1      -2.838  10.136  17.151  0.00  0.00    +0.000 A 
ATOM     14  F   UNL     1      -3.180   9.224  16.231  0.00  0.00    +0.000 F 
ATOM     15  C   UNL     1      -1.489  10.357  17.422  0.00  0.00    +0.000 A 
ENDBRANCH   7   8
ENDBRANCH   4   7
ENDBRANCH   2   3
BRANCH   2  16
ATOM     16  C   UNL     1       1.916   6.996  20.158  0.00  0.00    +0.000 C 
ATOM     17  O   UNL     1       1.836   5.971  20.848  0.00  0.00    +0.000 OA
ATOM     18  N   UNL     1       2.382   6.980  18.856  0.00  0.00    +0.000 N 
ATOM     19  H   UNL     1       2.487   7.869  18.372  0.00  0.00    +0.000 HD
BRANCH  18  20
ATOM     20  C   UNL     1       2.806   5.777  18.100  0.00  0.00    +0.000 C 
ATOM     21  C   UNL     1       1.663   4.781  17.887  0.00  0.00    +0.000 C 
BRANCH  20  22
ATOM     22  C   UNL     1       4.046   5.070  18.777  0.00  0.00    +0.000 C 
BRANCH  22  23
ATOM     23  C   UNL     1       5.187   4.931  17.781  0.00  0.00    +0.000 A 
ATOM     24  C   UNL     1       4.884   4.750  16.419  0.00  0.00    +0.000 A 
ATOM     25  C   UNL     1       5.881   4.437  15.499  0.00  0.00    +0.000 A 
ATOM     26  C   UNL     1       7.203   4.327  15.923  0.00  0.00    +0.000 A 
ATOM     27  C   UNL     1       7.529   4.546  17.260  0.00  0.00    +0.000 A 
ATOM     28  C   UNL     1       6.528   4.853  18.183  0.00  0.00    +0.000 A 
ENDBRANCH  22  23
BRANCH  22  29
ATOM     29  O   UNL     1       3.678   3.806  19.345  0.00  0.00    +0.000 OA
ATOM     30  H   UNL     1       3.428   3.213  18.616  0.00  0.00    +0.000 HD
ENDBRANCH  22  29
ENDBRANCH  20  22
ENDBRANCH  18  20
ENDBRANCH   2  16
TORSDOF 8
ENDMDL
