MODEL 1
REMARK VINA RESULT:      -9.3      0.000      0.000
REMARK  Name = 
REMARK  7 active torsions:
REMARK  status: ('A' for Active; 'I' for Inactive)
REMARK    1  A    between atoms: C_1  and  C_2
REMARK    2  A    between atoms: C_2  and  O_3
REMARK    3  A    between atoms: O_3  and  C_4
REMARK    4  A    between atoms: C_7  and  C_8
REMARK    5  A    between atoms: C_11  and  C_12
REMARK    6  A    between atoms: C_15  and  C_16
REMARK    7  A    between atoms: C_16  and  C_17
REMARK                            x       y       z     vdW  Elec       q    Type
REMARK                         _______ _______ _______ _____ _____    ______ ____
ROOT
ATOM      1  C   UNL     1       3.107   6.116  18.798  0.00  0.00    +0.000 A 
ATOM      2  N   UNL     1       3.830   5.461  19.721  0.00  0.00    +0.000 NA
ATOM      3  O   UNL     1       4.375   4.387  19.029  0.00  0.00    +0.000 OA
ATOM      4  C   UNL     1       3.933   4.473  17.739  0.00  0.00    +0.000 A 
ATOM      5  N   UNL     1       3.159   5.530  17.541  0.00  0.00    +0.000 NA
ENDROOT
BRANCH   1   9
ATOM      6  C   UNL     1       0.992   9.234  20.164  0.00  0.00    +0.000 A 
ATOM      7  C   UNL     1       1.265   9.430  18.812  0.00  0.00    +0.000 A 
ATOM      8  C   UNL     1       2.033   8.372  18.222  0.00  0.00    +0.000 A 
ATOM      9  C   UNL     1       2.336   7.377  19.124  0.00  0.00    +0.000 A 
ATOM     10  S   UNL     1       1.716   7.756  20.680  0.00  0.00    +0.000 S 
BRANCH   6  14
ATOM     11  C   UNL     1      -1.385  11.792  22.763  0.00  0.00    +0.000 A 
ATOM     12  C   UNL     1      -0.932  12.244  21.541  0.00  0.00    +0.000 A 
ATOM     13  C   UNL     1      -0.140  11.414  20.703  0.00  0.00    +0.000 A 
ATOM     14  C   UNL     1       0.211  10.116  21.085  0.00  0.00    +0.000 A 
ATOM     15  C   UNL     1      -0.222   9.681  22.355  0.00  0.00    +0.000 A 
ATOM     16  C   UNL     1      -1.008  10.510  23.192  0.00  0.00    +0.000 A 
BRANCH  11  17
ATOM     17  O   UNL     1      -2.179  12.650  23.455  0.00  0.00    +0.000 OA
BRANCH  17  19
ATOM     18  C   UNL     1      -4.294  12.381  24.539  0.00  0.00    +0.000 C 
ATOM     19  C   UNL     1      -3.583  12.591  23.210  0.00  0.00    +0.000 C 
ENDBRANCH  17  19
ENDBRANCH  11  17
ENDBRANCH   6  14
ENDBRANCH   1   9
BRANCH   4  20
ATOM     20  C   UNL     1       4.644   3.587  16.771  0.00  0.00    +0.000 C 
BRANCH  20  21
ATOM     21  C   UNL     1       5.761   4.108  15.911  0.00  0.00    +0.000 A 
ATOM     22  C   UNL     1       6.931   4.608  16.474  0.00  0.00    +0.000 A 
ATOM     23  N   UNL     1       7.376   5.515  15.561  0.00  0.00    +0.000 N 
ATOM     24  C   UNL     1       7.149   4.980  14.326  0.00  0.00    +0.000 A 
ATOM     25  C   UNL     1       7.787   5.222  13.105  0.00  0.00    +0.000 A 
ATOM     26  C   UNL     1       7.350   4.481  12.012  0.00  0.00    +0.000 A 
ATOM     27  C   UNL     1       6.271   3.610  12.127  0.00  0.00    +0.000 A 
ATOM     28  C   UNL     1       5.590   3.439  13.352  0.00  0.00    +0.000 A 
ATOM     29  C   UNL     1       6.072   4.093  14.503  0.00  0.00    +0.000 A 
ATOM     30  H   UNL     1       7.869   6.376  15.756  0.00  0.00    +0.000 HD
ENDBRANCH  20  21
ENDBRANCH   4  20
TORSDOF 6
ENDMDL
MODEL 2
REMARK VINA RESULT:      -8.6      0.710      1.137
REMARK  Name = 
REMARK  7 active torsions:
REMARK  status: ('A' for Active; 'I' for Inactive)
REMARK    1  A    between atoms: C_1  and  C_2
REMARK    2  A    between atoms: C_2  and  O_3
REMARK    3  A    between atoms: O_3  and  C_4
REMARK    4  A    between atoms: C_7  and  C_8
REMARK    5  A    between atoms: C_11  and  C_12
REMARK    6  A    between atoms: C_15  and  C_16
REMARK    7  A    between atoms: C_16  and  C_17
REMARK                            x       y       z     vdW  Elec       q    Type
REMARK                         _______ _______ _______ _____ _____    ______ ____
ROOT
ATOM      1  C   UNL     1       2.949   5.941  18.604  0.00  0.00    +0.000 A 
ATOM      2  N   UNL     1       3.019   4.975  19.534  0.00  0.00    +0.000 NA
ATOM      3  O   UNL     1       3.668   3.929  18.890  0.00  0.00    +0.000 OA
ATOM      4  C   UNL     1       3.935   4.344  17.616  0.00  0.00    +0.000 A 
ATOM      5  N   UNL     1       3.523   5.583  17.392  0.00  0.00    +0.000 NA
ENDROOT
BRANCH   1   9
ATOM      6  C   UNL     1       1.141   9.294  19.851  0.00  0.00    +0.000 A 
ATOM      7  C   UNL     1       1.507   9.447  18.514  0.00  0.00    +0.000 A 
ATOM      8  C   UNL     1       2.176   8.302  17.968  0.00  0.00    +0.000 A 
ATOM      9  C   UNL     1       2.313   7.285  18.886  0.00  0.00    +0.000 A 
ATOM     10  S   UNL     1       1.660   7.747  20.406  0.00  0.00    +0.000 S 
BRANCH   6  14
ATOM     11  C   UNL     1      -0.854  12.128  22.485  0.00  0.00    +0.000 A 
ATOM     12  C   UNL     1      -0.702  10.804  22.847  0.00  0.00    +0.000 A 
ATOM     13  C   UNL     1      -0.068   9.877  21.977  0.00  0.00    +0.000 A 
ATOM     14  C   UNL     1       0.421  10.268  20.727  0.00  0.00    +0.000 A 
ATOM     15  C   UNL     1       0.221  11.613  20.350  0.00  0.00    +0.000 A 
ATOM     16  C   UNL     1      -0.415  12.536  21.217  0.00  0.00    +0.000 A 
BRANCH  11  17
ATOM     17  O   UNL     1      -1.425  12.935  23.417  0.00  0.00    +0.000 OA
BRANCH  17  19
ATOM     18  C   UNL     1      -3.032  14.530  24.186  0.00  0.00    +0.000 C 
ATOM     19  C   UNL     1      -2.415  13.859  22.969  0.00  0.00    +0.000 C 
ENDBRANCH  17  19
ENDBRANCH  11  17
ENDBRANCH   6  14
ENDBRANCH   1   9
BRANCH   4  20
ATOM     20  C   UNL     1       4.889   3.480  16.860  0.00  0.00    +0.000 C 
BRANCH  20  21
ATOM     21  C   UNL     1       5.937   4.074  15.961  0.00  0.00    +0.000 A 
ATOM     22  C   UNL     1       7.089   4.652  16.483  0.00  0.00    +0.000 A 
ATOM     23  N   UNL     1       7.439   5.587  15.556  0.00  0.00    +0.000 N 
ATOM     24  C   UNL     1       7.204   5.036  14.329  0.00  0.00    +0.000 A 
ATOM     25  C   UNL     1       7.781   5.320  13.086  0.00  0.00    +0.000 A 
ATOM     26  C   UNL     1       7.357   4.549  12.009  0.00  0.00    +0.000 A 
ATOM     27  C   UNL     1       6.343   3.607  12.161  0.00  0.00    +0.000 A 
ATOM     28  C   UNL     1       5.720   3.392  13.410  0.00  0.00    +0.000 A 
ATOM     29  C   UNL     1       6.197   4.078  14.544  0.00  0.00    +0.000 A 
ATOM     30  H   UNL     1       7.879   6.479  15.734  0.00  0.00    +0.000 HD
ENDBRANCH  20  21
ENDBRANCH   4  20
TORSDOF 6
ENDMDL
MODEL 3
REMARK VINA RESULT:      -8.4      3.155      5.241
REMARK  Name = 
REMARK  7 active torsions:
REMARK  status: ('A' for Active; 'I' for Inactive)
REMARK    1  A    between atoms: C_1  and  C_2
REMARK    2  A    between atoms: C_2  and  O_3
REMARK    3  A    between atoms: O_3  and  C_4
REMARK    4  A    between atoms: C_7  and  C_8
REMARK    5  A    between atoms: C_11  and  C_12
REMARK    6  A    between atoms: C_15  and  C_16
REMARK    7  A    between atoms: C_16  and  C_17
REMARK                            x       y       z     vdW  Elec       q    Type
REMARK                         _______ _______ _______ _____ _____    ______ ____
ROOT
ATOM      1  C   UNL     1       1.349   9.092  19.374  0.00  0.00    +0.000 A 
ATOM      2  N   UNL     1       1.256   9.566  18.121  0.00  0.00    +0.000 NA
ATOM      3  O   UNL     1       2.142   8.781  17.394  0.00  0.00    +0.000 OA
ATOM      4  C   UNL     1       2.706   7.895  18.267  0.00  0.00    +0.000 A 
ATOM      5  N   UNL     1       2.241   8.036  19.500  0.00  0.00    +0.000 NA
ENDROOT
BRANCH   1   9
ATOM      6  C   UNL     1      -0.778  11.091  22.122  0.00  0.00    +0.000 A 
ATOM      7  C   UNL     1      -0.571   9.787  22.570  0.00  0.00    +0.000 A 
ATOM      8  C   UNL     1       0.174   8.977  21.651  0.00  0.00    +0.000 A 
ATOM      9  C   UNL     1       0.534   9.665  20.514  0.00  0.00    +0.000 A 
ATOM     10  S   UNL     1      -0.068  11.273  20.561  0.00  0.00    +0.000 S 
BRANCH   6  14
ATOM     11  C   UNL     1      -2.849  14.262  24.266  0.00  0.00    +0.000 A 
ATOM     12  C   UNL     1      -3.466  13.054  24.013  0.00  0.00    +0.000 A 
ATOM     13  C   UNL     1      -2.796  12.028  23.295  0.00  0.00    +0.000 A 
ATOM     14  C   UNL     1      -1.493  12.204  22.819  0.00  0.00    +0.000 A 
ATOM     15  C   UNL     1      -0.889  13.458  23.047  0.00  0.00    +0.000 A 
ATOM     16  C   UNL     1      -1.560  14.482  23.759  0.00  0.00    +0.000 A 
BRANCH  11  17
ATOM     17  O   UNL     1      -3.565  15.149  25.007  0.00  0.00    +0.000 OA
BRANCH  17  19
ATOM     18  C   UNL     1      -4.889  17.139  25.052  0.00  0.00    +0.000 C 
ATOM     19  C   UNL     1      -3.598  16.503  24.561  0.00  0.00    +0.000 C 
ENDBRANCH  17  19
ENDBRANCH  11  17
ENDBRANCH   6  14
ENDBRANCH   1   9
BRANCH   4  20
ATOM     20  C   UNL     1       3.456   6.773  17.629  0.00  0.00    +0.000 C 
BRANCH  20  21
ATOM     21  C   UNL     1       3.088   5.340  17.888  0.00  0.00    +0.000 A 
ATOM     22  C   UNL     1       3.630   4.308  17.128  0.00  0.00    +0.000 A 
ATOM     23  N   UNL     1       2.677   3.335  17.164  0.00  0.00    +0.000 N 
ATOM     24  C   UNL     1       2.167   3.326  18.431  0.00  0.00    +0.000 A 
ATOM     25  C   UNL     1       1.546   2.297  19.146  0.00  0.00    +0.000 A 
ATOM     26  C   UNL     1       1.164   2.585  20.452  0.00  0.00    +0.000 A 
ATOM     27  C   UNL     1       1.319   3.866  20.975  0.00  0.00    +0.000 A 
ATOM     28  C   UNL     1       1.878   4.911  20.206  0.00  0.00    +0.000 A 
ATOM     29  C   UNL     1       2.373   4.629  18.918  0.00  0.00    +0.000 A 
ATOM     30  H   UNL     1       2.456   2.679  16.428  0.00  0.00    +0.000 HD
ENDBRANCH  20  21
ENDBRANCH   4  20
TORSDOF 6
ENDMDL
MODEL 4
REMARK VINA RESULT:      -8.3      3.333     11.754
REMARK  Name = 
REMARK  7 active torsions:
REMARK  status: ('A' for Active; 'I' for Inactive)
REMARK    1  A    between atoms: C_1  and  C_2
REMARK    2  A    between atoms: C_2  and  O_3
REMARK    3  A    between atoms: O_3  and  C_4
REMARK    4  A    between atoms: C_7  and  C_8
REMARK    5  A    between atoms: C_11  and  C_12
REMARK    6  A    between atoms: C_15  and  C_16
REMARK    7  A    between atoms: C_16  and  C_17
REMARK                            x       y       z     vdW  Elec       q    Type
REMARK                         _______ _______ _______ _____ _____    ______ ____
ROOT
ATOM      1  C   UNL     1       0.202  10.239  21.334  0.00  0.00    +0.000 A 
ATOM      2  N   UNL     1      -0.154   9.589  22.453  0.00  0.00    +0.000 NA
ATOM      3  O   UNL     1      -0.725  10.572  23.251  0.00  0.00    +0.000 OA
ATOM      4  C   UNL     1      -0.665  11.744  22.552  0.00  0.00    +0.000 A 
ATOM      5  N   UNL     1      -0.114  11.591  21.357  0.00  0.00    +0.000 NA
ENDROOT
BRANCH   1   9
ATOM      6  C   UNL     1       2.138   8.007  18.626  0.00  0.00    +0.000 A 
ATOM      7  C   UNL     1       1.631   9.143  17.996  0.00  0.00    +0.000 A 
ATOM      8  C   UNL     1       0.905  10.011  18.878  0.00  0.00    +0.000 A 
ATOM      9  C   UNL     1       0.866   9.536  20.169  0.00  0.00    +0.000 A 
ATOM     10  S   UNL     1       1.679   8.028  20.288  0.00  0.00    +0.000 S 
BRANCH   6  14
ATOM     11  C   UNL     1       4.590   4.812  16.973  0.00  0.00    +0.000 A 
ATOM     12  C   UNL     1       4.994   6.130  16.902  0.00  0.00    +0.000 A 
ATOM     13  C   UNL     1       4.183   7.173  17.424  0.00  0.00    +0.000 A 
ATOM     14  C   UNL     1       2.950   6.904  18.024  0.00  0.00    +0.000 A 
ATOM     15  C   UNL     1       2.527   5.559  18.053  0.00  0.00    +0.000 A 
ATOM     16  C   UNL     1       3.335   4.520  17.528  0.00  0.00    +0.000 A 
BRANCH  11  17
ATOM     17  O   UNL     1       5.469   3.896  16.491  0.00  0.00    +0.000 OA
BRANCH  17  19
ATOM     18  C   UNL     1       6.053   3.986  14.174  0.00  0.00    +0.000 C 
ATOM     19  C   UNL     1       6.472   4.358  15.587  0.00  0.00    +0.000 C 
ENDBRANCH  17  19
ENDBRANCH  11  17
ENDBRANCH   6  14
ENDBRANCH   1   9
BRANCH   4  20
ATOM     20  C   UNL     1      -1.493  12.853  23.111  0.00  0.00    +0.000 C 
BRANCH  20  21
ATOM     21  C   UNL     1      -2.992  12.838  23.005  0.00  0.00    +0.000 A 
ATOM     22  C   UNL     1      -3.795  13.019  24.127  0.00  0.00    +0.000 A 
ATOM     23  N   UNL     1      -4.938  12.341  23.827  0.00  0.00    +0.000 N 
ATOM     24  C   UNL     1      -5.200  12.568  22.507  0.00  0.00    +0.000 A 
ATOM     25  C   UNL     1      -6.411  12.530  21.807  0.00  0.00    +0.000 A 
ATOM     26  C   UNL     1      -6.363  12.852  20.455  0.00  0.00    +0.000 A 
ATOM     27  C   UNL     1      -5.148  13.111  19.826  0.00  0.00    +0.000 A 
ATOM     28  C   UNL     1      -3.928  13.067  20.537  0.00  0.00    +0.000 A 
ATOM     29  C   UNL     1      -3.950  12.849  21.928  0.00  0.00    +0.000 A 
ATOM     30  H   UNL     1      -5.533  11.845  24.476  0.00  0.00    +0.000 HD
ENDBRANCH  20  21
ENDBRANCH   4  20
TORSDOF 6
ENDMDL
MODEL 5
REMARK VINA RESULT:      -8.3      1.292      1.737
REMARK  Name = 
REMARK  7 active torsions:
REMARK  status: ('A' for Active; 'I' for Inactive)
REMARK    1  A    between atoms: C_1  and  C_2
REMARK    2  A    between atoms: C_2  and  O_3
REMARK    3  A    between atoms: O_3  and  C_4
REMARK    4  A    between atoms: C_7  and  C_8
REMARK    5  A    between atoms: C_11  and  C_12
REMARK    6  A    between atoms: C_15  and  C_16
REMARK    7  A    between atoms: C_16  and  C_17
REMARK                            x       y       z     vdW  Elec       q    Type
REMARK                         _______ _______ _______ _____ _____    ______ ____
ROOT
ATOM      1  C   UNL     1       2.886   7.188  18.501  0.00  0.00    +0.000 A 
ATOM      2  N   UNL     1       3.487   7.862  17.509  0.00  0.00    +0.000 NA
ATOM      3  O   UNL     1       4.232   6.897  16.843  0.00  0.00    +0.000 OA
ATOM      4  C   UNL     1       4.025   5.712  17.490  0.00  0.00    +0.000 A 
ATOM      5  N   UNL     1       3.192   5.834  18.512  0.00  0.00    +0.000 NA
ENDROOT
BRANCH   1   9
ATOM      6  C   UNL     1       0.407   9.396  20.747  0.00  0.00    +0.000 A 
ATOM      7  C   UNL     1       0.752   8.245  21.453  0.00  0.00    +0.000 A 
ATOM      8  C   UNL     1       1.633   7.373  20.731  0.00  0.00    +0.000 A 
ATOM      9  C   UNL     1       1.956   7.863  19.486  0.00  0.00    +0.000 A 
ATOM     10  S   UNL     1       1.159   9.357  19.196  0.00  0.00    +0.000 S 
BRANCH   6  14
ATOM     11  C   UNL     1      -2.040  12.732  22.101  0.00  0.00    +0.000 A 
ATOM     12  C   UNL     1      -1.564  11.791  22.991  0.00  0.00    +0.000 A 
ATOM     13  C   UNL     1      -0.782  10.692  22.545  0.00  0.00    +0.000 A 
ATOM     14  C   UNL     1      -0.470  10.523  21.193  0.00  0.00    +0.000 A 
ATOM     15  C   UNL     1      -0.998  11.467  20.287  0.00  0.00    +0.000 A 
ATOM     16  C   UNL     1      -1.781  12.559  20.733  0.00  0.00    +0.000 A 
BRANCH  11  17
ATOM     17  O   UNL     1      -2.730  13.768  22.647  0.00  0.00    +0.000 OA
BRANCH  17  19
ATOM     18  C   UNL     1      -4.629  14.264  24.011  0.00  0.00    +0.000 C 
ATOM     19  C   UNL     1      -3.272  13.582  23.953  0.00  0.00    +0.000 C 
ENDBRANCH  17  19
ENDBRANCH  11  17
ENDBRANCH   6  14
ENDBRANCH   1   9
BRANCH   4  20
ATOM     20  C   UNL     1       4.496   4.502  16.752  0.00  0.00    +0.000 C 
BRANCH  20  21
ATOM     21  C   UNL     1       5.640   4.576  15.781  0.00  0.00    +0.000 A 
ATOM     22  C   UNL     1       6.934   4.852  16.212  0.00  0.00    +0.000 A 
ATOM     23  N   UNL     1       7.518   5.455  15.140  0.00  0.00    +0.000 N 
ATOM     24  C   UNL     1       7.079   4.797  14.026  0.00  0.00    +0.000 A 
ATOM     25  C   UNL     1       7.667   4.667  12.764  0.00  0.00    +0.000 A 
ATOM     26  C   UNL     1       6.986   3.889  11.834  0.00  0.00    +0.000 A 
ATOM     27  C   UNL     1       5.739   3.348  12.133  0.00  0.00    +0.000 A 
ATOM     28  C   UNL     1       5.128   3.559  13.388  0.00  0.00    +0.000 A 
ATOM     29  C   UNL     1       5.835   4.251  14.390  0.00  0.00    +0.000 A 
ATOM     30  H   UNL     1       8.218   6.184  15.164  0.00  0.00    +0.000 HD
ENDBRANCH  20  21
ENDBRANCH   4  20
TORSDOF 6
ENDMDL
MODEL 6
REMARK VINA RESULT:      -8.3      2.456      3.133
REMARK  Name = 
REMARK  7 active torsions:
REMARK  status: ('A' for Active; 'I' for Inactive)
REMARK    1  A    between atoms: C_1  and  C_2
REMARK    2  A    between atoms: C_2  and  O_3
REMARK    3  A    between atoms: O_3  and  C_4
REMARK    4  A    between atoms: C_7  and  C_8
REMARK    5  A    between atoms: C_11  and  C_12
REMARK    6  A    between atoms: C_15  and  C_16
REMARK    7  A    between atoms: C_16  and  C_17
REMARK                            x       y       z     vdW  Elec       q    Type
REMARK                         _______ _______ _______ _____ _____    ______ ____
ROOT
ATOM      1  C   UNL     1       2.873   5.759  18.676  0.00  0.00    +0.000 A 
ATOM      2  N   UNL     1       2.829   4.690  19.486  0.00  0.00    +0.000 NA
ATOM      3  O   UNL     1       3.484   3.694  18.772  0.00  0.00    +0.000 OA
ATOM      4  C   UNL     1       3.869   4.240  17.580  0.00  0.00    +0.000 A 
ATOM      5  N   UNL     1       3.528   5.516  17.476  0.00  0.00    +0.000 NA
ENDROOT
BRANCH   1   9
ATOM      6  C   UNL     1       1.407   9.453  19.199  0.00  0.00    +0.000 A 
ATOM      7  C   UNL     1       1.337   8.763  20.408  0.00  0.00    +0.000 A 
ATOM      8  C   UNL     1       1.828   7.418  20.330  0.00  0.00    +0.000 A 
ATOM      9  C   UNL     1       2.272   7.092  19.068  0.00  0.00    +0.000 A 
ATOM     10  S   UNL     1       2.054   8.410  17.988  0.00  0.00    +0.000 S 
BRANCH   6  14
ATOM     11  C   UNL     1       0.201  13.578  18.509  0.00  0.00    +0.000 A 
ATOM     12  C   UNL     1      -0.731  12.603  18.801  0.00  0.00    +0.000 A 
ATOM     13  C   UNL     1      -0.338  11.254  19.005  0.00  0.00    +0.000 A 
ATOM     14  C   UNL     1       1.002  10.865  18.918  0.00  0.00    +0.000 A 
ATOM     15  C   UNL     1       1.940  11.861  18.577  0.00  0.00    +0.000 A 
ATOM     16  C   UNL     1       1.547  13.206  18.369  0.00  0.00    +0.000 A 
BRANCH  11  17
ATOM     17  O   UNL     1      -0.282  14.842  18.387  0.00  0.00    +0.000 OA
BRANCH  17  19
ATOM     18  C   UNL     1       0.202  17.178  18.217  0.00  0.00    +0.000 C 
ATOM     19  C   UNL     1       0.469  15.895  18.989  0.00  0.00    +0.000 C 
ENDBRANCH  17  19
ENDBRANCH  11  17
ENDBRANCH   6  14
ENDBRANCH   1   9
BRANCH   4  20
ATOM     20  C   UNL     1       4.845   3.423  16.801  0.00  0.00    +0.000 C 
BRANCH  20  21
ATOM     21  C   UNL     1       5.894   4.069  15.941  0.00  0.00    +0.000 A 
ATOM     22  C   UNL     1       7.009   4.683  16.505  0.00  0.00    +0.000 A 
ATOM     23  N   UNL     1       7.348   5.644  15.601  0.00  0.00    +0.000 N 
ATOM     24  C   UNL     1       7.171   5.103  14.360  0.00  0.00    +0.000 A 
ATOM     25  C   UNL     1       7.772   5.427  13.139  0.00  0.00    +0.000 A 
ATOM     26  C   UNL     1       7.409   4.657  12.039  0.00  0.00    +0.000 A 
ATOM     27  C   UNL     1       6.428   3.675  12.148  0.00  0.00    +0.000 A 
ATOM     28  C   UNL     1       5.778   3.418  13.375  0.00  0.00    +0.000 A 
ATOM     29  C   UNL     1       6.195   4.104  14.532  0.00  0.00    +0.000 A 
ATOM     30  H   UNL     1       7.749   6.550  15.804  0.00  0.00    +0.000 HD
ENDBRANCH  20  21
ENDBRANCH   4  20
TORSDOF 6
ENDMDL
MODEL 7
REMARK VINA RESULT:      -8.3      1.401      1.689
REMARK  Name = 
REMARK  7 active torsions:
REMARK  status: ('A' for Active; 'I' for Inactive)
REMARK    1  A    between atoms: C_1  and  C_2
REMARK    2  A    between atoms: C_2  and  O_3
REMARK    3  A    between atoms: O_3  and  C_4
REMARK    4  A    between atoms: C_7  and  C_8
REMARK    5  A    between atoms: C_11  and  C_12
REMARK    6  A    between atoms: C_15  and  C_16
REMARK    7  A    between atoms: C_16  and  C_17
REMARK                            x       y       z     vdW  Elec       q    Type
REMARK                         _______ _______ _______ _____ _____    ______ ____
ROOT
ATOM      1  C   UNL     1       2.860   7.235  18.552  0.00  0.00    +0.000 A 
ATOM      2  N   UNL     1       3.436   7.913  17.547  0.00  0.00    +0.000 NA
ATOM      3  O   UNL     1       4.199   6.959  16.885  0.00  0.00    +0.000 OA
ATOM      4  C   UNL     1       4.027   5.776  17.547  0.00  0.00    +0.000 A 
ATOM      5  N   UNL     1       3.199   5.889  18.575  0.00  0.00    +0.000 NA
ENDROOT
BRANCH   1   9
ATOM      6  C   UNL     1       0.368   9.418  20.808  0.00  0.00    +0.000 A 
ATOM      7  C   UNL     1       0.694   8.250  21.495  0.00  0.00    +0.000 A 
ATOM      8  C   UNL     1       1.578   7.385  20.768  0.00  0.00    +0.000 A 
ATOM      9  C   UNL     1       1.921   7.898  19.538  0.00  0.00    +0.000 A 
ATOM     10  S   UNL     1       1.141   9.403  19.267  0.00  0.00    +0.000 S 
BRANCH   6  14
ATOM     11  C   UNL     1      -2.281  12.628  22.082  0.00  0.00    +0.000 A 
ATOM     12  C   UNL     1      -1.966  12.451  20.750  0.00  0.00    +0.000 A 
ATOM     13  C   UNL     1      -1.086  11.416  20.339  0.00  0.00    +0.000 A 
ATOM     14  C   UNL     1      -0.506  10.542  21.264  0.00  0.00    +0.000 A 
ATOM     15  C   UNL     1      -0.801  10.760  22.626  0.00  0.00    +0.000 A 
ATOM     16  C   UNL     1      -1.676  11.796  23.036  0.00  0.00    +0.000 A 
BRANCH  11  17
ATOM     17  O   UNL     1      -3.174  13.616  22.354  0.00  0.00    +0.000 OA
BRANCH  17  19
ATOM     18  C   UNL     1      -5.150  14.314  21.203  0.00  0.00    +0.000 C 
ATOM     19  C   UNL     1      -4.558  13.315  22.185  0.00  0.00    +0.000 C 
ENDBRANCH  17  19
ENDBRANCH  11  17
ENDBRANCH   6  14
ENDBRANCH   1   9
BRANCH   4  20
ATOM     20  C   UNL     1       4.521   4.570  16.819  0.00  0.00    +0.000 C 
BRANCH  20  21
ATOM     21  C   UNL     1       5.670   4.658  15.854  0.00  0.00    +0.000 A 
ATOM     22  C   UNL     1       6.959   4.944  16.293  0.00  0.00    +0.000 A 
ATOM     23  N   UNL     1       7.543   5.555  15.225  0.00  0.00    +0.000 N 
ATOM     24  C   UNL     1       7.116   4.897  14.108  0.00  0.00    +0.000 A 
ATOM     25  C   UNL     1       7.712   4.776  12.848  0.00  0.00    +0.000 A 
ATOM     26  C   UNL     1       7.043   3.995  11.911  0.00  0.00    +0.000 A 
ATOM     27  C   UNL     1       5.799   3.442  12.202  0.00  0.00    +0.000 A 
ATOM     28  C   UNL     1       5.179   3.644  13.455  0.00  0.00    +0.000 A 
ATOM     29  C   UNL     1       5.875   4.339  14.463  0.00  0.00    +0.000 A 
ATOM     30  H   UNL     1       8.236   6.291  15.255  0.00  0.00    +0.000 HD
ENDBRANCH  20  21
ENDBRANCH   4  20
TORSDOF 6
ENDMDL
MODEL 8
REMARK VINA RESULT:      -8.2      3.513     10.654
REMARK  Name = 
REMARK  7 active torsions:
REMARK  status: ('A' for Active; 'I' for Inactive)
REMARK    1  A    between atoms: C_1  and  C_2
REMARK    2  A    between atoms: C_2  and  O_3
REMARK    3  A    between atoms: O_3  and  C_4
REMARK    4  A    between atoms: C_7  and  C_8
REMARK    5  A    between atoms: C_11  and  C_12
REMARK    6  A    between atoms: C_15  and  C_16
REMARK    7  A    between atoms: C_16  and  C_17
REMARK                            x       y       z     vdW  Elec       q    Type
REMARK                         _______ _______ _______ _____ _____    ______ ____
ROOT
ATOM      1  C   UNL     1       0.949   8.717  20.558  0.00  0.00    +0.000 A 
ATOM      2  N   UNL     1       0.195   8.513  21.649  0.00  0.00    +0.000 NA
ATOM      3  O   UNL     1      -0.445   9.729  21.854  0.00  0.00    +0.000 OA
ATOM      4  C   UNL     1      -0.022  10.577  20.870  0.00  0.00    +0.000 A 
ATOM      5  N   UNL     1       0.828   9.998  20.036  0.00  0.00    +0.000 NA
ENDROOT
BRANCH   1   9
ATOM      6  C   UNL     1       3.343   6.190  18.572  0.00  0.00    +0.000 A 
ATOM      7  C   UNL     1       2.848   5.547  19.705  0.00  0.00    +0.000 A 
ATOM      8  C   UNL     1       1.984   6.371  20.499  0.00  0.00    +0.000 A 
ATOM      9  C   UNL     1       1.822   7.631  19.967  0.00  0.00    +0.000 A 
ATOM     10  S   UNL     1       2.748   7.808  18.532  0.00  0.00    +0.000 S 
BRANCH   6  14
ATOM     11  C   UNL     1       5.878   4.565  15.428  0.00  0.00    +0.000 A 
ATOM     12  C   UNL     1       4.988   3.761  16.112  0.00  0.00    +0.000 A 
ATOM     13  C   UNL     1       4.177   4.289  17.151  0.00  0.00    +0.000 A 
ATOM     14  C   UNL     1       4.250   5.636  17.519  0.00  0.00    +0.000 A 
ATOM     15  C   UNL     1       5.194   6.437  16.843  0.00  0.00    +0.000 A 
ATOM     16  C   UNL     1       6.006   5.909  15.810  0.00  0.00    +0.000 A 
BRANCH  11  17
ATOM     17  O   UNL     1       6.563   3.965  14.419  0.00  0.00    +0.000 OA
BRANCH  17  19
ATOM     18  C   UNL     1       6.779   3.740  12.049  0.00  0.00    +0.000 C 
ATOM     19  C   UNL     1       5.837   3.633  13.237  0.00  0.00    +0.000 C 
ENDBRANCH  17  19
ENDBRANCH  11  17
ENDBRANCH   6  14
ENDBRANCH   1   9
BRANCH   4  20
ATOM     20  C   UNL     1      -0.818  11.833  20.738  0.00  0.00    +0.000 C 
BRANCH  20  21
ATOM     21  C   UNL     1      -1.961  11.935  19.768  0.00  0.00    +0.000 A 
ATOM     22  C   UNL     1      -2.875  12.982  19.839  0.00  0.00    +0.000 A 
ATOM     23  N   UNL     1      -4.022  12.455  19.326  0.00  0.00    +0.000 N 
ATOM     24  C   UNL     1      -3.660  11.668  18.270  0.00  0.00    +0.000 A 
ATOM     25  C   UNL     1      -4.389  11.282  17.141  0.00  0.00    +0.000 A 
ATOM     26  C   UNL     1      -3.723  10.496  16.206  0.00  0.00    +0.000 A 
ATOM     27  C   UNL     1      -2.425  10.052  16.441  0.00  0.00    +0.000 A 
ATOM     28  C   UNL     1      -1.736  10.390  17.627  0.00  0.00    +0.000 A 
ATOM     29  C   UNL     1      -2.339  11.271  18.546  0.00  0.00    +0.000 A 
ATOM     30  H   UNL     1      -4.967  12.677  19.607  0.00  0.00    +0.000 HD
ENDBRANCH  20  21
ENDBRANCH   4  20
TORSDOF 6
ENDMDL
MODEL 9
REMARK VINA RESULT:      -8.2      3.395     12.375
REMARK  Name = 
REMARK  7 active torsions:
REMARK  status: ('A' for Active; 'I' for Inactive)
REMARK    1  A    between atoms: C_1  and  C_2
REMARK    2  A    between atoms: C_2  and  O_3
REMARK    3  A    between atoms: O_3  and  C_4
REMARK    4  A    between atoms: C_7  and  C_8
REMARK    5  A    between atoms: C_11  and  C_12
REMARK    6  A    between atoms: C_15  and  C_16
REMARK    7  A    between atoms: C_16  and  C_17
REMARK                            x       y       z     vdW  Elec       q    Type
REMARK                         _______ _______ _______ _____ _____    ______ ____
ROOT
ATOM      1  C   UNL     1       0.304   9.943  21.419  0.00  0.00    +0.000 A 
ATOM      2  N   UNL     1       0.660   9.695  22.689  0.00  0.00    +0.000 NA
ATOM      3  O   UNL     1      -0.217  10.463  23.445  0.00  0.00    +0.000 OA
ATOM      4  C   UNL     1      -1.033  11.121  22.570  0.00  0.00    +0.000 A 
ATOM      5  N   UNL     1      -0.763  10.824  21.307  0.00  0.00    +0.000 NA
ENDROOT
BRANCH   1   9
ATOM      6  C   UNL     1       2.332   7.844  18.672  0.00  0.00    +0.000 A 
ATOM      7  C   UNL     1       1.829   9.000  18.078  0.00  0.00    +0.000 A 
ATOM      8  C   UNL     1       1.072   9.823  18.975  0.00  0.00    +0.000 A 
ATOM      9  C   UNL     1       1.005   9.294  20.245  0.00  0.00    +0.000 A 
ATOM     10  S   UNL     1       1.831   7.791  20.321  0.00  0.00    +0.000 S 
BRANCH   6  14
ATOM     11  C   UNL     1       4.685   4.723  16.756  0.00  0.00    +0.000 A 
ATOM     12  C   UNL     1       3.492   4.430  17.385  0.00  0.00    +0.000 A 
ATOM     13  C   UNL     1       2.736   5.447  18.028  0.00  0.00    +0.000 A 
ATOM     14  C   UNL     1       3.171   6.775  18.047  0.00  0.00    +0.000 A 
ATOM     15  C   UNL     1       4.412   7.055  17.438  0.00  0.00    +0.000 A 
ATOM     16  C   UNL     1       5.167   6.039  16.802  0.00  0.00    +0.000 A 
BRANCH  11  17
ATOM     17  O   UNL     1       5.295   3.683  16.129  0.00  0.00    +0.000 OA
BRANCH  17  19
ATOM     18  C   UNL     1       5.902   4.038  13.844  0.00  0.00    +0.000 C 
ATOM     19  C   UNL     1       6.401   3.983  15.280  0.00  0.00    +0.000 C 
ENDBRANCH  17  19
ENDBRANCH  11  17
ENDBRANCH   6  14
ENDBRANCH   1   9
BRANCH   4  20
ATOM     20  C   UNL     1      -2.232  11.761  23.188  0.00  0.00    +0.000 C 
BRANCH  20  21
ATOM     21  C   UNL     1      -2.238  13.218  23.554  0.00  0.00    +0.000 A 
ATOM     22  C   UNL     1      -1.089  13.994  23.439  0.00  0.00    +0.000 A 
ATOM     23  N   UNL     1      -1.247  14.959  24.387  0.00  0.00    +0.000 N 
ATOM     24  C   UNL     1      -2.563  15.322  24.370  0.00  0.00    +0.000 A 
ATOM     25  C   UNL     1      -3.175  16.518  24.758  0.00  0.00    +0.000 A 
ATOM     26  C   UNL     1      -4.552  16.602  24.582  0.00  0.00    +0.000 A 
ATOM     27  C   UNL     1      -5.281  15.508  24.124  0.00  0.00    +0.000 A 
ATOM     28  C   UNL     1      -4.651  14.283  23.813  0.00  0.00    +0.000 A 
ATOM     29  C   UNL     1      -3.246  14.196  23.878  0.00  0.00    +0.000 A 
ATOM     30  H   UNL     1      -0.515  15.396  24.932  0.00  0.00    +0.000 HD
ENDBRANCH  20  21
ENDBRANCH   4  20
TORSDOF 6
ENDMDL
