MODEL 1
REMARK VINA RESULT:      -7.6      0.000      0.000
REMARK  Name = 
REMARK  8 active torsions:
REMARK  status: ('A' for Active; 'I' for Inactive)
REMARK    1  A    between atoms: N_11  and  C_12
REMARK    2  A    between atoms: C_12  and  C_13
REMARK    3  A    between atoms: C_13  and  C_14
REMARK    4  A    between atoms: C_14  and  C_15
REMARK    5  A    between atoms: C_15  and  C_16
REMARK    6  A    between atoms: C_16  and  N_17
REMARK    7  A    between atoms: N_17  and  C_18
REMARK    8  A    between atoms: C_18  and  C_19
REMARK                            x       y       z     vdW  Elec       q    Type
REMARK                         _______ _______ _______ _____ _____    ______ ____
ROOT
ATOM      1  C   UNL     1       1.303   3.682  18.177  0.00  0.00    +0.000 C 
ENDROOT
BRANCH   1   2
ATOM      2  C   UNL     1       2.210   3.088  17.095  0.00  0.00    +0.000 C 
BRANCH   2   3
ATOM      3  C   UNL     1       3.495   2.516  17.687  0.00  0.00    +0.000 C 
BRANCH   3  14
ATOM      4  O   UNL     1       4.603   4.262  15.551  0.00  0.00    +0.000 OA
ATOM      5  C   UNL     1       4.972   4.273  16.709  0.00  0.00    +0.000 C 
ATOM      6  C   UNL     1       6.001   5.172  17.233  0.00  0.00    +0.000 A 
ATOM      7  C   UNL     1       6.716   6.173  16.606  0.00  0.00    +0.000 A 
ATOM      8  C   UNL     1       7.632   6.888  17.387  0.00  0.00    +0.000 A 
ATOM      9  C   UNL     1       7.809   6.587  18.753  0.00  0.00    +0.000 A 
ATOM     10  C   UNL     1       7.068   5.569  19.366  0.00  0.00    +0.000 A 
ATOM     11  C   UNL     1       6.167   4.882  18.574  0.00  0.00    +0.000 A 
ATOM     12  C   UNL     1       5.239   3.804  18.910  0.00  0.00    +0.000 C 
ATOM     13  O   UNL     1       5.132   3.313  20.019  0.00  0.00    +0.000 OA
ATOM     14  N   UNL     1       4.551   3.509  17.764  0.00  0.00    +0.000 N 
ENDBRANCH   3  14
ENDBRANCH   2   3
ENDBRANCH   1   2
BRANCH   1  15
ATOM     15  C   UNL     1       1.100   2.674  19.309  0.00  0.00    +0.000 C 
BRANCH  15  16
ATOM     16  C   UNL     1       1.495   3.249  20.669  0.00  0.00    +0.000 C 
BRANCH  16  17
ATOM     17  N   UNL     1       1.232   4.686  20.657  0.00  0.00    +0.000 NA
ATOM     18  H   UNL     1       0.664   4.935  21.468  0.00  0.00    +0.000 HD
BRANCH  17  19
ATOM     19  C   UNL     1       2.469   5.467  20.686  0.00  0.00    +0.000 C 
BRANCH  19  20
ATOM     20  C   UNL     1       2.343   6.700  19.826  0.00  0.00    +0.000 A 
ATOM     21  C   UNL     1       2.988   6.760  18.579  0.00  0.00    +0.000 A 
ATOM     22  C   UNL     1       2.877   7.897  17.777  0.00  0.00    +0.000 A 
ATOM     23  C   UNL     1       2.121   8.977  18.221  0.00  0.00    +0.000 A 
ATOM     24  F   UNL     1       2.012  10.065  17.447  0.00  0.00    +0.000 F 
ATOM     25  C   UNL     1       1.481   8.946  19.450  0.00  0.00    +0.000 A 
ATOM     26  C   UNL     1       1.601   7.811  20.247  0.00  0.00    +0.000 A 
ATOM     27  F   UNL     1       0.988   7.795  21.439  0.00  0.00    +0.000 F 
ENDBRANCH  19  20
ENDBRANCH  17  19
ENDBRANCH  16  17
ENDBRANCH  15  16
ENDBRANCH   1  15
TORSDOF 8
ENDMDL
MODEL 2
REMARK VINA RESULT:      -7.4      0.454      1.791
REMARK  Name = 
REMARK  8 active torsions:
REMARK  status: ('A' for Active; 'I' for Inactive)
REMARK    1  A    between atoms: N_11  and  C_12
REMARK    2  A    between atoms: C_12  and  C_13
REMARK    3  A    between atoms: C_13  and  C_14
REMARK    4  A    between atoms: C_14  and  C_15
REMARK    5  A    between atoms: C_15  and  C_16
REMARK    6  A    between atoms: C_16  and  N_17
REMARK    7  A    between atoms: N_17  and  C_18
REMARK    8  A    between atoms: C_18  and  C_19
REMARK                            x       y       z     vdW  Elec       q    Type
REMARK                         _______ _______ _______ _____ _____    ______ ____
ROOT
ATOM      1  C   UNL     1       0.929   2.807  18.915  0.00  0.00    +0.000 C 
ENDROOT
BRANCH   1   2
ATOM      2  C   UNL     1       1.874   3.140  17.757  0.00  0.00    +0.000 C 
BRANCH   2   3
ATOM      3  C   UNL     1       3.262   2.540  17.969  0.00  0.00    +0.000 C 
BRANCH   3  14
ATOM      4  O   UNL     1       4.974   3.425  20.232  0.00  0.00    +0.000 OA
ATOM      5  C   UNL     1       5.040   3.872  19.104  0.00  0.00    +0.000 C 
ATOM      6  C   UNL     1       5.998   4.896  18.682  0.00  0.00    +0.000 A 
ATOM      7  C   UNL     1       7.003   5.524  19.389  0.00  0.00    +0.000 A 
ATOM      8  C   UNL     1       7.781   6.460  18.697  0.00  0.00    +0.000 A 
ATOM      9  C   UNL     1       7.536   6.742  17.338  0.00  0.00    +0.000 A 
ATOM     10  C   UNL     1       6.511   6.087  16.642  0.00  0.00    +0.000 A 
ATOM     11  C   UNL     1       5.762   5.165  17.347  0.00  0.00    +0.000 A 
ATOM     12  C   UNL     1       4.661   4.307  16.912  0.00  0.00    +0.000 C 
ATOM     13  O   UNL     1       4.205   4.297  15.784  0.00  0.00    +0.000 OA
ATOM     14  N   UNL     1       4.298   3.556  17.998  0.00  0.00    +0.000 N 
ENDBRANCH   3  14
ENDBRANCH   2   3
ENDBRANCH   1   2
BRANCH   1  15
ATOM     15  C   UNL     1       1.730   2.520  20.186  0.00  0.00    +0.000 C 
BRANCH  15  16
ATOM     16  C   UNL     1       1.613   3.650  21.208  0.00  0.00    +0.000 C 
BRANCH  16  17
ATOM     17  N   UNL     1       1.347   4.896  20.490  0.00  0.00    +0.000 NA
ATOM     18  H   UNL     1       0.441   5.269  20.780  0.00  0.00    +0.000 HD
BRANCH  17  19
ATOM     19  C   UNL     1       2.377   5.902  20.746  0.00  0.00    +0.000 C 
BRANCH  19  20
ATOM     20  C   UNL     1       2.162   7.119  19.879  0.00  0.00    +0.000 A 
ATOM     21  C   UNL     1       2.667   7.150  18.568  0.00  0.00    +0.000 A 
ATOM     22  C   UNL     1       2.472   8.271  17.760  0.00  0.00    +0.000 A 
ATOM     23  C   UNL     1       1.773   9.365  18.262  0.00  0.00    +0.000 A 
ATOM     24  F   UNL     1       1.584  10.438  17.482  0.00  0.00    +0.000 F 
ATOM     25  C   UNL     1       1.271   9.361  19.554  0.00  0.00    +0.000 A 
ATOM     26  C   UNL     1       1.474   8.242  20.356  0.00  0.00    +0.000 A 
ATOM     27  F   UNL     1       0.995   8.253  21.608  0.00  0.00    +0.000 F 
ENDBRANCH  19  20
ENDBRANCH  17  19
ENDBRANCH  16  17
ENDBRANCH  15  16
ENDBRANCH   1  15
TORSDOF 8
ENDMDL
MODEL 3
REMARK VINA RESULT:      -7.3      2.993      6.048
REMARK  Name = 
REMARK  8 active torsions:
REMARK  status: ('A' for Active; 'I' for Inactive)
REMARK    1  A    between atoms: N_11  and  C_12
REMARK    2  A    between atoms: C_12  and  C_13
REMARK    3  A    between atoms: C_13  and  C_14
REMARK    4  A    between atoms: C_14  and  C_15
REMARK    5  A    between atoms: C_15  and  C_16
REMARK    6  A    between atoms: C_16  and  N_17
REMARK    7  A    between atoms: N_17  and  C_18
REMARK    8  A    between atoms: C_18  and  C_19
REMARK                            x       y       z     vdW  Elec       q    Type
REMARK                         _______ _______ _______ _____ _____    ______ ____
ROOT
ATOM      1  C   UNL     1       1.700   4.846  20.511  0.00  0.00    +0.000 C 
ENDROOT
BRANCH   1   2
ATOM      2  C   UNL     1       1.752   5.729  19.261  0.00  0.00    +0.000 C 
BRANCH   2   3
ATOM      3  C   UNL     1       2.608   6.974  19.483  0.00  0.00    +0.000 C 
BRANCH   3  14
ATOM      4  O   UNL     1       1.972   8.979  17.382  0.00  0.00    +0.000 OA
ATOM      5  C   UNL     1       1.565   9.029  18.526  0.00  0.00    +0.000 C 
ATOM      6  C   UNL     1       0.674  10.072  19.035  0.00  0.00    +0.000 A 
ATOM      7  C   UNL     1       0.090  11.143  18.387  0.00  0.00    +0.000 A 
ATOM      8  C   UNL     1      -0.746  11.970  19.147  0.00  0.00    +0.000 A 
ATOM      9  C   UNL     1      -0.971  11.711  20.514  0.00  0.00    +0.000 A 
ATOM     10  C   UNL     1      -0.370  10.616  21.147  0.00  0.00    +0.000 A 
ATOM     11  C   UNL     1       0.446   9.813  20.373  0.00  0.00    +0.000 A 
ATOM     12  C   UNL     1       1.184   8.600  20.718  0.00  0.00    +0.000 C 
ATOM     13  O   UNL     1       1.194   8.096  21.827  0.00  0.00    +0.000 OA
ATOM     14  N   UNL     1       1.805   8.180  19.573  0.00  0.00    +0.000 N 
ENDBRANCH   3  14
ENDBRANCH   2   3
ENDBRANCH   1   2
BRANCH   1  15
ATOM     15  C   UNL     1       0.874   3.589  20.236  0.00  0.00    +0.000 C 
BRANCH  15  16
ATOM     16  C   UNL     1       1.157   3.005  18.852  0.00  0.00    +0.000 C 
BRANCH  16  17
ATOM     17  N   UNL     1       2.071   1.875  19.006  0.00  0.00    +0.000 NA
ATOM     18  H   UNL     1       1.540   1.003  18.987  0.00  0.00    +0.000 HD
BRANCH  17  19
ATOM     19  C   UNL     1       3.077   1.840  17.945  0.00  0.00    +0.000 C 
BRANCH  19  20
ATOM     20  C   UNL     1       3.930   3.085  17.976  0.00  0.00    +0.000 A 
ATOM     21  C   UNL     1       3.969   3.941  16.862  0.00  0.00    +0.000 A 
ATOM     22  C   UNL     1       4.754   5.095  16.883  0.00  0.00    +0.000 A 
ATOM     23  C   UNL     1       5.503   5.395  18.017  0.00  0.00    +0.000 A 
ATOM     24  F   UNL     1       6.253   6.505  18.035  0.00  0.00    +0.000 F 
ATOM     25  C   UNL     1       5.487   4.562  19.125  0.00  0.00    +0.000 A 
ATOM     26  C   UNL     1       4.706   3.411  19.095  0.00  0.00    +0.000 A 
ATOM     27  F   UNL     1       4.706   2.606  20.168  0.00  0.00    +0.000 F 
ENDBRANCH  19  20
ENDBRANCH  17  19
ENDBRANCH  16  17
ENDBRANCH  15  16
ENDBRANCH   1  15
TORSDOF 8
ENDMDL
MODEL 4
REMARK VINA RESULT:      -7.3      0.760      1.880
REMARK  Name = 
REMARK  8 active torsions:
REMARK  status: ('A' for Active; 'I' for Inactive)
REMARK    1  A    between atoms: N_11  and  C_12
REMARK    2  A    between atoms: C_12  and  C_13
REMARK    3  A    between atoms: C_13  and  C_14
REMARK    4  A    between atoms: C_14  and  C_15
REMARK    5  A    between atoms: C_15  and  C_16
REMARK    6  A    between atoms: C_16  and  N_17
REMARK    7  A    between atoms: N_17  and  C_18
REMARK    8  A    between atoms: C_18  and  C_19
REMARK                            x       y       z     vdW  Elec       q    Type
REMARK                         _______ _______ _______ _____ _____    ______ ____
ROOT
ATOM      1  C   UNL     1       2.125   2.254  17.983  0.00  0.00    +0.000 C 
ENDROOT
BRANCH   1   2
ATOM      2  C   UNL     1       2.708   3.465  17.249  0.00  0.00    +0.000 C 
BRANCH   2   3
ATOM      3  C   UNL     1       4.127   3.196  16.752  0.00  0.00    +0.000 C 
BRANCH   3  14
ATOM      4  O   UNL     1       5.545   3.497  19.347  0.00  0.00    +0.000 OA
ATOM      5  C   UNL     1       5.669   4.254  18.403  0.00  0.00    +0.000 C 
ATOM      6  C   UNL     1       6.562   5.413  18.393  0.00  0.00    +0.000 A 
ATOM      7  C   UNL     1       7.440   5.873  19.355  0.00  0.00    +0.000 A 
ATOM      8  C   UNL     1       8.187   7.015  19.043  0.00  0.00    +0.000 A 
ATOM      9  C   UNL     1       8.037   7.661  17.799  0.00  0.00    +0.000 A 
ATOM     10  C   UNL     1       7.142   7.171  16.839  0.00  0.00    +0.000 A 
ATOM     11  C   UNL     1       6.421   6.040  17.170  0.00  0.00    +0.000 A 
ATOM     12  C   UNL     1       5.446   5.277  16.394  0.00  0.00    +0.000 C 
ATOM     13  O   UNL     1       5.094   5.563  15.264  0.00  0.00    +0.000 OA
ATOM     14  N   UNL     1       5.059   4.223  17.178  0.00  0.00    +0.000 N 
ENDBRANCH   3  14
ENDBRANCH   2   3
ENDBRANCH   1   2
BRANCH   1  15
ATOM     15  C   UNL     1       1.559   2.680  19.338  0.00  0.00    +0.000 C 
BRANCH  15  16
ATOM     16  C   UNL     1       1.130   4.147  19.348  0.00  0.00    +0.000 C 
BRANCH  16  17
ATOM     17  N   UNL     1       1.362   4.687  20.685  0.00  0.00    +0.000 NA
ATOM     18  H   UNL     1       1.473   3.919  21.348  0.00  0.00    +0.000 HD
BRANCH  17  19
ATOM     19  C   UNL     1       2.557   5.530  20.732  0.00  0.00    +0.000 C 
BRANCH  19  20
ATOM     20  C   UNL     1       2.378   6.760  19.876  0.00  0.00    +0.000 A 
ATOM     21  C   UNL     1       2.959   6.821  18.598  0.00  0.00    +0.000 A 
ATOM     22  C   UNL     1       2.798   7.954  17.799  0.00  0.00    +0.000 A 
ATOM     23  C   UNL     1       2.055   9.029  18.277  0.00  0.00    +0.000 A 
ATOM     24  F   UNL     1       1.899  10.114  17.507  0.00  0.00    +0.000 F 
ATOM     25  C   UNL     1       1.479   8.996  19.538  0.00  0.00    +0.000 A 
ATOM     26  C   UNL     1       1.648   7.866  20.330  0.00  0.00    +0.000 A 
ATOM     27  F   UNL     1       1.096   7.848  21.552  0.00  0.00    +0.000 F 
ENDBRANCH  19  20
ENDBRANCH  17  19
ENDBRANCH  16  17
ENDBRANCH  15  16
ENDBRANCH   1  15
TORSDOF 8
ENDMDL
MODEL 5
REMARK VINA RESULT:      -7.1      1.229      2.369
REMARK  Name = 
REMARK  8 active torsions:
REMARK  status: ('A' for Active; 'I' for Inactive)
REMARK    1  A    between atoms: N_11  and  C_12
REMARK    2  A    between atoms: C_12  and  C_13
REMARK    3  A    between atoms: C_13  and  C_14
REMARK    4  A    between atoms: C_14  and  C_15
REMARK    5  A    between atoms: C_15  and  C_16
REMARK    6  A    between atoms: C_16  and  N_17
REMARK    7  A    between atoms: N_17  and  C_18
REMARK    8  A    between atoms: C_18  and  C_19
REMARK                            x       y       z     vdW  Elec       q    Type
REMARK                         _______ _______ _______ _____ _____    ______ ____
ROOT
ATOM      1  C   UNL     1       2.328   2.340  17.954  0.00  0.00    +0.000 C 
ENDROOT
BRANCH   1   2
ATOM      2  C   UNL     1       2.793   3.556  17.148  0.00  0.00    +0.000 C 
BRANCH   2   3
ATOM      3  C   UNL     1       4.197   3.358  16.584  0.00  0.00    +0.000 C 
BRANCH   3  14
ATOM      4  O   UNL     1       5.649   3.479  19.175  0.00  0.00    +0.000 OA
ATOM      5  C   UNL     1       5.755   4.303  18.288  0.00  0.00    +0.000 C 
ATOM      6  C   UNL     1       6.640   5.466  18.352  0.00  0.00    +0.000 A 
ATOM      7  C   UNL     1       7.528   5.861  19.333  0.00  0.00    +0.000 A 
ATOM      8  C   UNL     1       8.263   7.029  19.096  0.00  0.00    +0.000 A 
ATOM      9  C   UNL     1       8.092   7.762  17.904  0.00  0.00    +0.000 A 
ATOM     10  C   UNL     1       7.187   7.338  16.923  0.00  0.00    +0.000 A 
ATOM     11  C   UNL     1       6.478   6.180  17.180  0.00  0.00    +0.000 A 
ATOM     12  C   UNL     1       5.498   5.469  16.362  0.00  0.00    +0.000 C 
ATOM     13  O   UNL     1       5.129   5.835  15.261  0.00  0.00    +0.000 OA
ATOM     14  N   UNL     1       5.129   4.358  17.072  0.00  0.00    +0.000 N 
ENDBRANCH   3  14
ENDBRANCH   2   3
ENDBRANCH   1   2
BRANCH   1  15
ATOM     15  C   UNL     1       2.239   2.692  19.439  0.00  0.00    +0.000 C 
BRANCH  15  16
ATOM     16  C   UNL     1       0.934   3.410  19.784  0.00  0.00    +0.000 C 
BRANCH  16  17
ATOM     17  N   UNL     1       1.242   4.526  20.676  0.00  0.00    +0.000 NA
ATOM     18  H   UNL     1       1.424   4.169  21.616  0.00  0.00    +0.000 HD
BRANCH  17  19
ATOM     19  C   UNL     1       2.410   5.281  20.221  0.00  0.00    +0.000 C 
BRANCH  19  20
ATOM     20  C   UNL     1       2.042   6.718  19.944  0.00  0.00    +0.000 A 
ATOM     21  C   UNL     1       1.392   7.482  20.927  0.00  0.00    +0.000 A 
ATOM     22  C   UNL     1       1.048   8.812  20.679  0.00  0.00    +0.000 A 
ATOM     23  C   UNL     1       1.354   9.380  19.445  0.00  0.00    +0.000 A 
ATOM     24  F   UNL     1       1.026  10.658  19.211  0.00  0.00    +0.000 F 
ATOM     25  C   UNL     1       1.988   8.644  18.456  0.00  0.00    +0.000 A 
ATOM     26  C   UNL     1       2.322   7.318  18.709  0.00  0.00    +0.000 A 
ATOM     27  F   UNL     1       2.926   6.611  17.743  0.00  0.00    +0.000 F 
ENDBRANCH  19  20
ENDBRANCH  17  19
ENDBRANCH  16  17
ENDBRANCH  15  16
ENDBRANCH   1  15
TORSDOF 8
ENDMDL
MODEL 6
REMARK VINA RESULT:      -7.1      1.634      4.331
REMARK  Name = 
REMARK  8 active torsions:
REMARK  status: ('A' for Active; 'I' for Inactive)
REMARK    1  A    between atoms: N_11  and  C_12
REMARK    2  A    between atoms: C_12  and  C_13
REMARK    3  A    between atoms: C_13  and  C_14
REMARK    4  A    between atoms: C_14  and  C_15
REMARK    5  A    between atoms: C_15  and  C_16
REMARK    6  A    between atoms: C_16  and  N_17
REMARK    7  A    between atoms: N_17  and  C_18
REMARK    8  A    between atoms: C_18  and  C_19
REMARK                            x       y       z     vdW  Elec       q    Type
REMARK                         _______ _______ _______ _____ _____    ______ ____
ROOT
ATOM      1  C   UNL     1       6.265   5.383  15.477  0.00  0.00    +0.000 C 
ENDROOT
BRANCH   1   2
ATOM      2  C   UNL     1       5.108   4.381  15.517  0.00  0.00    +0.000 C 
BRANCH   2   3
ATOM      3  C   UNL     1       5.318   3.317  16.591  0.00  0.00    +0.000 C 
BRANCH   3  14
ATOM      4  O   UNL     1       2.369   3.029  16.359  0.00  0.00    +0.000 OA
ATOM      5  C   UNL     1       2.962   3.214  17.404  0.00  0.00    +0.000 C 
ATOM      6  C   UNL     1       2.312   3.292  18.712  0.00  0.00    +0.000 A 
ATOM      7  C   UNL     1       0.983   3.147  19.061  0.00  0.00    +0.000 A 
ATOM      8  C   UNL     1       0.664   3.256  20.419  0.00  0.00    +0.000 A 
ATOM      9  C   UNL     1       1.665   3.506  21.380  0.00  0.00    +0.000 A 
ATOM     10  C   UNL     1       3.006   3.646  21.001  0.00  0.00    +0.000 A 
ATOM     11  C   UNL     1       3.294   3.528  19.654  0.00  0.00    +0.000 A 
ATOM     12  C   UNL     1       4.573   3.592  18.951  0.00  0.00    +0.000 C 
ATOM     13  O   UNL     1       5.645   3.788  19.494  0.00  0.00    +0.000 OA
ATOM     14  N   UNL     1       4.302   3.377  17.626  0.00  0.00    +0.000 N 
ENDBRANCH   3  14
ENDBRANCH   2   3
ENDBRANCH   1   2
BRANCH   1  15
ATOM     15  C   UNL     1       6.288   6.216  16.759  0.00  0.00    +0.000 C 
BRANCH  15  16
ATOM     16  C   UNL     1       5.098   7.171  16.846  0.00  0.00    +0.000 C 
BRANCH  16  17
ATOM     17  N   UNL     1       4.369   6.888  18.081  0.00  0.00    +0.000 NA
ATOM     18  H   UNL     1       4.567   7.618  18.767  0.00  0.00    +0.000 HD
BRANCH  17  19
ATOM     19  C   UNL     1       2.924   6.827  17.858  0.00  0.00    +0.000 C 
BRANCH  19  20
ATOM     20  C   UNL     1       2.191   7.669  18.873  0.00  0.00    +0.000 A 
ATOM     21  C   UNL     1       1.973   7.180  20.172  0.00  0.00    +0.000 A 
ATOM     22  C   UNL     1       1.296   7.953  21.116  0.00  0.00    +0.000 A 
ATOM     23  C   UNL     1       0.834   9.217  20.763  0.00  0.00    +0.000 A 
ATOM     24  F   UNL     1       0.188   9.959  21.673  0.00  0.00    +0.000 F 
ATOM     25  C   UNL     1       1.030   9.720  19.486  0.00  0.00    +0.000 A 
ATOM     26  C   UNL     1       1.701   8.941  18.548  0.00  0.00    +0.000 A 
ATOM     27  F   UNL     1       1.876   9.431  17.312  0.00  0.00    +0.000 F 
ENDBRANCH  19  20
ENDBRANCH  17  19
ENDBRANCH  16  17
ENDBRANCH  15  16
ENDBRANCH   1  15
TORSDOF 8
ENDMDL
MODEL 7
REMARK VINA RESULT:      -7.1      3.001      4.949
REMARK  Name = 
REMARK  8 active torsions:
REMARK  status: ('A' for Active; 'I' for Inactive)
REMARK    1  A    between atoms: N_11  and  C_12
REMARK    2  A    between atoms: C_12  and  C_13
REMARK    3  A    between atoms: C_13  and  C_14
REMARK    4  A    between atoms: C_14  and  C_15
REMARK    5  A    between atoms: C_15  and  C_16
REMARK    6  A    between atoms: C_16  and  N_17
REMARK    7  A    between atoms: N_17  and  C_18
REMARK    8  A    between atoms: C_18  and  C_19
REMARK                            x       y       z     vdW  Elec       q    Type
REMARK                         _______ _______ _______ _____ _____    ______ ____
ROOT
ATOM      1  C   UNL     1       3.347   6.543  17.818  0.00  0.00    +0.000 C 
ENDROOT
BRANCH   1   2
ATOM      2  C   UNL     1       4.856   6.799  17.864  0.00  0.00    +0.000 C 
BRANCH   2   3
ATOM      3  C   UNL     1       5.653   5.498  17.810  0.00  0.00    +0.000 C 
BRANCH   3  14
ATOM      4  O   UNL     1       4.266   3.540  16.055  0.00  0.00    +0.000 OA
ATOM      5  C   UNL     1       5.236   4.194  15.724  0.00  0.00    +0.000 C 
ATOM      6  C   UNL     1       5.850   4.136  14.397  0.00  0.00    +0.000 A 
ATOM      7  C   UNL     1       5.487   3.418  13.275  0.00  0.00    +0.000 A 
ATOM      8  C   UNL     1       6.270   3.589  12.127  0.00  0.00    +0.000 A 
ATOM      9  C   UNL     1       7.381   4.457  12.131  0.00  0.00    +0.000 A 
ATOM     10  C   UNL     1       7.725   5.177  13.282  0.00  0.00    +0.000 A 
ATOM     11  C   UNL     1       6.933   4.994  14.399  0.00  0.00    +0.000 A 
ATOM     12  C   UNL     1       7.007   5.608  15.723  0.00  0.00    +0.000 C 
ATOM     13  O   UNL     1       7.852   6.418  16.057  0.00  0.00    +0.000 OA
ATOM     14  N   UNL     1       5.960   5.103  16.447  0.00  0.00    +0.000 N 
ENDBRANCH   3  14
ENDBRANCH   2   3
ENDBRANCH   1   2
BRANCH   1  15
ATOM     15  C   UNL     1       2.587   7.761  18.345  0.00  0.00    +0.000 C 
BRANCH  15  16
ATOM     16  C   UNL     1       2.014   7.521  19.741  0.00  0.00    +0.000 C 
BRANCH  16  17
ATOM     17  N   UNL     1       2.702   6.376  20.333  0.00  0.00    +0.000 NA
ATOM     18  H   UNL     1       3.092   6.643  21.238  0.00  0.00    +0.000 HD
BRANCH  17  19
ATOM     19  C   UNL     1       1.801   5.238  20.522  0.00  0.00    +0.000 C 
BRANCH  19  20
ATOM     20  C   UNL     1       2.380   3.989  19.903  0.00  0.00    +0.000 A 
ATOM     21  C   UNL     1       3.619   3.492  20.343  0.00  0.00    +0.000 A 
ATOM     22  C   UNL     1       4.161   2.338  19.776  0.00  0.00    +0.000 A 
ATOM     23  C   UNL     1       3.466   1.678  18.767  0.00  0.00    +0.000 A 
ATOM     24  F   UNL     1       3.987   0.568  18.227  0.00  0.00    +0.000 F 
ATOM     25  C   UNL     1       2.245   2.153  18.311  0.00  0.00    +0.000 A 
ATOM     26  C   UNL     1       1.714   3.307  18.877  0.00  0.00    +0.000 A 
ATOM     27  F   UNL     1       0.539   3.764  18.421  0.00  0.00    +0.000 F 
ENDBRANCH  19  20
ENDBRANCH  17  19
ENDBRANCH  16  17
ENDBRANCH  15  16
ENDBRANCH   1  15
TORSDOF 8
ENDMDL
MODEL 8
REMARK VINA RESULT:      -7.0      4.222      6.855
REMARK  Name = 
REMARK  8 active torsions:
REMARK  status: ('A' for Active; 'I' for Inactive)
REMARK    1  A    between atoms: N_11  and  C_12
REMARK    2  A    between atoms: C_12  and  C_13
REMARK    3  A    between atoms: C_13  and  C_14
REMARK    4  A    between atoms: C_14  and  C_15
REMARK    5  A    between atoms: C_15  and  C_16
REMARK    6  A    between atoms: C_16  and  N_17
REMARK    7  A    between atoms: N_17  and  C_18
REMARK    8  A    between atoms: C_18  and  C_19
REMARK                            x       y       z     vdW  Elec       q    Type
REMARK                         _______ _______ _______ _____ _____    ______ ____
ROOT
ATOM      1  C   UNL     1       6.708   5.866  16.616  0.00  0.00    +0.000 C 
ENDROOT
BRANCH   1   2
ATOM      2  C   UNL     1       5.275   5.467  16.255  0.00  0.00    +0.000 C 
BRANCH   2   3
ATOM      3  C   UNL     1       5.024   3.980  16.494  0.00  0.00    +0.000 C 
BRANCH   3  14
ATOM      4  O   UNL     1       2.087   3.518  16.509  0.00  0.00    +0.000 OA
ATOM      5  C   UNL     1       2.786   3.532  17.503  0.00  0.00    +0.000 C 
ATOM      6  C   UNL     1       2.289   3.292  18.858  0.00  0.00    +0.000 A 
ATOM      7  C   UNL     1       1.020   2.977  19.302  0.00  0.00    +0.000 A 
ATOM      8  C   UNL     1       0.855   2.783  20.678  0.00  0.00    +0.000 A 
ATOM      9  C   UNL     1       1.945   2.909  21.563  0.00  0.00    +0.000 A 
ATOM     10  C   UNL     1       3.224   3.226  21.087  0.00  0.00    +0.000 A 
ATOM     11  C   UNL     1       3.360   3.407  19.724  0.00  0.00    +0.000 A 
ATOM     12  C   UNL     1       4.544   3.712  18.922  0.00  0.00    +0.000 C 
ATOM     13  O   UNL     1       5.659   3.875  19.382  0.00  0.00    +0.000 OA
ATOM     14  N   UNL     1       4.133   3.750  17.617  0.00  0.00    +0.000 N 
ENDBRANCH   3  14
ENDBRANCH   2   3
ENDBRANCH   1   2
BRANCH   1  15
ATOM     15  C   UNL     1       6.743   7.304  17.136  0.00  0.00    +0.000 C 
BRANCH  15  16
ATOM     16  C   UNL     1       7.971   7.572  18.005  0.00  0.00    +0.000 C 
BRANCH  16  17
ATOM     17  N   UNL     1       8.219   9.012  18.022  0.00  0.00    +0.000 NA
ATOM     18  H   UNL     1       7.329   9.511  18.045  0.00  0.00    +0.000 HD
BRANCH  17  19
ATOM     19  C   UNL     1       9.017   9.414  19.181  0.00  0.00    +0.000 C 
BRANCH  19  20
ATOM     20  C   UNL     1       9.511  10.831  19.024  0.00  0.00    +0.000 A 
ATOM     21  C   UNL     1      10.015  11.270  17.788  0.00  0.00    +0.000 A 
ATOM     22  C   UNL     1      10.473  12.580  17.634  0.00  0.00    +0.000 A 
ATOM     23  C   UNL     1      10.429  13.453  18.717  0.00  0.00    +0.000 A 
ATOM     24  F   UNL     1      10.866  14.710  18.565  0.00  0.00    +0.000 F 
ATOM     25  C   UNL     1       9.943  13.042  19.948  0.00  0.00    +0.000 A 
ATOM     26  C   UNL     1       9.493  11.733  20.095  0.00  0.00    +0.000 A 
ATOM     27  F   UNL     1       9.035  11.342  21.293  0.00  0.00    +0.000 F 
ENDBRANCH  19  20
ENDBRANCH  17  19
ENDBRANCH  16  17
ENDBRANCH  15  16
ENDBRANCH   1  15
TORSDOF 8
ENDMDL
MODEL 9
REMARK VINA RESULT:      -7.0      2.161      3.219
REMARK  Name = 
REMARK  8 active torsions:
REMARK  status: ('A' for Active; 'I' for Inactive)
REMARK    1  A    between atoms: N_11  and  C_12
REMARK    2  A    between atoms: C_12  and  C_13
REMARK    3  A    between atoms: C_13  and  C_14
REMARK    4  A    between atoms: C_14  and  C_15
REMARK    5  A    between atoms: C_15  and  C_16
REMARK    6  A    between atoms: C_16  and  N_17
REMARK    7  A    between atoms: N_17  and  C_18
REMARK    8  A    between atoms: C_18  and  C_19
REMARK                            x       y       z     vdW  Elec       q    Type
REMARK                         _______ _______ _______ _____ _____    ______ ____
ROOT
ATOM      1  C   UNL     1       1.061   3.964  19.623  0.00  0.00    +0.000 C 
ENDROOT
BRANCH   1   2
ATOM      2  C   UNL     1       1.690   2.656  20.108  0.00  0.00    +0.000 C 
BRANCH   2   3
ATOM      3  C   UNL     1       2.560   2.012  19.031  0.00  0.00    +0.000 C 
BRANCH   3  14
ATOM      4  O   UNL     1       2.539   3.607  16.522  0.00  0.00    +0.000 OA
ATOM      5  C   UNL     1       3.435   3.629  17.344  0.00  0.00    +0.000 C 
ATOM      6  C   UNL     1       4.627   4.469  17.234  0.00  0.00    +0.000 A 
ATOM      7  C   UNL     1       4.982   5.397  16.275  0.00  0.00    +0.000 A 
ATOM      8  C   UNL     1       6.196   6.070  16.455  0.00  0.00    +0.000 A 
ATOM      9  C   UNL     1       7.014   5.801  17.572  0.00  0.00    +0.000 A 
ATOM     10  C   UNL     1       6.629   4.857  18.533  0.00  0.00    +0.000 A 
ATOM     11  C   UNL     1       5.424   4.211  18.333  0.00  0.00    +0.000 A 
ATOM     12  C   UNL     1       4.738   3.213  19.150  0.00  0.00    +0.000 C 
ATOM     13  O   UNL     1       5.173   2.765  20.195  0.00  0.00    +0.000 OA
ATOM     14  N   UNL     1       3.559   2.930  18.514  0.00  0.00    +0.000 N 
ENDBRANCH   3  14
ENDBRANCH   2   3
ENDBRANCH   1   2
BRANCH   1  15
ATOM     15  C   UNL     1       1.390   5.101  20.591  0.00  0.00    +0.000 C 
BRANCH  15  16
ATOM     16  C   UNL     1       2.354   6.117  19.980  0.00  0.00    +0.000 C 
BRANCH  16  17
ATOM     17  N   UNL     1       2.199   7.386  20.688  0.00  0.00    +0.000 NA
ATOM     18  H   UNL     1       3.120   7.782  20.881  0.00  0.00    +0.000 HD
BRANCH  17  19
ATOM     19  C   UNL     1       1.421   8.351  19.912  0.00  0.00    +0.000 C 
BRANCH  19  20
ATOM     20  C   UNL     1       0.717   9.326  20.823  0.00  0.00    +0.000 A 
ATOM     21  C   UNL     1       0.105   8.873  22.004  0.00  0.00    +0.000 A 
ATOM     22  C   UNL     1      -0.547   9.769  22.853  0.00  0.00    +0.000 A 
ATOM     23  C   UNL     1      -0.590  11.120  22.522  0.00  0.00    +0.000 A 
ATOM     24  F   UNL     1      -1.214  11.978  23.341  0.00  0.00    +0.000 F 
ATOM     25  C   UNL     1      -0.000  11.590  21.359  0.00  0.00    +0.000 A 
ATOM     26  C   UNL     1       0.644  10.691  20.515  0.00  0.00    +0.000 A 
ATOM     27  F   UNL     1       1.201  11.154  19.387  0.00  0.00    +0.000 F 
ENDBRANCH  19  20
ENDBRANCH  17  19
ENDBRANCH  16  17
ENDBRANCH  15  16
ENDBRANCH   1  15
TORSDOF 8
ENDMDL
