MODEL 1
REMARK VINA RESULT:      -7.0      0.000      0.000
REMARK  Name = 
REMARK  4 active torsions:
REMARK  status: ('A' for Active; 'I' for Inactive)
REMARK    1  A    between atoms: C_1  and  S_2
REMARK    2  A    between atoms: S_2  and  C_3
REMARK    3  A    between atoms: N_12  and  C_13
REMARK    4  A    between atoms: C_13  and  C_14
REMARK                            x       y       z     vdW  Elec       q    Type
REMARK                         _______ _______ _______ _____ _____    ______ ____
ROOT
ATOM      1  C   UNL     1       6.818   5.694  17.024  0.00  0.00    +0.000 A 
ATOM      2  N   UNL     1       7.566   5.585  15.966  0.00  0.00    +0.000 NA
ATOM      3  C   UNL     1       6.963   4.930  14.891  0.00  0.00    +0.000 A 
ATOM      4  C   UNL     1       7.562   4.767  13.622  0.00  0.00    +0.000 A 
ATOM      5  C   UNL     1       6.711   4.107  12.756  0.00  0.00    +0.000 A 
ATOM      6  S   UNL     1       5.219   3.692  13.510  0.00  0.00    +0.000 S 
ATOM      7  C   UNL     1       5.708   4.406  14.967  0.00  0.00    +0.000 A 
ATOM      8  C   UNL     1       4.899   4.499  16.147  0.00  0.00    +0.000 A 
ATOM      9  O   UNL     1       3.770   4.023  16.248  0.00  0.00    +0.000 OA
ATOM     10  N   UNL     1       5.508   5.229  17.170  0.00  0.00    +0.000 N 
ENDROOT
BRANCH   1  12
ATOM     11  C   UNL     1       7.774   8.170  17.608  0.00  0.00    +0.000 C 
ATOM     12  S   UNL     1       7.529   6.559  18.386  0.00  0.00    +0.000 S 
ENDBRANCH   1  12
BRANCH  10  13
ATOM     13  C   UNL     1       4.703   5.421  18.381  0.00  0.00    +0.000 C 
BRANCH  13  14
ATOM     14  C   UNL     1       4.562   4.124  19.185  0.00  0.00    +0.000 C 
ATOM     15  O   UNL     1       5.540   3.439  19.494  0.00  0.00    +0.000 OA
ATOM     16  N   UNL     1       3.286   3.804  19.616  0.00  0.00    +0.000 N 
ATOM     17  C   UNL     1       2.031   4.448  19.275  0.00  0.00    +0.000 C 
ATOM     18  C   UNL     1       1.265   4.393  20.584  0.00  0.00    +0.000 C 
ATOM     19  C   UNL     1       1.671   3.044  21.174  0.00  0.00    +0.000 C 
ATOM     20  C   UNL     1       3.073   2.779  20.623  0.00  0.00    +0.000 C 
ENDBRANCH  13  14
ENDBRANCH  10  13
TORSDOF 3
ENDMDL
MODEL 2
REMARK VINA RESULT:      -6.5      1.027      1.388
REMARK  Name = 
REMARK  4 active torsions:
REMARK  status: ('A' for Active; 'I' for Inactive)
REMARK    1  A    between atoms: C_1  and  S_2
REMARK    2  A    between atoms: S_2  and  C_3
REMARK    3  A    between atoms: N_12  and  C_13
REMARK    4  A    between atoms: C_13  and  C_14
REMARK                            x       y       z     vdW  Elec       q    Type
REMARK                         _______ _______ _______ _____ _____    ______ ____
ROOT
ATOM      1  C   UNL     1       7.080   5.551  17.258  0.00  0.00    +0.000 A 
ATOM      2  N   UNL     1       7.597   5.749  16.081  0.00  0.00    +0.000 NA
ATOM      3  C   UNL     1       7.000   5.017  15.053  0.00  0.00    +0.000 A 
ATOM      4  C   UNL     1       7.349   5.133  13.689  0.00  0.00    +0.000 A 
ATOM      5  C   UNL     1       6.564   4.306  12.908  0.00  0.00    +0.000 A 
ATOM      6  S   UNL     1       5.439   3.405  13.849  0.00  0.00    +0.000 S 
ATOM      7  C   UNL     1       5.990   4.131  15.279  0.00  0.00    +0.000 A 
ATOM      8  C   UNL     1       5.446   3.892  16.584  0.00  0.00    +0.000 A 
ATOM      9  O   UNL     1       4.545   3.089  16.818  0.00  0.00    +0.000 OA
ATOM     10  N   UNL     1       6.016   4.701  17.569  0.00  0.00    +0.000 N 
ENDROOT
BRANCH   1  12
ATOM     11  C   UNL     1       7.876   8.102  17.755  0.00  0.00    +0.000 C 
ATOM     12  S   UNL     1       7.776   6.495  18.574  0.00  0.00    +0.000 S 
ENDBRANCH   1  12
BRANCH  10  13
ATOM     13  C   UNL     1       5.454   4.554  18.916  0.00  0.00    +0.000 C 
BRANCH  13  14
ATOM     14  C   UNL     1       4.078   5.218  19.037  0.00  0.00    +0.000 C 
ATOM     15  O   UNL     1       3.844   6.325  18.545  0.00  0.00    +0.000 OA
ATOM     16  N   UNL     1       3.090   4.476  19.659  0.00  0.00    +0.000 N 
ATOM     17  C   UNL     1       3.217   3.210  20.358  0.00  0.00    +0.000 C 
ATOM     18  C   UNL     1       1.939   2.489  19.971  0.00  0.00    +0.000 C 
ATOM     19  C   UNL     1       0.901   3.609  19.929  0.00  0.00    +0.000 C 
ATOM     20  C   UNL     1       1.694   4.867  19.569  0.00  0.00    +0.000 C 
ENDBRANCH  13  14
ENDBRANCH  10  13
TORSDOF 3
ENDMDL
MODEL 3
REMARK VINA RESULT:      -6.2      3.496      6.757
REMARK  Name = 
REMARK  4 active torsions:
REMARK  status: ('A' for Active; 'I' for Inactive)
REMARK    1  A    between atoms: C_1  and  S_2
REMARK    2  A    between atoms: S_2  and  C_3
REMARK    3  A    between atoms: N_12  and  C_13
REMARK    4  A    between atoms: C_13  and  C_14
REMARK                            x       y       z     vdW  Elec       q    Type
REMARK                         _______ _______ _______ _____ _____    ______ ____
ROOT
ATOM      1  C   UNL     1       2.115   6.169  20.192  0.00  0.00    +0.000 A 
ATOM      2  N   UNL     1       1.474   7.037  20.919  0.00  0.00    +0.000 NA
ATOM      3  C   UNL     1       1.312   8.288  20.322  0.00  0.00    +0.000 A 
ATOM      4  C   UNL     1       0.585   9.354  20.897  0.00  0.00    +0.000 A 
ATOM      5  C   UNL     1       0.574  10.453  20.059  0.00  0.00    +0.000 A 
ATOM      6  S   UNL     1       1.457  10.166  18.609  0.00  0.00    +0.000 S 
ATOM      7  C   UNL     1       1.828   8.585  19.097  0.00  0.00    +0.000 A 
ATOM      8  C   UNL     1       2.562   7.635  18.313  0.00  0.00    +0.000 A 
ATOM      9  O   UNL     1       3.050   7.881  17.212  0.00  0.00    +0.000 OA
ATOM     10  N   UNL     1       2.633   6.375  18.911  0.00  0.00    +0.000 N 
ENDROOT
BRANCH   1  12
ATOM     11  C   UNL     1       0.812   3.784  20.221  0.00  0.00    +0.000 C 
ATOM     12  S   UNL     1       2.297   4.561  20.892  0.00  0.00    +0.000 S 
ENDBRANCH   1  12
BRANCH  10  13
ATOM     13  C   UNL     1       3.312   5.337  18.126  0.00  0.00    +0.000 C 
BRANCH  13  14
ATOM     14  C   UNL     1       4.835   5.409  18.281  0.00  0.00    +0.000 C 
ATOM     15  O   UNL     1       5.379   5.408  19.388  0.00  0.00    +0.000 OA
ATOM     16  N   UNL     1       5.572   5.393  17.110  0.00  0.00    +0.000 N 
ATOM     17  C   UNL     1       5.095   5.478  15.742  0.00  0.00    +0.000 C 
ATOM     18  C   UNL     1       6.023   4.527  15.008  0.00  0.00    +0.000 C 
ATOM     19  C   UNL     1       7.365   4.734  15.707  0.00  0.00    +0.000 C 
ATOM     20  C   UNL     1       7.006   5.157  17.132  0.00  0.00    +0.000 C 
ENDBRANCH  13  14
ENDBRANCH  10  13
TORSDOF 3
ENDMDL
MODEL 4
REMARK VINA RESULT:      -5.9      2.970      6.688
REMARK  Name = 
REMARK  4 active torsions:
REMARK  status: ('A' for Active; 'I' for Inactive)
REMARK    1  A    between atoms: C_1  and  S_2
REMARK    2  A    between atoms: S_2  and  C_3
REMARK    3  A    between atoms: N_12  and  C_13
REMARK    4  A    between atoms: C_13  and  C_14
REMARK                            x       y       z     vdW  Elec       q    Type
REMARK                         _______ _______ _______ _____ _____    ______ ____
ROOT
ATOM      1  C   UNL     1       2.299   5.004  19.848  0.00  0.00    +0.000 A 
ATOM      2  N   UNL     1       1.681   5.662  20.784  0.00  0.00    +0.000 NA
ATOM      3  C   UNL     1       1.534   7.028  20.535  0.00  0.00    +0.000 A 
ATOM      4  C   UNL     1       0.831   7.918  21.377  0.00  0.00    +0.000 A 
ATOM      5  C   UNL     1       0.831   9.196  20.853  0.00  0.00    +0.000 A 
ATOM      6  S   UNL     1       1.693   9.284  19.365  0.00  0.00    +0.000 S 
ATOM      7  C   UNL     1       2.042   7.626  19.421  0.00  0.00    +0.000 A 
ATOM      8  C   UNL     1       2.752   6.902  18.408  0.00  0.00    +0.000 A 
ATOM      9  O   UNL     1       3.233   7.418  17.401  0.00  0.00    +0.000 OA
ATOM     10  N   UNL     1       2.808   5.528  18.656  0.00  0.00    +0.000 N 
ENDROOT
BRANCH   1  12
ATOM     11  C   UNL     1       1.810   3.162  21.785  0.00  0.00    +0.000 C 
ATOM     12  S   UNL     1       2.461   3.267  20.104  0.00  0.00    +0.000 S 
ENDBRANCH   1  12
BRANCH  10  13
ATOM     13  C   UNL     1       3.461   4.721  17.620  0.00  0.00    +0.000 C 
BRANCH  13  14
ATOM     14  C   UNL     1       4.988   4.740  17.758  0.00  0.00    +0.000 C 
ATOM     15  O   UNL     1       5.550   4.453  18.817  0.00  0.00    +0.000 OA
ATOM     16  N   UNL     1       5.704   5.018  16.608  0.00  0.00    +0.000 N 
ATOM     17  C   UNL     1       5.205   5.453  15.316  0.00  0.00    +0.000 C 
ATOM     18  C   UNL     1       6.109   4.714  14.346  0.00  0.00    +0.000 C 
ATOM     19  C   UNL     1       7.465   4.727  15.049  0.00  0.00    +0.000 C 
ATOM     20  C   UNL     1       7.135   4.774  16.541  0.00  0.00    +0.000 C 
ENDBRANCH  13  14
ENDBRANCH  10  13
TORSDOF 3
ENDMDL
MODEL 5
REMARK VINA RESULT:      -5.8      1.311      1.765
REMARK  Name = 
REMARK  4 active torsions:
REMARK  status: ('A' for Active; 'I' for Inactive)
REMARK    1  A    between atoms: C_1  and  S_2
REMARK    2  A    between atoms: S_2  and  C_3
REMARK    3  A    between atoms: N_12  and  C_13
REMARK    4  A    between atoms: C_13  and  C_14
REMARK                            x       y       z     vdW  Elec       q    Type
REMARK                         _______ _______ _______ _____ _____    ______ ____
ROOT
ATOM      1  C   UNL     1       6.961   5.451  16.752  0.00  0.00    +0.000 A 
ATOM      2  N   UNL     1       7.644   5.573  15.652  0.00  0.00    +0.000 NA
ATOM      3  C   UNL     1       7.079   4.940  14.543  0.00  0.00    +0.000 A 
ATOM      4  C   UNL     1       7.608   5.006  13.235  0.00  0.00    +0.000 A 
ATOM      5  C   UNL     1       6.815   4.306  12.346  0.00  0.00    +0.000 A 
ATOM      6  S   UNL     1       5.462   3.578  13.124  0.00  0.00    +0.000 S 
ATOM      7  C   UNL     1       5.930   4.212  14.625  0.00  0.00    +0.000 A 
ATOM      8  C   UNL     1       5.199   4.052  15.848  0.00  0.00    +0.000 A 
ATOM      9  O   UNL     1       4.169   3.389  15.952  0.00  0.00    +0.000 OA
ATOM     10  N   UNL     1       5.754   4.765  16.913  0.00  0.00    +0.000 N 
ENDROOT
BRANCH   1  12
ATOM     11  C   UNL     1       7.641   7.967  17.523  0.00  0.00    +0.000 C 
ATOM     12  S   UNL     1       7.618   6.278  18.163  0.00  0.00    +0.000 S 
ENDBRANCH   1  12
BRANCH  10  13
ATOM     13  C   UNL     1       5.013   4.699  18.177  0.00  0.00    +0.000 C 
BRANCH  13  14
ATOM     14  C   UNL     1       4.153   5.948  18.402  0.00  0.00    +0.000 C 
ATOM     15  O   UNL     1       4.188   6.910  17.631  0.00  0.00    +0.000 OA
ATOM     16  N   UNL     1       3.277   5.905  19.471  0.00  0.00    +0.000 N 
ATOM     17  C   UNL     1       3.169   4.898  20.511  0.00  0.00    +0.000 C 
ATOM     18  C   UNL     1       1.671   4.812  20.735  0.00  0.00    +0.000 C 
ATOM     19  C   UNL     1       1.206   6.258  20.569  0.00  0.00    +0.000 C 
ATOM     20  C   UNL     1       2.215   6.887  19.606  0.00  0.00    +0.000 C 
ENDBRANCH  13  14
ENDBRANCH  10  13
TORSDOF 3
ENDMDL
MODEL 6
REMARK VINA RESULT:      -5.6     11.757     13.487
REMARK  Name = 
REMARK  4 active torsions:
REMARK  status: ('A' for Active; 'I' for Inactive)
REMARK    1  A    between atoms: C_1  and  S_2
REMARK    2  A    between atoms: S_2  and  C_3
REMARK    3  A    between atoms: N_12  and  C_13
REMARK    4  A    between atoms: C_13  and  C_14
REMARK                            x       y       z     vdW  Elec       q    Type
REMARK                         _______ _______ _______ _____ _____    ______ ____
ROOT
ATOM      1  C   UNL     1      -5.529  12.236  17.963  0.00  0.00    +0.000 A 
ATOM      2  N   UNL     1      -4.995  11.477  17.053  0.00  0.00    +0.000 NA
ATOM      3  C   UNL     1      -3.703  11.038  17.346  0.00  0.00    +0.000 A 
ATOM      4  C   UNL     1      -2.964  10.146  16.538  0.00  0.00    +0.000 A 
ATOM      5  C   UNL     1      -1.732   9.873  17.102  0.00  0.00    +0.000 A 
ATOM      6  S   UNL     1      -1.502  10.717  18.585  0.00  0.00    +0.000 S 
ATOM      7  C   UNL     1      -3.041  11.419  18.474  0.00  0.00    +0.000 A 
ATOM      8  C   UNL     1      -3.621  12.284  19.459  0.00  0.00    +0.000 A 
ATOM      9  O   UNL     1      -3.042  12.654  20.478  0.00  0.00    +0.000 OA
ATOM     10  N   UNL     1      -4.941  12.635  19.167  0.00  0.00    +0.000 N 
ENDROOT
BRANCH   1  12
ATOM     11  C   UNL     1      -6.825  14.292  16.745  0.00  0.00    +0.000 C 
ATOM     12  S   UNL     1      -7.180  12.770  17.651  0.00  0.00    +0.000 S 
ENDBRANCH   1  12
BRANCH  10  13
ATOM     13  C   UNL     1      -5.616  13.463  20.172  0.00  0.00    +0.000 C 
BRANCH  13  14
ATOM     14  C   UNL     1      -6.434  12.618  21.154  0.00  0.00    +0.000 C 
ATOM     15  O   UNL     1      -6.483  11.388  21.071  0.00  0.00    +0.000 OA
ATOM     16  N   UNL     1      -7.051  13.301  22.187  0.00  0.00    +0.000 N 
ATOM     17  C   UNL     1      -7.161  14.735  22.381  0.00  0.00    +0.000 C 
ATOM     18  C   UNL     1      -7.010  14.878  23.884  0.00  0.00    +0.000 C 
ATOM     19  C   UNL     1      -7.732  13.648  24.430  0.00  0.00    +0.000 C 
ATOM     20  C   UNL     1      -7.595  12.592  23.332  0.00  0.00    +0.000 C 
ENDBRANCH  13  14
ENDBRANCH  10  13
TORSDOF 3
ENDMDL
MODEL 7
REMARK VINA RESULT:      -5.5      4.115      5.718
REMARK  Name = 
REMARK  4 active torsions:
REMARK  status: ('A' for Active; 'I' for Inactive)
REMARK    1  A    between atoms: C_1  and  S_2
REMARK    2  A    between atoms: S_2  and  C_3
REMARK    3  A    between atoms: N_12  and  C_13
REMARK    4  A    between atoms: C_13  and  C_14
REMARK                            x       y       z     vdW  Elec       q    Type
REMARK                         _______ _______ _______ _____ _____    ______ ____
ROOT
ATOM      1  C   UNL     1       3.713   5.679  17.798  0.00  0.00    +0.000 A 
ATOM      2  N   UNL     1       3.618   4.436  17.430  0.00  0.00    +0.000 NA
ATOM      3  C   UNL     1       2.685   3.686  18.148  0.00  0.00    +0.000 A 
ATOM      4  C   UNL     1       2.363   2.340  17.869  0.00  0.00    +0.000 A 
ATOM      5  C   UNL     1       1.385   1.878  18.728  0.00  0.00    +0.000 A 
ATOM      6  S   UNL     1       0.896   3.083  19.857  0.00  0.00    +0.000 S 
ATOM      7  C   UNL     1       1.971   4.209  19.184  0.00  0.00    +0.000 A 
ATOM      8  C   UNL     1       2.104   5.571  19.609  0.00  0.00    +0.000 A 
ATOM      9  O   UNL     1       1.483   6.064  20.548  0.00  0.00    +0.000 OA
ATOM     10  N   UNL     1       2.987   6.306  18.815  0.00  0.00    +0.000 N 
ENDROOT
BRANCH   1  12
ATOM     11  C   UNL     1       5.381   5.448  15.665  0.00  0.00    +0.000 C 
ATOM     12  S   UNL     1       4.846   6.671  16.881  0.00  0.00    +0.000 S 
ENDBRANCH   1  12
BRANCH  10  13
ATOM     13  C   UNL     1       3.115   7.728  19.154  0.00  0.00    +0.000 C 
BRANCH  13  14
ATOM     14  C   UNL     1       2.147   8.598  18.346  0.00  0.00    +0.000 C 
ATOM     15  O   UNL     1       2.131   8.583  17.113  0.00  0.00    +0.000 OA
ATOM     16  N   UNL     1       1.236   9.343  19.074  0.00  0.00    +0.000 N 
ATOM     17  C   UNL     1       1.173   9.537  20.511  0.00  0.00    +0.000 C 
ATOM     18  C   UNL     1      -0.320   9.540  20.780  0.00  0.00    +0.000 C 
ATOM     19  C   UNL     1      -0.897  10.255  19.559  0.00  0.00    +0.000 C 
ATOM     20  C   UNL     1       0.092   9.964  18.429  0.00  0.00    +0.000 C 
ENDBRANCH  13  14
ENDBRANCH  10  13
TORSDOF 3
ENDMDL
MODEL 8
REMARK VINA RESULT:      -5.5      2.447      5.521
REMARK  Name = 
REMARK  4 active torsions:
REMARK  status: ('A' for Active; 'I' for Inactive)
REMARK    1  A    between atoms: C_1  and  S_2
REMARK    2  A    between atoms: S_2  and  C_3
REMARK    3  A    between atoms: N_12  and  C_13
REMARK    4  A    between atoms: C_13  and  C_14
REMARK                            x       y       z     vdW  Elec       q    Type
REMARK                         _______ _______ _______ _____ _____    ______ ____
ROOT
ATOM      1  C   UNL     1       3.354   5.957  18.169  0.00  0.00    +0.000 A 
ATOM      2  N   UNL     1       2.151   5.485  18.029  0.00  0.00    +0.000 NA
ATOM      3  C   UNL     1       1.990   4.164  18.450  0.00  0.00    +0.000 A 
ATOM      4  C   UNL     1       0.756   3.478  18.459  0.00  0.00    +0.000 A 
ATOM      5  C   UNL     1       0.908   2.198  18.957  0.00  0.00    +0.000 A 
ATOM      6  S   UNL     1       2.541   1.861  19.385  0.00  0.00    +0.000 S 
ATOM      7  C   UNL     1       3.027   3.418  18.924  0.00  0.00    +0.000 A 
ATOM      8  C   UNL     1       4.360   3.932  19.046  0.00  0.00    +0.000 A 
ATOM      9  O   UNL     1       5.316   3.277  19.456  0.00  0.00    +0.000 OA
ATOM     10  N   UNL     1       4.460   5.279  18.689  0.00  0.00    +0.000 N 
ENDROOT
BRANCH   1  12
ATOM     11  C   UNL     1       1.949   8.283  18.110  0.00  0.00    +0.000 C 
ATOM     12  S   UNL     1       3.584   7.639  17.694  0.00  0.00    +0.000 S 
ENDBRANCH   1  12
BRANCH  10  13
ATOM     13  C   UNL     1       5.786   5.884  18.859  0.00  0.00    +0.000 C 
BRANCH  13  14
ATOM     14  C   UNL     1       6.845   5.194  17.991  0.00  0.00    +0.000 C 
ATOM     15  O   UNL     1       7.797   4.587  18.486  0.00  0.00    +0.000 OA
ATOM     16  N   UNL     1       6.632   5.222  16.625  0.00  0.00    +0.000 N 
ATOM     17  C   UNL     1       5.622   5.954  15.883  0.00  0.00    +0.000 C 
ATOM     18  C   UNL     1       5.248   4.979  14.782  0.00  0.00    +0.000 C 
ATOM     19  C   UNL     1       6.577   4.308  14.439  0.00  0.00    +0.000 C 
ATOM     20  C   UNL     1       7.391   4.362  15.733  0.00  0.00    +0.000 C 
ENDBRANCH  13  14
ENDBRANCH  10  13
TORSDOF 3
ENDMDL
MODEL 9
REMARK VINA RESULT:      -5.5      6.650      8.362
REMARK  Name = 
REMARK  4 active torsions:
REMARK  status: ('A' for Active; 'I' for Inactive)
REMARK    1  A    between atoms: C_1  and  S_2
REMARK    2  A    between atoms: S_2  and  C_3
REMARK    3  A    between atoms: N_12  and  C_13
REMARK    4  A    between atoms: C_13  and  C_14
REMARK                            x       y       z     vdW  Elec       q    Type
REMARK                         _______ _______ _______ _____ _____    ______ ____
ROOT
ATOM      1  C   UNL     1       0.713   9.040  20.560  0.00  0.00    +0.000 A 
ATOM      2  N   UNL     1       1.133   7.893  21.005  0.00  0.00    +0.000 NA
ATOM      3  C   UNL     1       1.974   7.202  20.131  0.00  0.00    +0.000 A 
ATOM      4  C   UNL     1       2.606   5.976  20.438  0.00  0.00    +0.000 A 
ATOM      5  C   UNL     1       3.398   5.554  19.388  0.00  0.00    +0.000 A 
ATOM      6  S   UNL     1       3.343   6.645  18.058  0.00  0.00    +0.000 S 
ATOM      7  C   UNL     1       2.285   7.674  18.891  0.00  0.00    +0.000 A 
ATOM      8  C   UNL     1       1.791   8.924  18.392  0.00  0.00    +0.000 A 
ATOM      9  O   UNL     1       2.045   9.367  17.273  0.00  0.00    +0.000 OA
ATOM     10  N   UNL     1       1.020   9.619  19.326  0.00  0.00    +0.000 N 
ENDROOT
BRANCH   1  12
ATOM     11  C   UNL     1       0.344   9.373  23.232  0.00  0.00    +0.000 C 
ATOM     12  S   UNL     1      -0.312   9.964  21.657  0.00  0.00    +0.000 S 
ENDBRANCH   1  12
BRANCH  10  13
ATOM     13  C   UNL     1       0.543  10.939  18.900  0.00  0.00    +0.000 C 
BRANCH  13  14
ATOM     14  C   UNL     1      -0.879  10.878  18.333  0.00  0.00    +0.000 C 
ATOM     15  O   UNL     1      -1.220  10.015  17.520  0.00  0.00    +0.000 OA
ATOM     16  N   UNL     1      -1.783  11.793  18.842  0.00  0.00    +0.000 N 
ATOM     17  C   UNL     1      -1.531  12.913  19.730  0.00  0.00    +0.000 C 
ATOM     18  C   UNL     1      -2.754  12.907  20.627  0.00  0.00    +0.000 C 
ATOM     19  C   UNL     1      -3.883  12.501  19.682  0.00  0.00    +0.000 C 
ATOM     20  C   UNL     1      -3.210  11.642  18.610  0.00  0.00    +0.000 C 
ENDBRANCH  13  14
ENDBRANCH  10  13
TORSDOF 3
ENDMDL
