MODEL 1
REMARK VINA RESULT:      -8.4      0.000      0.000
REMARK  Name = 
REMARK  6 active torsions:
REMARK  status: ('A' for Active; 'I' for Inactive)
REMARK    1  A    between atoms: C_6  and  C_7
REMARK    2  A    between atoms: C_6  and  C_22
REMARK    3  A    between atoms: C_7  and  N_8
REMARK    4  A    between atoms: C_9  and  C_11
REMARK    5  A    between atoms: N_14  and  C_15
REMARK    6  A    between atoms: C_22  and  C_23
REMARK                            x       y       z     vdW  Elec       q    Type
REMARK                         _______ _______ _______ _____ _____    ______ ____
ROOT
ATOM      1  N   UNL     1       4.763   4.038  18.837  0.00  0.00    +0.000 N 
ATOM      2  C   UNL     1       5.881   4.844  18.859  0.00  0.00    +0.000 C 
ATOM      3  O   UNL     1       6.390   5.257  19.897  0.00  0.00    +0.000 OA
ATOM      4  H   UNL     1       4.429   3.751  17.919  0.00  0.00    +0.000 HD
ENDROOT
BRANCH   2   5
ATOM      5  C   UNL     1       6.421   5.153  17.536  0.00  0.00    +0.000 A 
ATOM      6  C   UNL     1       7.342   6.161  17.208  0.00  0.00    +0.000 A 
ATOM      7  N   UNL     1       7.639   6.123  15.910  0.00  0.00    +0.000 NA
ATOM      8  N   UNL     1       6.865   5.093  15.468  0.00  0.00    +0.000 N 
ATOM      9  N   UNL     1       6.107   4.467  16.418  0.00  0.00    +0.000 NA
BRANCH   8  10
ATOM     10  C   UNL     1       6.859   4.690  14.107  0.00  0.00    +0.000 A 
ATOM     11  C   UNL     1       5.975   3.692  13.670  0.00  0.00    +0.000 A 
ATOM     12  C   UNL     1       5.972   3.298  12.330  0.00  0.00    +0.000 A 
ATOM     13  C   UNL     1       6.853   3.891  11.426  0.00  0.00    +0.000 A 
ATOM     14  C   UNL     1       7.736   4.881  11.855  0.00  0.00    +0.000 A 
ATOM     15  C   UNL     1       7.740   5.287  13.192  0.00  0.00    +0.000 A 
ENDBRANCH   8  10
ENDBRANCH   2   5
BRANCH   1  16
ATOM     16  C   UNL     1       4.121   3.549  20.050  0.00  0.00    +0.000 C 
BRANCH  16  22
ATOM     17  O   UNL     1       0.065   2.246  18.498  0.00  0.00    +0.000 OA
ATOM     18  C   UNL     1       0.841   2.713  19.311  0.00  0.00    +0.000 C 
ATOM     19  N   UNL     1       0.907   2.390  20.623  0.00  0.00    +0.000 N 
ATOM     20  C   UNL     1       1.966   2.999  21.218  0.00  0.00    +0.000 C 
ATOM     21  O   UNL     1       2.316   2.823  22.377  0.00  0.00    +0.000 OA
ATOM     22  C   UNL     1       2.638   3.939  20.204  0.00  0.00    +0.000 C 
ATOM     23  N   UNL     1       1.818   3.637  19.040  0.00  0.00    +0.000 N 
ATOM     24  H   UNL     1       0.321   1.697  21.058  0.00  0.00    +0.000 HD
ATOM     25  H   UNL     1       2.024   3.917  18.088  0.00  0.00    +0.000 HD
BRANCH  22  26
ATOM     26  C   UNL     1       2.429   5.386  20.692  0.00  0.00    +0.000 C 
BRANCH  26  27
ATOM     27  C   UNL     1       1.853   6.314  19.656  0.00  0.00    +0.000 C 
ATOM     28  C   UNL     1       1.964   7.806  19.864  0.00  0.00    +0.000 C 
ATOM     29  C   UNL     1       2.759   7.142  18.776  0.00  0.00    +0.000 C 
ENDBRANCH  26  27
ENDBRANCH  22  26
ENDBRANCH  16  22
ENDBRANCH   1  16
TORSDOF 6
ENDMDL
MODEL 2
REMARK VINA RESULT:      -8.4      2.972      8.535
REMARK  Name = 
REMARK  6 active torsions:
REMARK  status: ('A' for Active; 'I' for Inactive)
REMARK    1  A    between atoms: C_6  and  C_7
REMARK    2  A    between atoms: C_6  and  C_22
REMARK    3  A    between atoms: C_7  and  N_8
REMARK    4  A    between atoms: C_9  and  C_11
REMARK    5  A    between atoms: N_14  and  C_15
REMARK    6  A    between atoms: C_22  and  C_23
REMARK                            x       y       z     vdW  Elec       q    Type
REMARK                         _______ _______ _______ _____ _____    ______ ____
ROOT
ATOM      1  N   UNL     1       3.964   6.080  17.462  0.00  0.00    +0.000 N 
ATOM      2  C   UNL     1       3.388   6.124  18.714  0.00  0.00    +0.000 C 
ATOM      3  O   UNL     1       3.545   5.244  19.555  0.00  0.00    +0.000 OA
ATOM      4  H   UNL     1       3.769   6.866  16.846  0.00  0.00    +0.000 HD
ENDROOT
BRANCH   2   5
ATOM      5  C   UNL     1       2.587   7.321  18.961  0.00  0.00    +0.000 A 
ATOM      6  C   UNL     1       2.261   8.330  18.041  0.00  0.00    +0.000 A 
ATOM      7  N   UNL     1       1.480   9.250  18.608  0.00  0.00    +0.000 NA
ATOM      8  N   UNL     1       1.365   8.782  19.882  0.00  0.00    +0.000 N 
ATOM      9  N   UNL     1       2.017   7.612  20.149  0.00  0.00    +0.000 NA
BRANCH   8  10
ATOM     10  C   UNL     1       0.603   9.467  20.865  0.00  0.00    +0.000 A 
ATOM     11  C   UNL     1       0.552   8.983  22.181  0.00  0.00    +0.000 A 
ATOM     12  C   UNL     1      -0.199   9.660  23.146  0.00  0.00    +0.000 A 
ATOM     13  C   UNL     1      -0.903  10.812  22.801  0.00  0.00    +0.000 A 
ATOM     14  C   UNL     1      -0.858  11.296  21.493  0.00  0.00    +0.000 A 
ATOM     15  C   UNL     1      -0.104  10.630  20.524  0.00  0.00    +0.000 A 
ENDBRANCH   8  10
ENDBRANCH   2   5
BRANCH   1  16
ATOM     16  C   UNL     1       4.864   5.012  17.046  0.00  0.00    +0.000 C 
BRANCH  16  22
ATOM     17  O   UNL     1       7.463   8.711  17.407  0.00  0.00    +0.000 OA
ATOM     18  C   UNL     1       7.241   7.515  17.355  0.00  0.00    +0.000 C 
ATOM     19  N   UNL     1       7.734   6.577  18.196  0.00  0.00    +0.000 N 
ATOM     20  C   UNL     1       7.188   5.360  17.936  0.00  0.00    +0.000 C 
ATOM     21  O   UNL     1       7.388   4.347  18.592  0.00  0.00    +0.000 OA
ATOM     22  C   UNL     1       6.293   5.468  16.690  0.00  0.00    +0.000 C 
ATOM     23  N   UNL     1       6.420   6.896  16.445  0.00  0.00    +0.000 N 
ATOM     24  H   UNL     1       8.328   6.787  18.980  0.00  0.00    +0.000 HD
ATOM     25  H   UNL     1       5.849   7.436  15.804  0.00  0.00    +0.000 HD
BRANCH  22  26
ATOM     26  C   UNL     1       6.944   4.634  15.569  0.00  0.00    +0.000 C 
BRANCH  26  27
ATOM     27  C   UNL     1       6.319   4.823  14.212  0.00  0.00    +0.000 C 
ATOM     28  C   UNL     1       7.201   4.796  12.987  0.00  0.00    +0.000 C 
ATOM     29  C   UNL     1       6.235   3.674  13.237  0.00  0.00    +0.000 C 
ENDBRANCH  26  27
ENDBRANCH  22  26
ENDBRANCH  16  22
ENDBRANCH   1  16
TORSDOF 6
ENDMDL
MODEL 3
REMARK VINA RESULT:      -8.3      3.162      8.685
REMARK  Name = 
REMARK  6 active torsions:
REMARK  status: ('A' for Active; 'I' for Inactive)
REMARK    1  A    between atoms: C_6  and  C_7
REMARK    2  A    between atoms: C_6  and  C_22
REMARK    3  A    between atoms: C_7  and  N_8
REMARK    4  A    between atoms: C_9  and  C_11
REMARK    5  A    between atoms: N_14  and  C_15
REMARK    6  A    between atoms: C_22  and  C_23
REMARK                            x       y       z     vdW  Elec       q    Type
REMARK                         _______ _______ _______ _____ _____    ______ ____
ROOT
ATOM      1  N   UNL     1       4.348   6.596  17.877  0.00  0.00    +0.000 N 
ATOM      2  C   UNL     1       3.025   6.409  18.216  0.00  0.00    +0.000 C 
ATOM      3  O   UNL     1       2.475   5.312  18.188  0.00  0.00    +0.000 OA
ATOM      4  H   UNL     1       4.702   7.549  17.940  0.00  0.00    +0.000 HD
ENDROOT
BRANCH   2   5
ATOM      5  C   UNL     1       2.337   7.629  18.632  0.00  0.00    +0.000 A 
ATOM      6  C   UNL     1       2.104   8.779  17.859  0.00  0.00    +0.000 A 
ATOM      7  N   UNL     1       1.410   9.680  18.553  0.00  0.00    +0.000 NA
ATOM      8  N   UNL     1       1.253   9.058  19.755  0.00  0.00    +0.000 N 
ATOM      9  N   UNL     1       1.796   7.808  19.855  0.00  0.00    +0.000 NA
BRANCH   8  10
ATOM     10  C   UNL     1       0.558   9.671  20.831  0.00  0.00    +0.000 A 
ATOM     11  C   UNL     1      -0.016  10.941  20.667  0.00  0.00    +0.000 A 
ATOM     12  C   UNL     1      -0.700  11.540  21.728  0.00  0.00    +0.000 A 
ATOM     13  C   UNL     1      -0.806  10.882  22.952  0.00  0.00    +0.000 A 
ATOM     14  C   UNL     1      -0.235   9.620  23.121  0.00  0.00    +0.000 A 
ATOM     15  C   UNL     1       0.444   9.010  22.063  0.00  0.00    +0.000 A 
ENDBRANCH   8  10
ENDBRANCH   2   5
BRANCH   1  16
ATOM     16  C   UNL     1       5.231   5.496  17.514  0.00  0.00    +0.000 C 
BRANCH  16  22
ATOM     17  O   UNL     1       7.956   9.105  17.847  0.00  0.00    +0.000 OA
ATOM     18  C   UNL     1       7.695   7.918  17.785  0.00  0.00    +0.000 C 
ATOM     19  N   UNL     1       8.183   6.952  18.596  0.00  0.00    +0.000 N 
ATOM     20  C   UNL     1       7.591   5.756  18.336  0.00  0.00    +0.000 C 
ATOM     21  O   UNL     1       7.779   4.728  18.971  0.00  0.00    +0.000 OA
ATOM     22  C   UNL     1       6.663   5.912  17.121  0.00  0.00    +0.000 C 
ATOM     23  N   UNL     1       6.827   7.339  16.893  0.00  0.00    +0.000 N 
ATOM     24  H   UNL     1       8.807   7.131  19.365  0.00  0.00    +0.000 HD
ATOM     25  H   UNL     1       6.254   7.906  16.278  0.00  0.00    +0.000 HD
BRANCH  22  26
ATOM     26  C   UNL     1       7.252   5.075  15.968  0.00  0.00    +0.000 C 
BRANCH  26  27
ATOM     27  C   UNL     1       6.437   5.103  14.701  0.00  0.00    +0.000 C 
ATOM     28  C   UNL     1       7.000   4.469  13.452  0.00  0.00    +0.000 C 
ATOM     29  C   UNL     1       5.831   3.835  14.150  0.00  0.00    +0.000 C 
ENDBRANCH  26  27
ENDBRANCH  22  26
ENDBRANCH  16  22
ENDBRANCH   1  16
TORSDOF 6
ENDMDL
MODEL 4
REMARK VINA RESULT:      -8.1      2.195      7.904
REMARK  Name = 
REMARK  6 active torsions:
REMARK  status: ('A' for Active; 'I' for Inactive)
REMARK    1  A    between atoms: C_6  and  C_7
REMARK    2  A    between atoms: C_6  and  C_22
REMARK    3  A    between atoms: C_7  and  N_8
REMARK    4  A    between atoms: C_9  and  C_11
REMARK    5  A    between atoms: N_14  and  C_15
REMARK    6  A    between atoms: C_22  and  C_23
REMARK                            x       y       z     vdW  Elec       q    Type
REMARK                         _______ _______ _______ _____ _____    ______ ____
ROOT
ATOM      1  N   UNL     1       4.225   4.745  17.280  0.00  0.00    +0.000 N 
ATOM      2  C   UNL     1       4.334   4.608  18.647  0.00  0.00    +0.000 C 
ATOM      3  O   UNL     1       5.218   3.949  19.187  0.00  0.00    +0.000 OA
ATOM      4  H   UNL     1       3.455   5.318  16.942  0.00  0.00    +0.000 HD
ENDROOT
BRANCH   2   5
ATOM      5  C   UNL     1       3.314   5.332  19.403  0.00  0.00    +0.000 A 
ATOM      6  C   UNL     1       2.473   4.817  20.404  0.00  0.00    +0.000 A 
ATOM      7  N   UNL     1       1.693   5.776  20.902  0.00  0.00    +0.000 NA
ATOM      8  N   UNL     1       2.069   6.862  20.169  0.00  0.00    +0.000 N 
ATOM      9  N   UNL     1       3.053   6.646  19.245  0.00  0.00    +0.000 NA
BRANCH   8  10
ATOM     10  C   UNL     1       1.480   8.139  20.365  0.00  0.00    +0.000 A 
ATOM     11  C   UNL     1       1.008   8.511  21.633  0.00  0.00    +0.000 A 
ATOM     12  C   UNL     1       0.429   9.768  21.821  0.00  0.00    +0.000 A 
ATOM     13  C   UNL     1       0.312  10.652  20.749  0.00  0.00    +0.000 A 
ATOM     14  C   UNL     1       0.776  10.285  19.486  0.00  0.00    +0.000 A 
ATOM     15  C   UNL     1       1.364   9.033  19.290  0.00  0.00    +0.000 A 
ENDBRANCH   8  10
ENDBRANCH   2   5
BRANCH   1  16
ATOM     16  C   UNL     1       5.190   4.170  16.352  0.00  0.00    +0.000 C 
BRANCH  16  22
ATOM     17  O   UNL     1       6.721   8.331  17.302  0.00  0.00    +0.000 OA
ATOM     18  C   UNL     1       6.817   7.171  16.944  0.00  0.00    +0.000 C 
ATOM     19  N   UNL     1       7.741   6.281  17.372  0.00  0.00    +0.000 N 
ATOM     20  C   UNL     1       7.488   5.043  16.871  0.00  0.00    +0.000 C 
ATOM     21  O   UNL     1       8.111   4.030  17.156  0.00  0.00    +0.000 OA
ATOM     22  C   UNL     1       6.304   5.132  15.893  0.00  0.00    +0.000 C 
ATOM     23  N   UNL     1       5.981   6.540  16.057  0.00  0.00    +0.000 N 
ATOM     24  H   UNL     1       8.441   6.490  18.063  0.00  0.00    +0.000 HD
ATOM     25  H   UNL     1       5.141   6.994  15.715  0.00  0.00    +0.000 HD
BRANCH  22  26
ATOM     26  C   UNL     1       6.837   4.826  14.479  0.00  0.00    +0.000 C 
BRANCH  26  27
ATOM     27  C   UNL     1       6.154   3.672  13.794  0.00  0.00    +0.000 C 
ATOM     28  C   UNL     1       5.115   3.958  12.736  0.00  0.00    +0.000 C 
ATOM     29  C   UNL     1       6.437   3.363  12.344  0.00  0.00    +0.000 C 
ENDBRANCH  26  27
ENDBRANCH  22  26
ENDBRANCH  16  22
ENDBRANCH   1  16
TORSDOF 6
ENDMDL
MODEL 5
REMARK VINA RESULT:      -8.1      3.135      8.084
REMARK  Name = 
REMARK  6 active torsions:
REMARK  status: ('A' for Active; 'I' for Inactive)
REMARK    1  A    between atoms: C_6  and  C_7
REMARK    2  A    between atoms: C_6  and  C_22
REMARK    3  A    between atoms: C_7  and  N_8
REMARK    4  A    between atoms: C_9  and  C_11
REMARK    5  A    between atoms: N_14  and  C_15
REMARK    6  A    between atoms: C_22  and  C_23
REMARK                            x       y       z     vdW  Elec       q    Type
REMARK                         _______ _______ _______ _____ _____    ______ ____
ROOT
ATOM      1  N   UNL     1       3.841   5.291  17.599  0.00  0.00    +0.000 N 
ATOM      2  C   UNL     1       3.411   5.569  18.879  0.00  0.00    +0.000 C 
ATOM      3  O   UNL     1       3.609   4.818  19.830  0.00  0.00    +0.000 OA
ATOM      4  H   UNL     1       3.626   5.986  16.887  0.00  0.00    +0.000 HD
ENDROOT
BRANCH   2   5
ATOM      5  C   UNL     1       2.713   6.846  19.011  0.00  0.00    +0.000 A 
ATOM      6  C   UNL     1       2.522   7.817  18.014  0.00  0.00    +0.000 A 
ATOM      7  N   UNL     1       1.804   8.837  18.482  0.00  0.00    +0.000 NA
ATOM      8  N   UNL     1       1.589   8.467  19.776  0.00  0.00    +0.000 N 
ATOM      9  N   UNL     1       2.119   7.264  20.148  0.00  0.00    +0.000 NA
BRANCH   8  10
ATOM     10  C   UNL     1       0.850   9.281  20.675  0.00  0.00    +0.000 A 
ATOM     11  C   UNL     1       0.552  10.610  20.340  0.00  0.00    +0.000 A 
ATOM     12  C   UNL     1      -0.175  11.407  21.228  0.00  0.00    +0.000 A 
ATOM     13  C   UNL     1      -0.599  10.886  22.449  0.00  0.00    +0.000 A 
ATOM     14  C   UNL     1      -0.302   9.566  22.788  0.00  0.00    +0.000 A 
ATOM     15  C   UNL     1       0.418   8.759  21.904  0.00  0.00    +0.000 A 
ENDBRANCH   8  10
ENDBRANCH   2   5
BRANCH   1  16
ATOM     16  C   UNL     1       4.627   4.109  17.272  0.00  0.00    +0.000 C 
BRANCH  16  22
ATOM     17  O   UNL     1       6.290   3.442  13.106  0.00  0.00    +0.000 OA
ATOM     18  C   UNL     1       6.164   4.025  14.167  0.00  0.00    +0.000 C 
ATOM     19  N   UNL     1       5.959   5.353  14.325  0.00  0.00    +0.000 N 
ATOM     20  C   UNL     1       5.735   5.656  15.631  0.00  0.00    +0.000 C 
ATOM     21  O   UNL     1       5.439   6.765  16.053  0.00  0.00    +0.000 OA
ATOM     22  C   UNL     1       5.919   4.385  16.478  0.00  0.00    +0.000 C 
ATOM     23  N   UNL     1       6.176   3.436  15.407  0.00  0.00    +0.000 N 
ATOM     24  H   UNL     1       5.865   5.999  13.560  0.00  0.00    +0.000 HD
ATOM     25  H   UNL     1       6.189   2.427  15.506  0.00  0.00    +0.000 HD
BRANCH  22  26
ATOM     26  C   UNL     1       7.158   4.591  17.371  0.00  0.00    +0.000 C 
BRANCH  26  27
ATOM     27  C   UNL     1       6.998   5.660  18.420  0.00  0.00    +0.000 C 
ATOM     28  C   UNL     1       8.005   5.746  19.541  0.00  0.00    +0.000 C 
ATOM     29  C   UNL     1       7.963   6.819  18.491  0.00  0.00    +0.000 C 
ENDBRANCH  26  27
ENDBRANCH  22  26
ENDBRANCH  16  22
ENDBRANCH   1  16
TORSDOF 6
ENDMDL
MODEL 6
REMARK VINA RESULT:      -7.9      2.095      7.862
REMARK  Name = 
REMARK  6 active torsions:
REMARK  status: ('A' for Active; 'I' for Inactive)
REMARK    1  A    between atoms: C_6  and  C_7
REMARK    2  A    between atoms: C_6  and  C_22
REMARK    3  A    between atoms: C_7  and  N_8
REMARK    4  A    between atoms: C_9  and  C_11
REMARK    5  A    between atoms: N_14  and  C_15
REMARK    6  A    between atoms: C_22  and  C_23
REMARK                            x       y       z     vdW  Elec       q    Type
REMARK                         _______ _______ _______ _____ _____    ______ ____
ROOT
ATOM      1  N   UNL     1       4.409   4.555  17.460  0.00  0.00    +0.000 N 
ATOM      2  C   UNL     1       4.355   4.375  18.826  0.00  0.00    +0.000 C 
ATOM      3  O   UNL     1       5.118   3.632  19.435  0.00  0.00    +0.000 OA
ATOM      4  H   UNL     1       3.729   5.199  17.061  0.00  0.00    +0.000 HD
ENDROOT
BRANCH   2   5
ATOM      5  C   UNL     1       3.318   5.162  19.492  0.00  0.00    +0.000 A 
ATOM      6  C   UNL     1       2.392   4.712  20.447  0.00  0.00    +0.000 A 
ATOM      7  N   UNL     1       1.622   5.716  20.865  0.00  0.00    +0.000 NA
ATOM      8  N   UNL     1       2.091   6.763  20.130  0.00  0.00    +0.000 N 
ATOM      9  N   UNL     1       3.123   6.480  19.281  0.00  0.00    +0.000 NA
BRANCH   8  10
ATOM     10  C   UNL     1       1.544   8.068  20.251  0.00  0.00    +0.000 A 
ATOM     11  C   UNL     1       1.497   8.919  19.137  0.00  0.00    +0.000 A 
ATOM     12  C   UNL     1       0.958  10.202  19.260  0.00  0.00    +0.000 A 
ATOM     13  C   UNL     1       0.475  10.642  20.491  0.00  0.00    +0.000 A 
ATOM     14  C   UNL     1       0.523   9.801  21.603  0.00  0.00    +0.000 A 
ATOM     15  C   UNL     1       1.052   8.513  21.488  0.00  0.00    +0.000 A 
ENDBRANCH   8  10
ENDBRANCH   2   5
BRANCH   1  16
ATOM     16  C   UNL     1       5.421   3.926  16.623  0.00  0.00    +0.000 C 
BRANCH  16  22
ATOM     17  O   UNL     1       6.755   8.223  17.187  0.00  0.00    +0.000 OA
ATOM     18  C   UNL     1       6.913   7.033  16.988  0.00  0.00    +0.000 C 
ATOM     19  N   UNL     1       7.810   6.234  17.610  0.00  0.00    +0.000 N 
ATOM     20  C   UNL     1       7.636   4.936  17.246  0.00  0.00    +0.000 C 
ATOM     21  O   UNL     1       8.251   3.988  17.714  0.00  0.00    +0.000 OA
ATOM     22  C   UNL     1       6.553   4.863  16.156  0.00  0.00    +0.000 C 
ATOM     23  N   UNL     1       6.184   6.269  16.111  0.00  0.00    +0.000 N 
ATOM     24  H   UNL     1       8.433   6.551  18.333  0.00  0.00    +0.000 HD
ATOM     25  H   UNL     1       5.372   6.648  15.636  0.00  0.00    +0.000 HD
BRANCH  22  26
ATOM     26  C   UNL     1       7.231   4.406  14.849  0.00  0.00    +0.000 C 
BRANCH  26  27
ATOM     27  C   UNL     1       6.394   4.604  13.613  0.00  0.00    +0.000 C 
ATOM     28  C   UNL     1       7.009   4.342  12.260  0.00  0.00    +0.000 C 
ATOM     29  C   UNL     1       5.947   3.421  12.789  0.00  0.00    +0.000 C 
ENDBRANCH  26  27
ENDBRANCH  22  26
ENDBRANCH  16  22
ENDBRANCH   1  16
TORSDOF 6
ENDMDL
MODEL 7
REMARK VINA RESULT:      -7.9      3.749      6.151
REMARK  Name = 
REMARK  6 active torsions:
REMARK  status: ('A' for Active; 'I' for Inactive)
REMARK    1  A    between atoms: C_6  and  C_7
REMARK    2  A    between atoms: C_6  and  C_22
REMARK    3  A    between atoms: C_7  and  N_8
REMARK    4  A    between atoms: C_9  and  C_11
REMARK    5  A    between atoms: N_14  and  C_15
REMARK    6  A    between atoms: C_22  and  C_23
REMARK                            x       y       z     vdW  Elec       q    Type
REMARK                         _______ _______ _______ _____ _____    ______ ____
ROOT
ATOM      1  N   UNL     1       6.113   5.694  18.684  0.00  0.00    +0.000 N 
ATOM      2  C   UNL     1       7.471   5.922  18.617  0.00  0.00    +0.000 C 
ATOM      3  O   UNL     1       8.307   5.035  18.764  0.00  0.00    +0.000 OA
ATOM      4  H   UNL     1       5.510   6.502  18.543  0.00  0.00    +0.000 HD
ENDROOT
BRANCH   2   5
ATOM      5  C   UNL     1       7.830   7.310  18.336  0.00  0.00    +0.000 A 
ATOM      6  C   UNL     1       7.337   8.124  17.303  0.00  0.00    +0.000 A 
ATOM      7  N   UNL     1       7.859   9.348  17.377  0.00  0.00    +0.000 NA
ATOM      8  N   UNL     1       8.684   9.242  18.456  0.00  0.00    +0.000 N 
ATOM      9  N   UNL     1       8.703   8.025  19.077  0.00  0.00    +0.000 NA
BRANCH   8  10
ATOM     10  C   UNL     1       9.467  10.337  18.911  0.00  0.00    +0.000 A 
ATOM     11  C   UNL     1       9.488  10.671  20.273  0.00  0.00    +0.000 A 
ATOM     12  C   UNL     1      10.259  11.749  20.716  0.00  0.00    +0.000 A 
ATOM     13  C   UNL     1      11.002  12.497  19.805  0.00  0.00    +0.000 A 
ATOM     14  C   UNL     1      10.982  12.171  18.449  0.00  0.00    +0.000 A 
ATOM     15  C   UNL     1      10.220  11.091  17.998  0.00  0.00    +0.000 A 
ENDBRANCH   8  10
ENDBRANCH   2   5
BRANCH   1  16
ATOM     16  C   UNL     1       5.546   4.365  18.873  0.00  0.00    +0.000 C 
BRANCH  16  22
ATOM     17  O   UNL     1       2.175   1.352  18.528  0.00  0.00    +0.000 OA
ATOM     18  C   UNL     1       2.723   2.424  18.351  0.00  0.00    +0.000 C 
ATOM     19  N   UNL     1       2.172   3.643  18.553  0.00  0.00    +0.000 N 
ATOM     20  C   UNL     1       3.096   4.626  18.383  0.00  0.00    +0.000 C 
ATOM     21  O   UNL     1       2.898   5.816  18.582  0.00  0.00    +0.000 OA
ATOM     22  C   UNL     1       4.412   3.996  17.896  0.00  0.00    +0.000 C 
ATOM     23  N   UNL     1       4.021   2.596  17.938  0.00  0.00    +0.000 N 
ATOM     24  H   UNL     1       1.239   3.784  18.902  0.00  0.00    +0.000 HD
ATOM     25  H   UNL     1       4.652   1.806  17.854  0.00  0.00    +0.000 HD
BRANCH  22  26
ATOM     26  C   UNL     1       4.661   4.480  16.454  0.00  0.00    +0.000 C 
BRANCH  26  27
ATOM     27  C   UNL     1       5.801   3.787  15.755  0.00  0.00    +0.000 C 
ATOM     28  C   UNL     1       5.987   3.995  14.271  0.00  0.00    +0.000 C 
ATOM     29  C   UNL     1       6.979   4.577  15.237  0.00  0.00    +0.000 C 
ENDBRANCH  26  27
ENDBRANCH  22  26
ENDBRANCH  16  22
ENDBRANCH   1  16
TORSDOF 6
ENDMDL
MODEL 8
REMARK VINA RESULT:      -7.9      3.374      8.234
REMARK  Name = 
REMARK  6 active torsions:
REMARK  status: ('A' for Active; 'I' for Inactive)
REMARK    1  A    between atoms: C_6  and  C_7
REMARK    2  A    between atoms: C_6  and  C_22
REMARK    3  A    between atoms: C_7  and  N_8
REMARK    4  A    between atoms: C_9  and  C_11
REMARK    5  A    between atoms: N_14  and  C_15
REMARK    6  A    between atoms: C_22  and  C_23
REMARK                            x       y       z     vdW  Elec       q    Type
REMARK                         _______ _______ _______ _____ _____    ______ ____
ROOT
ATOM      1  N   UNL     1       3.684   6.224  18.381  0.00  0.00    +0.000 N 
ATOM      2  C   UNL     1       2.934   7.366  18.198  0.00  0.00    +0.000 C 
ATOM      3  O   UNL     1       2.944   8.015  17.156  0.00  0.00    +0.000 OA
ATOM      4  H   UNL     1       3.596   5.763  19.284  0.00  0.00    +0.000 HD
ENDROOT
BRANCH   2   5
ATOM      5  C   UNL     1       2.110   7.730  19.349  0.00  0.00    +0.000 A 
ATOM      6  C   UNL     1       1.833   6.943  20.479  0.00  0.00    +0.000 A 
ATOM      7  N   UNL     1       1.076   7.614  21.346  0.00  0.00    +0.000 NA
ATOM      8  N   UNL     1       0.892   8.803  20.706  0.00  0.00    +0.000 N 
ATOM      9  N   UNL     1       1.500   8.926  19.489  0.00  0.00    +0.000 NA
BRANCH   8  10
ATOM     10  C   UNL     1       0.122   9.850  21.278  0.00  0.00    +0.000 A 
ATOM     11  C   UNL     1      -0.132  11.019  20.545  0.00  0.00    +0.000 A 
ATOM     12  C   UNL     1      -0.889  12.048  21.112  0.00  0.00    +0.000 A 
ATOM     13  C   UNL     1      -1.386  11.918  22.407  0.00  0.00    +0.000 A 
ATOM     14  C   UNL     1      -1.133  10.759  23.141  0.00  0.00    +0.000 A 
ATOM     15  C   UNL     1      -0.384   9.722  22.580  0.00  0.00    +0.000 A 
ENDBRANCH   8  10
ENDBRANCH   2   5
BRANCH   1  16
ATOM     16  C   UNL     1       4.509   5.647  17.328  0.00  0.00    +0.000 C 
BRANCH  16  22
ATOM     17  O   UNL     1       4.811   2.382  20.459  0.00  0.00    +0.000 OA
ATOM     18  C   UNL     1       4.521   2.850  19.374  0.00  0.00    +0.000 C 
ATOM     19  N   UNL     1       3.339   2.705  18.734  0.00  0.00    +0.000 N 
ATOM     20  C   UNL     1       3.303   3.461  17.605  0.00  0.00    +0.000 C 
ATOM     21  O   UNL     1       2.330   3.586  16.876  0.00  0.00    +0.000 OA
ATOM     22  C   UNL     1       4.679   4.116  17.399  0.00  0.00    +0.000 C 
ATOM     23  N   UNL     1       5.337   3.645  18.607  0.00  0.00    +0.000 N 
ATOM     24  H   UNL     1       2.556   2.201  19.115  0.00  0.00    +0.000 HD
ATOM     25  H   UNL     1       6.224   3.983  18.964  0.00  0.00    +0.000 HD
BRANCH  22  26
ATOM     26  C   UNL     1       5.306   3.507  16.129  0.00  0.00    +0.000 C 
BRANCH  26  27
ATOM     27  C   UNL     1       5.538   4.495  15.016  0.00  0.00    +0.000 C 
ATOM     28  C   UNL     1       6.950   4.764  14.555  0.00  0.00    +0.000 C 
ATOM     29  C   UNL     1       5.999   4.027  13.657  0.00  0.00    +0.000 C 
ENDBRANCH  26  27
ENDBRANCH  22  26
ENDBRANCH  16  22
ENDBRANCH   1  16
TORSDOF 6
ENDMDL
MODEL 9
REMARK VINA RESULT:      -7.9      3.863      6.394
REMARK  Name = 
REMARK  6 active torsions:
REMARK  status: ('A' for Active; 'I' for Inactive)
REMARK    1  A    between atoms: C_6  and  C_7
REMARK    2  A    between atoms: C_6  and  C_22
REMARK    3  A    between atoms: C_7  and  N_8
REMARK    4  A    between atoms: C_9  and  C_11
REMARK    5  A    between atoms: N_14  and  C_15
REMARK    6  A    between atoms: C_22  and  C_23
REMARK                            x       y       z     vdW  Elec       q    Type
REMARK                         _______ _______ _______ _____ _____    ______ ____
ROOT
ATOM      1  N   UNL     1       6.263   5.745  18.336  0.00  0.00    +0.000 N 
ATOM      2  C   UNL     1       7.550   6.070  18.708  0.00  0.00    +0.000 C 
ATOM      3  O   UNL     1       8.327   5.262  19.210  0.00  0.00    +0.000 OA
ATOM      4  H   UNL     1       5.708   6.493  17.926  0.00  0.00    +0.000 HD
ENDROOT
BRANCH   2   5
ATOM      5  C   UNL     1       7.918   7.458  18.438  0.00  0.00    +0.000 A 
ATOM      6  C   UNL     1       7.431   8.281  17.409  0.00  0.00    +0.000 A 
ATOM      7  N   UNL     1       7.961   9.501  17.492  0.00  0.00    +0.000 NA
ATOM      8  N   UNL     1       8.783   9.384  18.571  0.00  0.00    +0.000 N 
ATOM      9  N   UNL     1       8.793   8.163  19.184  0.00  0.00    +0.000 NA
BRANCH   8  10
ATOM     10  C   UNL     1       9.571  10.471  19.034  0.00  0.00    +0.000 A 
ATOM     11  C   UNL     1      10.381  11.187  18.139  0.00  0.00    +0.000 A 
ATOM     12  C   UNL     1      11.155  12.255  18.599  0.00  0.00    +0.000 A 
ATOM     13  C   UNL     1      11.130  12.608  19.947  0.00  0.00    +0.000 A 
ATOM     14  C   UNL     1      10.328  11.898  20.841  0.00  0.00    +0.000 A 
ATOM     15  C   UNL     1       9.545  10.833  20.390  0.00  0.00    +0.000 A 
ENDBRANCH   8  10
ENDBRANCH   2   5
BRANCH   1  16
ATOM     16  C   UNL     1       5.729   4.394  18.446  0.00  0.00    +0.000 C 
BRANCH  16  22
ATOM     17  O   UNL     1       2.106   1.671  18.322  0.00  0.00    +0.000 OA
ATOM     18  C   UNL     1       2.736   2.685  18.086  0.00  0.00    +0.000 C 
ATOM     19  N   UNL     1       2.298   3.953  18.257  0.00  0.00    +0.000 N 
ATOM     20  C   UNL     1       3.295   4.846  18.021  0.00  0.00    +0.000 C 
ATOM     21  O   UNL     1       3.205   6.055  18.179  0.00  0.00    +0.000 OA
ATOM     22  C   UNL     1       4.535   4.089  17.519  0.00  0.00    +0.000 C 
ATOM     23  N   UNL     1       4.029   2.730  17.627  0.00  0.00    +0.000 N 
ATOM     24  H   UNL     1       1.392   4.186  18.629  0.00  0.00    +0.000 HD
ATOM     25  H   UNL     1       4.588   1.886  17.555  0.00  0.00    +0.000 HD
BRANCH  22  26
ATOM     26  C   UNL     1       4.776   4.497  16.052  0.00  0.00    +0.000 C 
BRANCH  26  27
ATOM     27  C   UNL     1       5.984   3.857  15.420  0.00  0.00    +0.000 C 
ATOM     28  C   UNL     1       6.135   3.899  13.918  0.00  0.00    +0.000 C 
ATOM     29  C   UNL     1       7.059   4.705  14.785  0.00  0.00    +0.000 C 
ENDBRANCH  26  27
ENDBRANCH  22  26
ENDBRANCH  16  22
ENDBRANCH   1  16
TORSDOF 6
ENDMDL
