MODEL 1
REMARK VINA RESULT:      -7.6      0.000      0.000
REMARK  Name = 
REMARK  5 active torsions:
REMARK  status: ('A' for Active; 'I' for Inactive)
REMARK    1  A    between atoms: C_2  and  N_3
REMARK    2  A    between atoms: N_4  and  C_5
REMARK    3  A    between atoms: N_7  and  C_8
REMARK    4  A    between atoms: N_14  and  C_15
REMARK    5  A    between atoms: C_15  and  C_16
REMARK                            x       y       z     vdW  Elec       q    Type
REMARK                         _______ _______ _______ _____ _____    ______ ____
ROOT
ATOM      1  N   UNL     1       6.613   6.909  17.532  0.00  0.00    +0.000 NA
ATOM      2  N   UNL     1       7.159   7.948  17.077  0.00  0.00    +0.000 NA
ENDROOT
BRANCH   1   4
ATOM      3  O   UNL     1       5.281   6.806  15.636  0.00  0.00    +0.000 OA
ATOM      4  C   UNL     1       5.695   6.330  16.688  0.00  0.00    +0.000 C 
ATOM      5  N   UNL     1       5.279   5.107  17.157  0.00  0.00    +0.000 N 
ATOM      6  H   UNL     1       5.685   4.789  18.028  0.00  0.00    +0.000 HD
BRANCH   5   7
ATOM      7  C   UNL     1       4.361   4.256  16.440  0.00  0.00    +0.000 C 
BRANCH   7   8
ATOM      8  C   UNL     1       3.361   3.616  17.367  0.00  0.00    +0.000 A 
ATOM      9  C   UNL     1       3.633   2.377  17.955  0.00  0.00    +0.000 A 
ATOM     10  C   UNL     1       2.688   1.817  18.801  0.00  0.00    +0.000 A 
ATOM     11  N   UNL     1       1.505   2.398  19.095  0.00  0.00    +0.000 NA
ATOM     12  C   UNL     1       1.257   3.590  18.515  0.00  0.00    +0.000 A 
ATOM     13  C   UNL     1       2.138   4.231  17.655  0.00  0.00    +0.000 A 
ENDBRANCH   7   8
ENDBRANCH   5   7
ENDBRANCH   1   4
BRANCH   2  14
ATOM     14  C   UNL     1       8.095   8.431  17.974  0.00  0.00    +0.000 C 
ATOM     15  O   UNL     1       8.630   7.724  18.829  0.00  0.00    +0.000 OA
ATOM     16  N   UNL     1       8.344   9.788  17.833  0.00  0.00    +0.000 N 
ATOM     17  H   UNL     1       7.738  10.279  17.188  0.00  0.00    +0.000 HD
BRANCH  16  18
ATOM     18  C   UNL     1       9.289  10.542  18.572  0.00  0.00    +0.000 A 
ATOM     19  C   UNL     1       9.199  10.706  19.959  0.00  0.00    +0.000 A 
ATOM     20  C   UNL     1      10.137  11.469  20.664  0.00  0.00    +0.000 A 
ATOM     21  C   UNL     1      11.182  12.078  19.988  0.00  0.00    +0.000 A 
ATOM     22  C   UNL     1      11.298  11.917  18.608  0.00  0.00    +0.000 A 
ATOM     23  C   UNL     1      10.363  11.143  17.904  0.00  0.00    +0.000 A 
ENDBRANCH  16  18
ENDBRANCH   2  14
TORSDOF 5
ENDMDL
MODEL 2
REMARK VINA RESULT:      -7.6      0.431      1.053
REMARK  Name = 
REMARK  5 active torsions:
REMARK  status: ('A' for Active; 'I' for Inactive)
REMARK    1  A    between atoms: C_2  and  N_3
REMARK    2  A    between atoms: N_4  and  C_5
REMARK    3  A    between atoms: N_7  and  C_8
REMARK    4  A    between atoms: N_14  and  C_15
REMARK    5  A    between atoms: C_15  and  C_16
REMARK                            x       y       z     vdW  Elec       q    Type
REMARK                         _______ _______ _______ _____ _____    ______ ____
ROOT
ATOM      1  N   UNL     1       6.940   6.750  17.409  0.00  0.00    +0.000 NA
ATOM      2  N   UNL     1       7.098   7.984  17.223  0.00  0.00    +0.000 NA
ENDROOT
BRANCH   1   4
ATOM      3  O   UNL     1       5.500   6.659  15.593  0.00  0.00    +0.000 OA
ATOM      4  C   UNL     1       5.988   6.168  16.606  0.00  0.00    +0.000 C 
ATOM      5  N   UNL     1       5.632   4.922  17.066  0.00  0.00    +0.000 N 
ATOM      6  H   UNL     1       6.096   4.594  17.902  0.00  0.00    +0.000 HD
BRANCH   5   7
ATOM      7  C   UNL     1       4.695   4.065  16.382  0.00  0.00    +0.000 C 
BRANCH   7   8
ATOM      8  C   UNL     1       3.511   3.734  17.252  0.00  0.00    +0.000 A 
ATOM      9  C   UNL     1       2.693   4.752  17.751  0.00  0.00    +0.000 A 
ATOM     10  C   UNL     1       1.613   4.410  18.550  0.00  0.00    +0.000 A 
ATOM     11  N   UNL     1       1.299   3.141  18.885  0.00  0.00    +0.000 NA
ATOM     12  C   UNL     1       2.102   2.171  18.400  0.00  0.00    +0.000 A 
ATOM     13  C   UNL     1       3.205   2.413  17.593  0.00  0.00    +0.000 A 
ENDBRANCH   7   8
ENDBRANCH   5   7
ENDBRANCH   1   4
BRANCH   2  14
ATOM     14  C   UNL     1       8.102   8.470  18.042  0.00  0.00    +0.000 C 
ATOM     15  O   UNL     1       8.709   7.763  18.847  0.00  0.00    +0.000 OA
ATOM     16  N   UNL     1       8.331   9.829  17.886  0.00  0.00    +0.000 N 
ATOM     17  H   UNL     1       7.671  10.318  17.295  0.00  0.00    +0.000 HD
BRANCH  16  18
ATOM     18  C   UNL     1       9.329  10.585  18.548  0.00  0.00    +0.000 A 
ATOM     19  C   UNL     1       9.315  10.801  19.931  0.00  0.00    +0.000 A 
ATOM     20  C   UNL     1      10.305  11.565  20.558  0.00  0.00    +0.000 A 
ATOM     21  C   UNL     1      11.327  12.125  19.807  0.00  0.00    +0.000 A 
ATOM     22  C   UNL     1      11.368  11.912  18.430  0.00  0.00    +0.000 A 
ATOM     23  C   UNL     1      10.380  11.136  17.804  0.00  0.00    +0.000 A 
ENDBRANCH  16  18
ENDBRANCH   2  14
TORSDOF 5
ENDMDL
MODEL 3
REMARK VINA RESULT:      -7.5      0.573      1.438
REMARK  Name = 
REMARK  5 active torsions:
REMARK  status: ('A' for Active; 'I' for Inactive)
REMARK    1  A    between atoms: C_2  and  N_3
REMARK    2  A    between atoms: N_4  and  C_5
REMARK    3  A    between atoms: N_7  and  C_8
REMARK    4  A    between atoms: N_14  and  C_15
REMARK    5  A    between atoms: C_15  and  C_16
REMARK                            x       y       z     vdW  Elec       q    Type
REMARK                         _______ _______ _______ _____ _____    ______ ____
ROOT
ATOM      1  N   UNL     1       6.794   6.930  17.609  0.00  0.00    +0.000 NA
ATOM      2  N   UNL     1       7.174   8.057  17.199  0.00  0.00    +0.000 NA
ENDROOT
BRANCH   1   4
ATOM      3  O   UNL     1       5.362   6.786  15.791  0.00  0.00    +0.000 OA
ATOM      4  C   UNL     1       5.836   6.330  16.826  0.00  0.00    +0.000 C 
ATOM      5  N   UNL     1       5.458   5.111  17.336  0.00  0.00    +0.000 N 
ATOM      6  H   UNL     1       5.913   4.810  18.188  0.00  0.00    +0.000 HD
BRANCH   5   7
ATOM      7  C   UNL     1       4.510   4.241  16.683  0.00  0.00    +0.000 C 
BRANCH   7   8
ATOM      8  C   UNL     1       3.643   3.519  17.681  0.00  0.00    +0.000 A 
ATOM      9  C   UNL     1       2.300   3.258  17.393  0.00  0.00    +0.000 A 
ATOM     10  C   UNL     1       1.532   2.593  18.337  0.00  0.00    +0.000 A 
ATOM     11  N   UNL     1       2.003   2.179  19.533  0.00  0.00    +0.000 NA
ATOM     12  C   UNL     1       3.299   2.444  19.796  0.00  0.00    +0.000 A 
ATOM     13  C   UNL     1       4.148   3.103  18.917  0.00  0.00    +0.000 A 
ENDBRANCH   7   8
ENDBRANCH   5   7
ENDBRANCH   1   4
BRANCH   2  14
ATOM     14  C   UNL     1       8.165   8.559  18.023  0.00  0.00    +0.000 C 
ATOM     15  O   UNL     1       8.759   7.869  18.853  0.00  0.00    +0.000 OA
ATOM     16  N   UNL     1       8.398   9.915  17.842  0.00  0.00    +0.000 N 
ATOM     17  H   UNL     1       7.748  10.392  17.231  0.00  0.00    +0.000 HD
BRANCH  16  18
ATOM     18  C   UNL     1       9.386  10.685  18.505  0.00  0.00    +0.000 A 
ATOM     19  C   UNL     1      10.464  11.267  17.828  0.00  0.00    +0.000 A 
ATOM     20  C   UNL     1      11.435  12.009  18.509  0.00  0.00    +0.000 A 
ATOM     21  C   UNL     1      11.339  12.181  19.881  0.00  0.00    +0.000 A 
ATOM     22  C   UNL     1      10.267  11.620  20.573  0.00  0.00    +0.000 A 
ATOM     23  C   UNL     1       9.287  10.885  19.887  0.00  0.00    +0.000 A 
ENDBRANCH  16  18
ENDBRANCH   2  14
TORSDOF 5
ENDMDL
MODEL 4
REMARK VINA RESULT:      -7.5      1.577      2.255
REMARK  Name = 
REMARK  5 active torsions:
REMARK  status: ('A' for Active; 'I' for Inactive)
REMARK    1  A    between atoms: C_2  and  N_3
REMARK    2  A    between atoms: N_4  and  C_5
REMARK    3  A    between atoms: N_7  and  C_8
REMARK    4  A    between atoms: N_14  and  C_15
REMARK    5  A    between atoms: C_15  and  C_16
REMARK                            x       y       z     vdW  Elec       q    Type
REMARK                         _______ _______ _______ _____ _____    ______ ____
ROOT
ATOM      1  N   UNL     1       7.511   7.819  17.111  0.00  0.00    +0.000 NA
ATOM      2  N   UNL     1       8.193   7.991  18.154  0.00  0.00    +0.000 NA
ENDROOT
BRANCH   1   4
ATOM      3  O   UNL     1       7.461   5.862  15.867  0.00  0.00    +0.000 OA
ATOM      4  C   UNL     1       7.163   6.512  16.864  0.00  0.00    +0.000 C 
ATOM      5  N   UNL     1       6.427   5.981  17.897  0.00  0.00    +0.000 N 
ATOM      6  H   UNL     1       6.240   6.588  18.684  0.00  0.00    +0.000 HD
BRANCH   5   7
ATOM      7  C   UNL     1       5.979   4.610  17.925  0.00  0.00    +0.000 C 
BRANCH   7   8
ATOM      8  C   UNL     1       4.478   4.517  17.857  0.00  0.00    +0.000 A 
ATOM      9  C   UNL     1       3.685   5.627  18.166  0.00  0.00    +0.000 A 
ATOM     10  C   UNL     1       2.306   5.504  18.095  0.00  0.00    +0.000 A 
ATOM     11  N   UNL     1       1.671   4.365  17.745  0.00  0.00    +0.000 NA
ATOM     12  C   UNL     1       2.450   3.302  17.456  0.00  0.00    +0.000 A 
ATOM     13  C   UNL     1       3.838   3.327  17.499  0.00  0.00    +0.000 A 
ENDBRANCH   7   8
ENDBRANCH   5   7
ENDBRANCH   1   4
BRANCH   2  14
ATOM     14  C   UNL     1       8.456   9.337  18.341  0.00  0.00    +0.000 C 
ATOM     15  O   UNL     1       7.977  10.217  17.624  0.00  0.00    +0.000 OA
ATOM     16  N   UNL     1       9.330   9.587  19.388  0.00  0.00    +0.000 N 
ATOM     17  H   UNL     1       9.758   8.770  19.805  0.00  0.00    +0.000 HD
BRANCH  16  18
ATOM     18  C   UNL     1       9.736  10.865  19.844  0.00  0.00    +0.000 A 
ATOM     19  C   UNL     1      10.699  11.631  19.176  0.00  0.00    +0.000 A 
ATOM     20  C   UNL     1      11.094  12.885  19.656  0.00  0.00    +0.000 A 
ATOM     21  C   UNL     1      10.527  13.391  20.816  0.00  0.00    +0.000 A 
ATOM     22  C   UNL     1       9.557  12.651  21.490  0.00  0.00    +0.000 A 
ATOM     23  C   UNL     1       9.154  11.399  21.001  0.00  0.00    +0.000 A 
ENDBRANCH  16  18
ENDBRANCH   2  14
TORSDOF 5
ENDMDL
MODEL 5
REMARK VINA RESULT:      -7.3      1.588      1.784
REMARK  Name = 
REMARK  5 active torsions:
REMARK  status: ('A' for Active; 'I' for Inactive)
REMARK    1  A    between atoms: C_2  and  N_3
REMARK    2  A    between atoms: N_4  and  C_5
REMARK    3  A    between atoms: N_7  and  C_8
REMARK    4  A    between atoms: N_14  and  C_15
REMARK    5  A    between atoms: C_15  and  C_16
REMARK                            x       y       z     vdW  Elec       q    Type
REMARK                         _______ _______ _______ _____ _____    ______ ____
ROOT
ATOM      1  N   UNL     1       7.412   7.773  17.127  0.00  0.00    +0.000 NA
ATOM      2  N   UNL     1       8.163   7.924  18.125  0.00  0.00    +0.000 NA
ENDROOT
BRANCH   1   4
ATOM      3  O   UNL     1       7.447   5.796  15.916  0.00  0.00    +0.000 OA
ATOM      4  C   UNL     1       7.063   6.469  16.867  0.00  0.00    +0.000 C 
ATOM      5  N   UNL     1       6.213   5.972  17.826  0.00  0.00    +0.000 N 
ATOM      6  H   UNL     1       5.959   6.597  18.580  0.00  0.00    +0.000 HD
BRANCH   5   7
ATOM      7  C   UNL     1       5.735   4.612  17.830  0.00  0.00    +0.000 C 
BRANCH   7   8
ATOM      8  C   UNL     1       4.286   4.535  18.237  0.00  0.00    +0.000 A 
ATOM      9  C   UNL     1       3.364   3.848  17.442  0.00  0.00    +0.000 A 
ATOM     10  C   UNL     1       2.039   3.800  17.847  0.00  0.00    +0.000 A 
ATOM     11  N   UNL     1       1.575   4.385  18.972  0.00  0.00    +0.000 NA
ATOM     12  C   UNL     1       2.478   5.049  19.724  0.00  0.00    +0.000 A 
ATOM     13  C   UNL     1       3.824   5.153  19.403  0.00  0.00    +0.000 A 
ENDBRANCH   7   8
ENDBRANCH   5   7
ENDBRANCH   1   4
BRANCH   2  14
ATOM     14  C   UNL     1       8.423   9.268  18.332  0.00  0.00    +0.000 C 
ATOM     15  O   UNL     1       7.917  10.160  17.650  0.00  0.00    +0.000 OA
ATOM     16  N   UNL     1       9.327   9.502  19.358  0.00  0.00    +0.000 N 
ATOM     17  H   UNL     1       9.772   8.680  19.744  0.00  0.00    +0.000 HD
BRANCH  16  18
ATOM     18  C   UNL     1       9.739  10.773  19.829  0.00  0.00    +0.000 A 
ATOM     19  C   UNL     1       9.185  11.368  20.968  0.00  0.00    +0.000 A 
ATOM     20  C   UNL     1       9.599  12.632  21.403  0.00  0.00    +0.000 A 
ATOM     21  C   UNL     1      10.576  13.320  20.701  0.00  0.00    +0.000 A 
ATOM     22  C   UNL     1      11.150  12.741  19.570  0.00  0.00    +0.000 A 
ATOM     23  C   UNL     1      10.742  11.468  19.142  0.00  0.00    +0.000 A 
ENDBRANCH  16  18
ENDBRANCH   2  14
TORSDOF 5
ENDMDL
MODEL 6
REMARK VINA RESULT:      -7.3      1.445      1.483
REMARK  Name = 
REMARK  5 active torsions:
REMARK  status: ('A' for Active; 'I' for Inactive)
REMARK    1  A    between atoms: C_2  and  N_3
REMARK    2  A    between atoms: N_4  and  C_5
REMARK    3  A    between atoms: N_7  and  C_8
REMARK    4  A    between atoms: N_14  and  C_15
REMARK    5  A    between atoms: C_15  and  C_16
REMARK                            x       y       z     vdW  Elec       q    Type
REMARK                         _______ _______ _______ _____ _____    ______ ____
ROOT
ATOM      1  N   UNL     1       7.476   6.772  16.957  0.00  0.00    +0.000 NA
ATOM      2  N   UNL     1       7.874   7.172  18.081  0.00  0.00    +0.000 NA
ENDROOT
BRANCH   1   4
ATOM      3  O   UNL     1       7.966   4.506  16.975  0.00  0.00    +0.000 OA
ATOM      4  C   UNL     1       7.167   5.434  16.902  0.00  0.00    +0.000 C 
ATOM      5  N   UNL     1       5.814   5.233  16.763  0.00  0.00    +0.000 N 
ATOM      6  H   UNL     1       5.231   6.058  16.724  0.00  0.00    +0.000 HD
BRANCH   5   7
ATOM      7  C   UNL     1       5.208   3.924  16.737  0.00  0.00    +0.000 C 
BRANCH   7   8
ATOM      8  C   UNL     1       3.863   3.924  17.414  0.00  0.00    +0.000 A 
ATOM      9  C   UNL     1       3.113   2.746  17.497  0.00  0.00    +0.000 A 
ATOM     10  C   UNL     1       1.878   2.784  18.125  0.00  0.00    +0.000 A 
ATOM     11  N   UNL     1       1.344   3.900  18.667  0.00  0.00    +0.000 NA
ATOM     12  C   UNL     1       2.078   5.028  18.574  0.00  0.00    +0.000 A 
ATOM     13  C   UNL     1       3.324   5.091  17.964  0.00  0.00    +0.000 A 
ENDBRANCH   7   8
ENDBRANCH   5   7
ENDBRANCH   1   4
BRANCH   2  14
ATOM     14  C   UNL     1       8.117   8.534  18.049  0.00  0.00    +0.000 C 
ATOM     15  O   UNL     1       7.609   9.285  17.215  0.00  0.00    +0.000 OA
ATOM     16  N   UNL     1       9.008   8.957  19.025  0.00  0.00    +0.000 N 
ATOM     17  H   UNL     1       9.458   8.222  19.554  0.00  0.00    +0.000 HD
BRANCH  16  18
ATOM     18  C   UNL     1       9.401  10.297  19.266  0.00  0.00    +0.000 A 
ATOM     19  C   UNL     1       9.297  10.895  20.527  0.00  0.00    +0.000 A 
ATOM     20  C   UNL     1       9.678  12.226  20.735  0.00  0.00    +0.000 A 
ATOM     21  C   UNL     1      10.171  12.977  19.680  0.00  0.00    +0.000 A 
ATOM     22  C   UNL     1      10.295  12.397  18.418  0.00  0.00    +0.000 A 
ATOM     23  C   UNL     1       9.924  11.060  18.214  0.00  0.00    +0.000 A 
ENDBRANCH  16  18
ENDBRANCH   2  14
TORSDOF 5
ENDMDL
MODEL 7
REMARK VINA RESULT:      -7.3      1.475      1.671
REMARK  Name = 
REMARK  5 active torsions:
REMARK  status: ('A' for Active; 'I' for Inactive)
REMARK    1  A    between atoms: C_2  and  N_3
REMARK    2  A    between atoms: N_4  and  C_5
REMARK    3  A    between atoms: N_7  and  C_8
REMARK    4  A    between atoms: N_14  and  C_15
REMARK    5  A    between atoms: C_15  and  C_16
REMARK                            x       y       z     vdW  Elec       q    Type
REMARK                         _______ _______ _______ _____ _____    ______ ____
ROOT
ATOM      1  N   UNL     1       7.514   6.847  16.959  0.00  0.00    +0.000 NA
ATOM      2  N   UNL     1       7.856   7.241  18.104  0.00  0.00    +0.000 NA
ENDROOT
BRANCH   1   4
ATOM      3  O   UNL     1       7.926   4.565  16.936  0.00  0.00    +0.000 OA
ATOM      4  C   UNL     1       7.158   5.520  16.893  0.00  0.00    +0.000 C 
ATOM      5  N   UNL     1       5.797   5.367  16.781  0.00  0.00    +0.000 N 
ATOM      6  H   UNL     1       5.242   6.212  16.766  0.00  0.00    +0.000 HD
BRANCH   5   7
ATOM      7  C   UNL     1       5.146   4.080  16.751  0.00  0.00    +0.000 C 
BRANCH   7   8
ATOM      8  C   UNL     1       3.865   4.090  17.542  0.00  0.00    +0.000 A 
ATOM      9  C   UNL     1       3.645   5.063  18.522  0.00  0.00    +0.000 A 
ATOM     10  C   UNL     1       2.455   5.039  19.232  0.00  0.00    +0.000 A 
ATOM     11  N   UNL     1       1.482   4.123  19.038  0.00  0.00    +0.000 NA
ATOM     12  C   UNL     1       1.713   3.188  18.092  0.00  0.00    +0.000 A 
ATOM     13  C   UNL     1       2.871   3.128  17.330  0.00  0.00    +0.000 A 
ENDBRANCH   7   8
ENDBRANCH   5   7
ENDBRANCH   1   4
BRANCH   2  14
ATOM     14  C   UNL     1       8.152   8.592  18.079  0.00  0.00    +0.000 C 
ATOM     15  O   UNL     1       7.713   9.358  17.220  0.00  0.00    +0.000 OA
ATOM     16  N   UNL     1       9.012   8.986  19.094  0.00  0.00    +0.000 N 
ATOM     17  H   UNL     1       9.408   8.237  19.647  0.00  0.00    +0.000 HD
BRANCH  16  18
ATOM     18  C   UNL     1       9.444  10.311  19.350  0.00  0.00    +0.000 A 
ATOM     19  C   UNL     1       9.340  10.905  20.612  0.00  0.00    +0.000 A 
ATOM     20  C   UNL     1       9.761  12.222  20.834  0.00  0.00    +0.000 A 
ATOM     21  C   UNL     1      10.293  12.963  19.791  0.00  0.00    +0.000 A 
ATOM     22  C   UNL     1      10.417  12.386  18.528  0.00  0.00    +0.000 A 
ATOM     23  C   UNL     1      10.006  11.063  18.310  0.00  0.00    +0.000 A 
ENDBRANCH  16  18
ENDBRANCH   2  14
TORSDOF 5
ENDMDL
MODEL 8
REMARK VINA RESULT:      -7.1      1.588      2.007
REMARK  Name = 
REMARK  5 active torsions:
REMARK  status: ('A' for Active; 'I' for Inactive)
REMARK    1  A    between atoms: C_2  and  N_3
REMARK    2  A    between atoms: N_4  and  C_5
REMARK    3  A    between atoms: N_7  and  C_8
REMARK    4  A    between atoms: N_14  and  C_15
REMARK    5  A    between atoms: C_15  and  C_16
REMARK                            x       y       z     vdW  Elec       q    Type
REMARK                         _______ _______ _______ _____ _____    ______ ____
ROOT
ATOM      1  N   UNL     1       7.663   7.625  16.907  0.00  0.00    +0.000 NA
ATOM      2  N   UNL     1       7.866   7.912  18.115  0.00  0.00    +0.000 NA
ENDROOT
BRANCH   1   4
ATOM      3  O   UNL     1       7.330   5.701  15.656  0.00  0.00    +0.000 OA
ATOM      4  C   UNL     1       7.205   6.347  16.692  0.00  0.00    +0.000 C 
ATOM      5  N   UNL     1       6.579   5.840  17.805  0.00  0.00    +0.000 N 
ATOM      6  H   UNL     1       6.535   6.440  18.618  0.00  0.00    +0.000 HD
BRANCH   5   7
ATOM      7  C   UNL     1       6.055   4.498  17.875  0.00  0.00    +0.000 C 
BRANCH   7   8
ATOM      8  C   UNL     1       4.611   4.490  18.306  0.00  0.00    +0.000 A 
ATOM      9  C   UNL     1       4.210   3.742  19.417  0.00  0.00    +0.000 A 
ATOM     10  C   UNL     1       2.872   3.756  19.784  0.00  0.00    +0.000 A 
ATOM     11  N   UNL     1       1.921   4.452  19.126  0.00  0.00    +0.000 NA
ATOM     12  C   UNL     1       2.325   5.163  18.053  0.00  0.00    +0.000 A 
ATOM     13  C   UNL     1       3.639   5.212  17.608  0.00  0.00    +0.000 A 
ENDBRANCH   7   8
ENDBRANCH   5   7
ENDBRANCH   1   4
BRANCH   2  14
ATOM     14  C   UNL     1       8.281   9.226  18.234  0.00  0.00    +0.000 C 
ATOM     15  O   UNL     1       7.894  10.121  17.481  0.00  0.00    +0.000 OA
ATOM     16  N   UNL     1       9.194   9.425  19.260  0.00  0.00    +0.000 N 
ATOM     17  H   UNL     1       9.533   8.586  19.711  0.00  0.00    +0.000 HD
BRANCH  16  18
ATOM     18  C   UNL     1       9.748  10.669  19.650  0.00  0.00    +0.000 A 
ATOM     19  C   UNL     1      10.669  11.364  18.857  0.00  0.00    +0.000 A 
ATOM     20  C   UNL     1      11.213  12.584  19.273  0.00  0.00    +0.000 A 
ATOM     21  C   UNL     1      10.840  13.128  20.492  0.00  0.00    +0.000 A 
ATOM     22  C   UNL     1       9.915  12.459  21.292  0.00  0.00    +0.000 A 
ATOM     23  C   UNL     1       9.361  11.241  20.869  0.00  0.00    +0.000 A 
ENDBRANCH  16  18
ENDBRANCH   2  14
TORSDOF 5
ENDMDL
MODEL 9
REMARK VINA RESULT:      -7.0      1.984      9.052
REMARK  Name = 
REMARK  5 active torsions:
REMARK  status: ('A' for Active; 'I' for Inactive)
REMARK    1  A    between atoms: C_2  and  N_3
REMARK    2  A    between atoms: N_4  and  C_5
REMARK    3  A    between atoms: N_7  and  C_8
REMARK    4  A    between atoms: N_14  and  C_15
REMARK    5  A    between atoms: C_15  and  C_16
REMARK                            x       y       z     vdW  Elec       q    Type
REMARK                         _______ _______ _______ _____ _____    ______ ____
ROOT
ATOM      1  N   UNL     1       6.664   6.335  18.177  0.00  0.00    +0.000 NA
ATOM      2  N   UNL     1       5.977   5.502  17.532  0.00  0.00    +0.000 NA
ENDROOT
BRANCH   1   4
ATOM      3  O   UNL     1       7.896   6.851  16.281  0.00  0.00    +0.000 OA
ATOM      4  C   UNL     1       7.482   7.124  17.403  0.00  0.00    +0.000 C 
ATOM      5  N   UNL     1       7.793   8.304  18.036  0.00  0.00    +0.000 N 
ATOM      6  H   UNL     1       7.396   8.448  18.955  0.00  0.00    +0.000 HD
BRANCH   5   7
ATOM      7  C   UNL     1       8.588   9.341  17.427  0.00  0.00    +0.000 C 
BRANCH   7   8
ATOM      8  C   UNL     1       8.896  10.447  18.403  0.00  0.00    +0.000 A 
ATOM      9  C   UNL     1       9.227  10.149  19.729  0.00  0.00    +0.000 A 
ATOM     10  C   UNL     1       9.502  11.192  20.599  0.00  0.00    +0.000 A 
ATOM     11  N   UNL     1       9.467  12.495  20.245  0.00  0.00    +0.000 NA
ATOM     12  C   UNL     1       9.141  12.765  18.965  0.00  0.00    +0.000 A 
ATOM     13  C   UNL     1       8.849  11.791  18.019  0.00  0.00    +0.000 A 
ENDBRANCH   7   8
ENDBRANCH   5   7
ENDBRANCH   1   4
BRANCH   2  14
ATOM     14  C   UNL     1       5.158   4.788  18.388  0.00  0.00    +0.000 C 
ATOM     15  O   UNL     1       5.588   4.153  19.352  0.00  0.00    +0.000 OA
ATOM     16  N   UNL     1       3.817   4.836  18.034  0.00  0.00    +0.000 N 
ATOM     17  H   UNL     1       3.615   5.274  17.145  0.00  0.00    +0.000 HD
BRANCH  16  18
ATOM     18  C   UNL     1       2.747   4.248  18.752  0.00  0.00    +0.000 A 
ATOM     19  C   UNL     1       2.077   3.105  18.301  0.00  0.00    +0.000 A 
ATOM     20  C   UNL     1       1.012   2.553  19.022  0.00  0.00    +0.000 A 
ATOM     21  C   UNL     1       0.602   3.140  20.209  0.00  0.00    +0.000 A 
ATOM     22  C   UNL     1       1.264   4.271  20.683  0.00  0.00    +0.000 A 
ATOM     23  C   UNL     1       2.339   4.817  19.965  0.00  0.00    +0.000 A 
ENDBRANCH  16  18
ENDBRANCH   2  14
TORSDOF 5
ENDMDL
