MODEL 1
REMARK VINA RESULT:      -7.9      0.000      0.000
REMARK  Name = 
REMARK  14 active torsions:
REMARK  status: ('A' for Active; 'I' for Inactive)
REMARK    1  A    between atoms: C_1  and  C_2
REMARK    2  A    between atoms: C_2  and  C_3
REMARK    3  A    between atoms: C_3  and  C_4
REMARK    4  A    between atoms: C_4  and  C_5
REMARK    5  A    between atoms: C_5  and  C_6
REMARK    6  A    between atoms: C_8  and  O_9
REMARK    7  A    between atoms: O_9  and  C_10
REMARK    8  A    between atoms: C_11  and  O_12
REMARK    9  A    between atoms: O_12  and  C_13
REMARK   10  A    between atoms: C_14  and  O_15
REMARK   11  A    between atoms: O_15  and  C_16
REMARK   12  A    between atoms: C_19  and  C_20
REMARK   13  A    between atoms: C_26  and  O_27
REMARK   14  A    between atoms: O_27  and  C_28
REMARK                            x       y       z     vdW  Elec       q    Type
REMARK                         _______ _______ _______ _____ _____    ______ ____
ROOT
ATOM      1  C   UNL     1       3.479   4.774  17.762  0.00  0.00    +0.000 C 
ATOM      2  C   UNL     1       2.649   6.025  17.497  0.00  0.00    +0.000 C 
ATOM      3  C   UNL     1       2.689   6.677  18.836  0.00  0.00    +0.000 C 
ATOM      4  N   UNL     1       3.323   6.017  19.749  0.00  0.00    +0.000 NA
ATOM      5  O   UNL     1       3.793   4.809  19.167  0.00  0.00    +0.000 OA
ENDROOT
BRANCH   3   6
ATOM      6  C   UNL     1       2.109   8.032  19.015  0.00  0.00    +0.000 A 
ATOM      7  C   UNL     1       2.353   8.904  17.929  0.00  0.00    +0.000 A 
ATOM      8  C   UNL     1       1.811  10.188  17.874  0.00  0.00    +0.000 A 
ATOM      9  C   UNL     1       1.033  10.639  18.925  0.00  0.00    +0.000 A 
ATOM     10 CL   UNL     1       0.344  12.214  18.867  0.00  0.00    +0.000 Cl
ATOM     11  C   UNL     1       0.804   9.811  20.020  0.00  0.00    +0.000 A 
ATOM     12  C   UNL     1       1.330   8.503  20.092  0.00  0.00    +0.000 A 
BRANCH  12  13
ATOM     13  O   UNL     1       0.884   7.884  21.221  0.00  0.00    +0.000 OA
ATOM     14  C   UNL     1      -0.140   8.457  22.009  0.00  0.00    +0.000 C 
ENDBRANCH  12  13
ENDBRANCH   3   6
BRANCH   1  15
ATOM     15  C   UNL     1       4.735   4.788  16.877  0.00  0.00    +0.000 A 
ATOM     16  C   UNL     1       5.711   5.773  17.105  0.00  0.00    +0.000 A 
ATOM     17  C   UNL     1       6.835   5.902  16.291  0.00  0.00    +0.000 A 
ATOM     18  C   UNL     1       6.981   5.060  15.172  0.00  0.00    +0.000 A 
ATOM     19  C   UNL     1       5.996   4.082  14.911  0.00  0.00    +0.000 A 
ATOM     20  C   UNL     1       4.910   3.926  15.793  0.00  0.00    +0.000 A 
BRANCH  17  21
ATOM     21  O   UNL     1       7.796   6.861  16.511  0.00  0.00    +0.000 OA
ATOM     22  C   UNL     1       7.627   7.661  17.680  0.00  0.00    +0.000 C 
ENDBRANCH  17  21
BRANCH  18  23
ATOM     23  O   UNL     1       8.068   5.345  14.378  0.00  0.00    +0.000 OA
ATOM     24  C   UNL     1       7.826   5.579  13.000  0.00  0.00    +0.000 C 
ENDBRANCH  18  23
BRANCH  19  25
ATOM     25  O   UNL     1       6.116   3.305  13.786  0.00  0.00    +0.000 OA
ATOM     26  C   UNL     1       5.150   3.539  12.763  0.00  0.00    +0.000 C 
ENDBRANCH  19  25
ENDBRANCH   1  15
BRANCH   1  27
ATOM     27  C   UNL     1       2.760   3.440  17.445  0.00  0.00    +0.000 C 
BRANCH  27  28
ATOM     28  C   UNL     1       2.453   2.501  18.614  0.00  0.00    +0.000 C 
BRANCH  28  30
ATOM     29  C   UNL     1       0.789   3.430  20.292  0.00  0.00    +0.000 C 
ATOM     30  C   UNL     1       0.974   2.665  18.997  0.00  0.00    +0.000 C 
ENDBRANCH  28  30
ENDBRANCH  27  28
ENDBRANCH   1  27
TORSDOF 9
ENDMDL
MODEL 2
REMARK VINA RESULT:      -7.5      1.069      2.953
REMARK  Name = 
REMARK  14 active torsions:
REMARK  status: ('A' for Active; 'I' for Inactive)
REMARK    1  A    between atoms: C_1  and  C_2
REMARK    2  A    between atoms: C_2  and  C_3
REMARK    3  A    between atoms: C_3  and  C_4
REMARK    4  A    between atoms: C_4  and  C_5
REMARK    5  A    between atoms: C_5  and  C_6
REMARK    6  A    between atoms: C_8  and  O_9
REMARK    7  A    between atoms: O_9  and  C_10
REMARK    8  A    between atoms: C_11  and  O_12
REMARK    9  A    between atoms: O_12  and  C_13
REMARK   10  A    between atoms: C_14  and  O_15
REMARK   11  A    between atoms: O_15  and  C_16
REMARK   12  A    between atoms: C_19  and  C_20
REMARK   13  A    between atoms: C_26  and  O_27
REMARK   14  A    between atoms: O_27  and  C_28
REMARK                            x       y       z     vdW  Elec       q    Type
REMARK                         _______ _______ _______ _____ _____    ______ ____
ROOT
ATOM      1  C   UNL     1       3.560   4.535  17.843  0.00  0.00    +0.000 C 
ATOM      2  C   UNL     1       2.582   5.703  17.859  0.00  0.00    +0.000 C 
ATOM      3  C   UNL     1       2.667   6.121  19.287  0.00  0.00    +0.000 C 
ATOM      4  N   UNL     1       3.444   5.399  20.024  0.00  0.00    +0.000 NA
ATOM      5  O   UNL     1       3.989   4.371  19.208  0.00  0.00    +0.000 OA
ENDROOT
BRANCH   3   6
ATOM      6  C   UNL     1       1.963   7.347  19.739  0.00  0.00    +0.000 A 
ATOM      7  C   UNL     1       1.407   7.241  21.035  0.00  0.00    +0.000 A 
ATOM      8  C   UNL     1       0.787   8.318  21.666  0.00  0.00    +0.000 A 
ATOM      9  C   UNL     1       0.685   9.526  20.998  0.00  0.00    +0.000 A 
ATOM     10 CL   UNL     1      -0.062  10.870  21.768  0.00  0.00    +0.000 Cl
ATOM     11  C   UNL     1       1.196   9.648  19.711  0.00  0.00    +0.000 A 
ATOM     12  C   UNL     1       1.841   8.575  19.056  0.00  0.00    +0.000 A 
BRANCH  12  13
ATOM     13  O   UNL     1       2.321   8.987  17.850  0.00  0.00    +0.000 OA
ATOM     14  C   UNL     1       2.492  10.362  17.565  0.00  0.00    +0.000 C 
ENDBRANCH  12  13
ENDBRANCH   3   6
BRANCH   1  15
ATOM     15  C   UNL     1       4.727   4.847  16.893  0.00  0.00    +0.000 A 
ATOM     16  C   UNL     1       4.944   4.003  15.790  0.00  0.00    +0.000 A 
ATOM     17  C   UNL     1       6.031   4.172  14.934  0.00  0.00    +0.000 A 
ATOM     18  C   UNL     1       6.975   5.182  15.201  0.00  0.00    +0.000 A 
ATOM     19  C   UNL     1       6.787   6.022  16.321  0.00  0.00    +0.000 A 
ATOM     20  C   UNL     1       5.641   5.876  17.125  0.00  0.00    +0.000 A 
BRANCH  17  21
ATOM     21  O   UNL     1       6.247   3.353  13.850  0.00  0.00    +0.000 OA
ATOM     22  C   UNL     1       5.342   3.507  12.758  0.00  0.00    +0.000 C 
ENDBRANCH  17  21
BRANCH  18  23
ATOM     23  O   UNL     1       8.061   5.190  14.357  0.00  0.00    +0.000 OA
ATOM     24  C   UNL     1       7.905   5.828  13.099  0.00  0.00    +0.000 C 
ENDBRANCH  18  23
BRANCH  19  25
ATOM     25  O   UNL     1       7.742   6.966  16.608  0.00  0.00    +0.000 OA
ATOM     26  C   UNL     1       7.394   7.913  17.616  0.00  0.00    +0.000 C 
ENDBRANCH  19  25
ENDBRANCH   1  15
BRANCH   1  27
ATOM     27  C   UNL     1       2.964   3.196  17.344  0.00  0.00    +0.000 C 
BRANCH  27  28
ATOM     28  C   UNL     1       2.457   2.206  18.395  0.00  0.00    +0.000 C 
BRANCH  28  30
ATOM     29  C   UNL     1       0.819   3.064  20.137  0.00  0.00    +0.000 C 
ATOM     30  C   UNL     1       0.995   2.546  18.722  0.00  0.00    +0.000 C 
ENDBRANCH  28  30
ENDBRANCH  27  28
ENDBRANCH   1  27
TORSDOF 9
ENDMDL
MODEL 3
REMARK VINA RESULT:      -7.5      0.642      2.411
REMARK  Name = 
REMARK  14 active torsions:
REMARK  status: ('A' for Active; 'I' for Inactive)
REMARK    1  A    between atoms: C_1  and  C_2
REMARK    2  A    between atoms: C_2  and  C_3
REMARK    3  A    between atoms: C_3  and  C_4
REMARK    4  A    between atoms: C_4  and  C_5
REMARK    5  A    between atoms: C_5  and  C_6
REMARK    6  A    between atoms: C_8  and  O_9
REMARK    7  A    between atoms: O_9  and  C_10
REMARK    8  A    between atoms: C_11  and  O_12
REMARK    9  A    between atoms: O_12  and  C_13
REMARK   10  A    between atoms: C_14  and  O_15
REMARK   11  A    between atoms: O_15  and  C_16
REMARK   12  A    between atoms: C_19  and  C_20
REMARK   13  A    between atoms: C_26  and  O_27
REMARK   14  A    between atoms: O_27  and  C_28
REMARK                            x       y       z     vdW  Elec       q    Type
REMARK                         _______ _______ _______ _____ _____    ______ ____
ROOT
ATOM      1  C   UNL     1       3.418   5.124  18.117  0.00  0.00    +0.000 C 
ATOM      2  C   UNL     1       2.437   6.253  17.827  0.00  0.00    +0.000 C 
ATOM      3  C   UNL     1       2.476   6.998  19.117  0.00  0.00    +0.000 C 
ATOM      4  N   UNL     1       3.232   6.478  20.027  0.00  0.00    +0.000 NA
ATOM      5  O   UNL     1       3.805   5.292  19.495  0.00  0.00    +0.000 OA
ENDROOT
BRANCH   3   6
ATOM      6  C   UNL     1       1.755   8.289  19.245  0.00  0.00    +0.000 A 
ATOM      7  C   UNL     1       1.602   8.981  18.022  0.00  0.00    +0.000 A 
ATOM      8  C   UNL     1       0.874  10.167  17.928  0.00  0.00    +0.000 A 
ATOM      9  C   UNL     1       0.304  10.703  19.069  0.00  0.00    +0.000 A 
ATOM     10 CL   UNL     1      -0.611  12.156  18.968  0.00  0.00    +0.000 Cl
ATOM     11  C   UNL     1       0.467  10.058  20.290  0.00  0.00    +0.000 A 
ATOM     12  C   UNL     1       1.187   8.850  20.408  0.00  0.00    +0.000 A 
BRANCH  12  13
ATOM     13  O   UNL     1       1.118   8.390  21.689  0.00  0.00    +0.000 OA
ATOM     14  C   UNL     1       0.840   9.267  22.763  0.00  0.00    +0.000 C 
ENDBRANCH  12  13
ENDBRANCH   3   6
BRANCH   1  15
ATOM     15  C   UNL     1       4.613   5.215  17.155  0.00  0.00    +0.000 A 
ATOM     16  C   UNL     1       4.706   4.286  16.104  0.00  0.00    +0.000 A 
ATOM     17  C   UNL     1       5.802   4.251  15.244  0.00  0.00    +0.000 A 
ATOM     18  C   UNL     1       6.879   5.134  15.456  0.00  0.00    +0.000 A 
ATOM     19  C   UNL     1       6.815   6.056  16.524  0.00  0.00    +0.000 A 
ATOM     20  C   UNL     1       5.663   6.118  17.330  0.00  0.00    +0.000 A 
BRANCH  17  21
ATOM     21  O   UNL     1       5.898   3.348  14.211  0.00  0.00    +0.000 OA
ATOM     22  C   UNL     1       5.124   3.640  13.049  0.00  0.00    +0.000 C 
ENDBRANCH  17  21
BRANCH  18  23
ATOM     23  O   UNL     1       7.952   4.940  14.617  0.00  0.00    +0.000 OA
ATOM     24  C   UNL     1       7.922   5.593  13.358  0.00  0.00    +0.000 C 
ENDBRANCH  18  23
BRANCH  19  25
ATOM     25  O   UNL     1       7.893   6.873  16.758  0.00  0.00    +0.000 OA
ATOM     26  C   UNL     1       7.612   8.085  17.456  0.00  0.00    +0.000 C 
ENDBRANCH  19  25
ENDBRANCH   1  15
BRANCH   1  27
ATOM     27  C   UNL     1       2.842   3.699  17.932  0.00  0.00    +0.000 C 
BRANCH  27  28
ATOM     28  C   UNL     1       1.319   3.544  17.908  0.00  0.00    +0.000 C 
BRANCH  28  30
ATOM     29  C   UNL     1       1.156   3.256  20.426  0.00  0.00    +0.000 C 
ATOM     30  C   UNL     1       0.903   2.628  19.069  0.00  0.00    +0.000 C 
ENDBRANCH  28  30
ENDBRANCH  27  28
ENDBRANCH   1  27
TORSDOF 9
ENDMDL
MODEL 4
REMARK VINA RESULT:      -7.3      4.014      9.042
REMARK  Name = 
REMARK  14 active torsions:
REMARK  status: ('A' for Active; 'I' for Inactive)
REMARK    1  A    between atoms: C_1  and  C_2
REMARK    2  A    between atoms: C_2  and  C_3
REMARK    3  A    between atoms: C_3  and  C_4
REMARK    4  A    between atoms: C_4  and  C_5
REMARK    5  A    between atoms: C_5  and  C_6
REMARK    6  A    between atoms: C_8  and  O_9
REMARK    7  A    between atoms: O_9  and  C_10
REMARK    8  A    between atoms: C_11  and  O_12
REMARK    9  A    between atoms: O_12  and  C_13
REMARK   10  A    between atoms: C_14  and  O_15
REMARK   11  A    between atoms: O_15  and  C_16
REMARK   12  A    between atoms: C_19  and  C_20
REMARK   13  A    between atoms: C_26  and  O_27
REMARK   14  A    between atoms: O_27  and  C_28
REMARK                            x       y       z     vdW  Elec       q    Type
REMARK                         _______ _______ _______ _____ _____    ______ ____
ROOT
ATOM      1  C   UNL     1       0.725  10.626  19.436  0.00  0.00    +0.000 C 
ATOM      2  C   UNL     1       1.516   9.697  18.523  0.00  0.00    +0.000 C 
ATOM      3  C   UNL     1       1.738   8.535  19.429  0.00  0.00    +0.000 C 
ATOM      4  N   UNL     1       1.270   8.676  20.625  0.00  0.00    +0.000 NA
ATOM      5  O   UNL     1       0.676   9.963  20.714  0.00  0.00    +0.000 OA
ENDROOT
BRANCH   3   6
ATOM      6  C   UNL     1       2.368   7.298  18.902  0.00  0.00    +0.000 A 
ATOM      7  C   UNL     1       3.217   7.518  17.794  0.00  0.00    +0.000 A 
ATOM      8  C   UNL     1       3.966   6.492  17.219  0.00  0.00    +0.000 A 
ATOM      9  C   UNL     1       3.859   5.210  17.728  0.00  0.00    +0.000 A 
ATOM     10 CL   UNL     1       4.788   3.936  17.042  0.00  0.00    +0.000 Cl
ATOM     11  C   UNL     1       3.006   4.962  18.798  0.00  0.00    +0.000 A 
ATOM     12  C   UNL     1       2.248   5.986  19.405  0.00  0.00    +0.000 A 
BRANCH  12  13
ATOM     13  O   UNL     1       1.570   5.491  20.478  0.00  0.00    +0.000 OA
ATOM     14  C   UNL     1       1.189   4.130  20.533  0.00  0.00    +0.000 C 
ENDBRANCH  12  13
ENDBRANCH   3   6
BRANCH   1  15
ATOM     15  C   UNL     1      -0.673  10.868  18.844  0.00  0.00    +0.000 A 
ATOM     16  C   UNL     1      -1.562  11.710  19.535  0.00  0.00    +0.000 A 
ATOM     17  C   UNL     1      -2.873  11.910  19.107  0.00  0.00    +0.000 A 
ATOM     18  C   UNL     1      -3.349  11.212  17.980  0.00  0.00    +0.000 A 
ATOM     19  C   UNL     1      -2.478  10.340  17.290  0.00  0.00    +0.000 A 
ATOM     20  C   UNL     1      -1.138  10.215  17.702  0.00  0.00    +0.000 A 
BRANCH  17  21
ATOM     21  O   UNL     1      -3.746  12.736  19.774  0.00  0.00    +0.000 OA
ATOM     22  C   UNL     1      -3.312  13.209  21.048  0.00  0.00    +0.000 C 
ENDBRANCH  17  21
BRANCH  18  23
ATOM     23  O   UNL     1      -4.685  11.401  17.712  0.00  0.00    +0.000 OA
ATOM     24  C   UNL     1      -5.608  10.536  18.354  0.00  0.00    +0.000 C 
ENDBRANCH  18  23
BRANCH  19  25
ATOM     25  O   UNL     1      -2.966   9.620  16.228  0.00  0.00    +0.000 OA
ATOM     26  C   UNL     1      -2.939  10.281  14.965  0.00  0.00    +0.000 C 
ENDBRANCH  19  25
ENDBRANCH   1  15
BRANCH   1  27
ATOM     27  C   UNL     1       1.345  12.032  19.626  0.00  0.00    +0.000 C 
BRANCH  27  28
ATOM     28  C   UNL     1       2.295  12.545  18.541  0.00  0.00    +0.000 C 
BRANCH  28  30
ATOM     29  C   UNL     1       0.817  14.537  19.088  0.00  0.00    +0.000 C 
ATOM     30  C   UNL     1       2.039  14.046  18.337  0.00  0.00    +0.000 C 
ENDBRANCH  28  30
ENDBRANCH  27  28
ENDBRANCH   1  27
TORSDOF 9
ENDMDL
MODEL 5
REMARK VINA RESULT:      -7.2      2.867      7.377
REMARK  Name = 
REMARK  14 active torsions:
REMARK  status: ('A' for Active; 'I' for Inactive)
REMARK    1  A    between atoms: C_1  and  C_2
REMARK    2  A    between atoms: C_2  and  C_3
REMARK    3  A    between atoms: C_3  and  C_4
REMARK    4  A    between atoms: C_4  and  C_5
REMARK    5  A    between atoms: C_5  and  C_6
REMARK    6  A    between atoms: C_8  and  O_9
REMARK    7  A    between atoms: O_9  and  C_10
REMARK    8  A    between atoms: C_11  and  O_12
REMARK    9  A    between atoms: O_12  and  C_13
REMARK   10  A    between atoms: C_14  and  O_15
REMARK   11  A    between atoms: O_15  and  C_16
REMARK   12  A    between atoms: C_19  and  C_20
REMARK   13  A    between atoms: C_26  and  O_27
REMARK   14  A    between atoms: O_27  and  C_28
REMARK                            x       y       z     vdW  Elec       q    Type
REMARK                         _______ _______ _______ _____ _____    ______ ____
ROOT
ATOM      1  C   UNL     1       2.470   5.760  19.668  0.00  0.00    +0.000 C 
ATOM      2  C   UNL     1       3.896   5.855  19.139  0.00  0.00    +0.000 C 
ATOM      3  C   UNL     1       3.762   5.141  17.839  0.00  0.00    +0.000 C 
ATOM      4  N   UNL     1       2.587   4.661  17.596  0.00  0.00    +0.000 NA
ATOM      5  O   UNL     1       1.753   4.963  18.706  0.00  0.00    +0.000 OA
ENDROOT
BRANCH   3   6
ATOM      6  C   UNL     1       4.906   5.108  16.893  0.00  0.00    +0.000 A 
ATOM      7  C   UNL     1       4.633   4.414  15.692  0.00  0.00    +0.000 A 
ATOM      8  C   UNL     1       5.554   4.354  14.646  0.00  0.00    +0.000 A 
ATOM      9  C   UNL     1       6.785   4.968  14.793  0.00  0.00    +0.000 A 
ATOM     10 CL   UNL     1       7.926   4.917  13.507  0.00  0.00    +0.000 Cl
ATOM     11  C   UNL     1       7.089   5.630  15.977  0.00  0.00    +0.000 A 
ATOM     12  C   UNL     1       6.169   5.716  17.045  0.00  0.00    +0.000 A 
BRANCH  12  13
ATOM     13  O   UNL     1       6.684   6.490  18.041  0.00  0.00    +0.000 OA
ATOM     14  C   UNL     1       7.730   6.015  18.865  0.00  0.00    +0.000 C 
ENDBRANCH  12  13
ENDBRANCH   3   6
BRANCH   1  15
ATOM     15  C   UNL     1       1.879   7.171  19.822  0.00  0.00    +0.000 A 
ATOM     16  C   UNL     1       1.041   7.436  20.919  0.00  0.00    +0.000 A 
ATOM     17  C   UNL     1       0.401   8.663  21.079  0.00  0.00    +0.000 A 
ATOM     18  C   UNL     1       0.548   9.657  20.093  0.00  0.00    +0.000 A 
ATOM     19  C   UNL     1       1.365   9.398  18.969  0.00  0.00    +0.000 A 
ATOM     20  C   UNL     1       2.058   8.177  18.872  0.00  0.00    +0.000 A 
BRANCH  17  21
ATOM     21  O   UNL     1      -0.417   8.931  22.153  0.00  0.00    +0.000 OA
ATOM     22  C   UNL     1       0.225   9.459  23.313  0.00  0.00    +0.000 C 
ENDBRANCH  17  21
BRANCH  18  23
ATOM     23  O   UNL     1      -0.212  10.785  20.298  0.00  0.00    +0.000 OA
ATOM     24  C   UNL     1      -1.365  10.951  19.488  0.00  0.00    +0.000 C 
ENDBRANCH  18  23
BRANCH  19  25
ATOM     25  O   UNL     1       1.457  10.350  17.985  0.00  0.00    +0.000 OA
ATOM     26  C   UNL     1       2.262  11.486  18.292  0.00  0.00    +0.000 C 
ENDBRANCH  19  25
ENDBRANCH   1  15
BRANCH   1  27
ATOM     27  C   UNL     1       2.337   5.099  21.062  0.00  0.00    +0.000 C 
BRANCH  27  28
ATOM     28  C   UNL     1       1.639   3.739  21.141  0.00  0.00    +0.000 C 
BRANCH  28  30
ATOM     29  C   UNL     1       3.621   2.368  20.340  0.00  0.00    +0.000 C 
ATOM     30  C   UNL     1       2.686   2.672  21.494  0.00  0.00    +0.000 C 
ENDBRANCH  28  30
ENDBRANCH  27  28
ENDBRANCH   1  27
TORSDOF 9
ENDMDL
MODEL 6
REMARK VINA RESULT:      -7.2      1.166      1.897
REMARK  Name = 
REMARK  14 active torsions:
REMARK  status: ('A' for Active; 'I' for Inactive)
REMARK    1  A    between atoms: C_1  and  C_2
REMARK    2  A    between atoms: C_2  and  C_3
REMARK    3  A    between atoms: C_3  and  C_4
REMARK    4  A    between atoms: C_4  and  C_5
REMARK    5  A    between atoms: C_5  and  C_6
REMARK    6  A    between atoms: C_8  and  O_9
REMARK    7  A    between atoms: O_9  and  C_10
REMARK    8  A    between atoms: C_11  and  O_12
REMARK    9  A    between atoms: O_12  and  C_13
REMARK   10  A    between atoms: C_14  and  O_15
REMARK   11  A    between atoms: O_15  and  C_16
REMARK   12  A    between atoms: C_19  and  C_20
REMARK   13  A    between atoms: C_26  and  O_27
REMARK   14  A    between atoms: O_27  and  C_28
REMARK                            x       y       z     vdW  Elec       q    Type
REMARK                         _______ _______ _______ _____ _____    ______ ____
ROOT
ATOM      1  C   UNL     1       3.858   4.131  17.923  0.00  0.00    +0.000 C 
ATOM      2  C   UNL     1       2.837   5.256  17.802  0.00  0.00    +0.000 C 
ATOM      3  C   UNL     1       2.903   5.843  19.169  0.00  0.00    +0.000 C 
ATOM      4  N   UNL     1       3.705   5.243  19.986  0.00  0.00    +0.000 NA
ATOM      5  O   UNL     1       4.290   4.147  19.297  0.00  0.00    +0.000 OA
ENDROOT
BRANCH   3   6
ATOM      6  C   UNL     1       2.153   7.088  19.475  0.00  0.00    +0.000 A 
ATOM      7  C   UNL     1       1.579   7.105  20.767  0.00  0.00    +0.000 A 
ATOM      8  C   UNL     1       0.915   8.224  21.267  0.00  0.00    +0.000 A 
ATOM      9  C   UNL     1       0.785   9.347  20.468  0.00  0.00    +0.000 A 
ATOM     10 CL   UNL     1      -0.017  10.742  21.075  0.00  0.00    +0.000 Cl
ATOM     11  C   UNL     1       1.313   9.343  19.182  0.00  0.00    +0.000 A 
ATOM     12  C   UNL     1       2.002   8.228  18.658  0.00  0.00    +0.000 A 
BRANCH  12  13
ATOM     13  O   UNL     1       2.489   8.520  17.420  0.00  0.00    +0.000 OA
ATOM     14  C   UNL     1       3.852   8.313  17.106  0.00  0.00    +0.000 C 
ENDBRANCH  12  13
ENDBRANCH   3   6
BRANCH   1  15
ATOM     15  C   UNL     1       5.015   4.372  16.940  0.00  0.00    +0.000 A 
ATOM     16  C   UNL     1       5.938   5.394  17.221  0.00  0.00    +0.000 A 
ATOM     17  C   UNL     1       6.962   5.728  16.336  0.00  0.00    +0.000 A 
ATOM     18  C   UNL     1       7.053   5.064  15.098  0.00  0.00    +0.000 A 
ATOM     19  C   UNL     1       6.118   4.053  14.787  0.00  0.00    +0.000 A 
ATOM     20  C   UNL     1       5.140   3.687  15.731  0.00  0.00    +0.000 A 
BRANCH  17  21
ATOM     21  O   UNL     1       7.871   6.724  16.607  0.00  0.00    +0.000 OA
ATOM     22  C   UNL     1       7.514   7.635  17.645  0.00  0.00    +0.000 C 
ENDBRANCH  17  21
BRANCH  18  23
ATOM     23  O   UNL     1       8.032   5.546  14.260  0.00  0.00    +0.000 OA
ATOM     24  C   UNL     1       7.837   5.380  12.865  0.00  0.00    +0.000 C 
ENDBRANCH  18  23
BRANCH  19  25
ATOM     25  O   UNL     1       6.178   3.451  13.554  0.00  0.00    +0.000 OA
ATOM     26  C   UNL     1       4.979   3.495  12.783  0.00  0.00    +0.000 C 
ENDBRANCH  19  25
ENDBRANCH   1  15
BRANCH   1  27
ATOM     27  C   UNL     1       3.314   2.721  17.587  0.00  0.00    +0.000 C 
BRANCH  27  28
ATOM     28  C   UNL     1       2.667   1.919  18.719  0.00  0.00    +0.000 C 
BRANCH  28  30
ATOM     29  C   UNL     1       0.825   3.009  20.086  0.00  0.00    +0.000 C 
ATOM     30  C   UNL     1       1.180   2.294  18.797  0.00  0.00    +0.000 C 
ENDBRANCH  28  30
ENDBRANCH  27  28
ENDBRANCH   1  27
TORSDOF 9
ENDMDL
MODEL 7
REMARK VINA RESULT:      -7.0      4.045      9.222
REMARK  Name = 
REMARK  14 active torsions:
REMARK  status: ('A' for Active; 'I' for Inactive)
REMARK    1  A    between atoms: C_1  and  C_2
REMARK    2  A    between atoms: C_2  and  C_3
REMARK    3  A    between atoms: C_3  and  C_4
REMARK    4  A    between atoms: C_4  and  C_5
REMARK    5  A    between atoms: C_5  and  C_6
REMARK    6  A    between atoms: C_8  and  O_9
REMARK    7  A    between atoms: O_9  and  C_10
REMARK    8  A    between atoms: C_11  and  O_12
REMARK    9  A    between atoms: O_12  and  C_13
REMARK   10  A    between atoms: C_14  and  O_15
REMARK   11  A    between atoms: O_15  and  C_16
REMARK   12  A    between atoms: C_19  and  C_20
REMARK   13  A    between atoms: C_26  and  O_27
REMARK   14  A    between atoms: O_27  and  C_28
REMARK                            x       y       z     vdW  Elec       q    Type
REMARK                         _______ _______ _______ _____ _____    ______ ____
ROOT
ATOM      1  C   UNL     1       0.794  10.614  19.774  0.00  0.00    +0.000 C 
ATOM      2  C   UNL     1       1.438   9.447  19.035  0.00  0.00    +0.000 C 
ATOM      3  C   UNL     1       1.545   8.445  20.132  0.00  0.00    +0.000 C 
ATOM      4  N   UNL     1       1.135   8.851  21.288  0.00  0.00    +0.000 NA
ATOM      5  O   UNL     1       0.705  10.198  21.150  0.00  0.00    +0.000 OA
ENDROOT
BRANCH   3   6
ATOM      6  C   UNL     1       2.003   7.065  19.829  0.00  0.00    +0.000 A 
ATOM      7  C   UNL     1       1.477   6.085  20.701  0.00  0.00    +0.000 A 
ATOM      8  C   UNL     1       1.721   4.724  20.519  0.00  0.00    +0.000 A 
ATOM      9  C   UNL     1       2.525   4.316  19.470  0.00  0.00    +0.000 A 
ATOM     10 CL   UNL     1       2.823   2.640  19.222  0.00  0.00    +0.000 Cl
ATOM     11  C   UNL     1       3.080   5.263  18.617  0.00  0.00    +0.000 A 
ATOM     12  C   UNL     1       2.837   6.645  18.772  0.00  0.00    +0.000 A 
BRANCH  12  13
ATOM     13  O   UNL     1       3.424   7.338  17.757  0.00  0.00    +0.000 OA
ATOM     14  C   UNL     1       4.529   6.803  17.054  0.00  0.00    +0.000 C 
ENDBRANCH  12  13
ENDBRANCH   3   6
BRANCH   1  15
ATOM     15  C   UNL     1      -0.581  10.921  19.161  0.00  0.00    +0.000 A 
ATOM     16  C   UNL     1      -1.424  11.835  19.817  0.00  0.00    +0.000 A 
ATOM     17  C   UNL     1      -2.717  12.100  19.370  0.00  0.00    +0.000 A 
ATOM     18  C   UNL     1      -3.224  11.398  18.258  0.00  0.00    +0.000 A 
ATOM     19  C   UNL     1      -2.401  10.456  17.603  0.00  0.00    +0.000 A 
ATOM     20  C   UNL     1      -1.075  10.264  18.033  0.00  0.00    +0.000 A 
BRANCH  17  21
ATOM     21  O   UNL     1      -3.545  12.996  20.003  0.00  0.00    +0.000 OA
ATOM     22  C   UNL     1      -3.833  12.724  21.374  0.00  0.00    +0.000 C 
ENDBRANCH  17  21
BRANCH  18  23
ATOM     23  O   UNL     1      -4.544  11.658  17.971  0.00  0.00    +0.000 OA
ATOM     24  C   UNL     1      -5.507  10.716  18.415  0.00  0.00    +0.000 C 
ENDBRANCH  18  23
BRANCH  19  25
ATOM     25  O   UNL     1      -2.922   9.735  16.558  0.00  0.00    +0.000 OA
ATOM     26  C   UNL     1      -2.827  10.347  15.273  0.00  0.00    +0.000 C 
ENDBRANCH  19  25
ENDBRANCH   1  15
BRANCH   1  27
ATOM     27  C   UNL     1       1.586  11.943  19.705  0.00  0.00    +0.000 C 
BRANCH  27  28
ATOM     28  C   UNL     1       2.219  12.326  18.365  0.00  0.00    +0.000 C 
BRANCH  28  30
ATOM     29  C   UNL     1       1.036  14.523  18.841  0.00  0.00    +0.000 C 
ATOM     30  C   UNL     1       2.274  13.858  18.270  0.00  0.00    +0.000 C 
ENDBRANCH  28  30
ENDBRANCH  27  28
ENDBRANCH   1  27
TORSDOF 9
ENDMDL
MODEL 8
REMARK VINA RESULT:      -7.0      2.937      7.325
REMARK  Name = 
REMARK  14 active torsions:
REMARK  status: ('A' for Active; 'I' for Inactive)
REMARK    1  A    between atoms: C_1  and  C_2
REMARK    2  A    between atoms: C_2  and  C_3
REMARK    3  A    between atoms: C_3  and  C_4
REMARK    4  A    between atoms: C_4  and  C_5
REMARK    5  A    between atoms: C_5  and  C_6
REMARK    6  A    between atoms: C_8  and  O_9
REMARK    7  A    between atoms: O_9  and  C_10
REMARK    8  A    between atoms: C_11  and  O_12
REMARK    9  A    between atoms: O_12  and  C_13
REMARK   10  A    between atoms: C_14  and  O_15
REMARK   11  A    between atoms: O_15  and  C_16
REMARK   12  A    between atoms: C_19  and  C_20
REMARK   13  A    between atoms: C_26  and  O_27
REMARK   14  A    between atoms: O_27  and  C_28
REMARK                            x       y       z     vdW  Elec       q    Type
REMARK                         _______ _______ _______ _____ _____    ______ ____
ROOT
ATOM      1  C   UNL     1       2.455   5.789  19.730  0.00  0.00    +0.000 C 
ATOM      2  C   UNL     1       3.908   5.746  19.275  0.00  0.00    +0.000 C 
ATOM      3  C   UNL     1       3.765   5.106  17.938  0.00  0.00    +0.000 C 
ATOM      4  N   UNL     1       2.560   4.770  17.617  0.00  0.00    +0.000 NA
ATOM      5  O   UNL     1       1.707   5.116  18.699  0.00  0.00    +0.000 OA
ENDROOT
BRANCH   3   6
ATOM      6  C   UNL     1       4.947   4.986  17.047  0.00  0.00    +0.000 A 
ATOM      7  C   UNL     1       4.647   5.150  15.676  0.00  0.00    +0.000 A 
ATOM      8  C   UNL     1       5.640   5.161  14.696  0.00  0.00    +0.000 A 
ATOM      9  C   UNL     1       6.960   4.977  15.069  0.00  0.00    +0.000 A 
ATOM     10 CL   UNL     1       8.198   5.004  13.876  0.00  0.00    +0.000 Cl
ATOM     11  C   UNL     1       7.278   4.782  16.409  0.00  0.00    +0.000 A 
ATOM     12  C   UNL     1       6.292   4.781  17.420  0.00  0.00    +0.000 A 
BRANCH  12  13
ATOM     13  O   UNL     1       6.880   4.658  18.643  0.00  0.00    +0.000 OA
ATOM     14  C   UNL     1       7.670   5.701  19.179  0.00  0.00    +0.000 C 
ENDBRANCH  12  13
ENDBRANCH   3   6
BRANCH   1  15
ATOM     15  C   UNL     1       2.013   7.249  19.922  0.00  0.00    +0.000 A 
ATOM     16  C   UNL     1       1.830   7.733  21.228  0.00  0.00    +0.000 A 
ATOM     17  C   UNL     1       1.350   9.017  21.479  0.00  0.00    +0.000 A 
ATOM     18  C   UNL     1       0.984   9.844  20.400  0.00  0.00    +0.000 A 
ATOM     19  C   UNL     1       1.134   9.364  19.080  0.00  0.00    +0.000 A 
ATOM     20  C   UNL     1       1.691   8.091  18.856  0.00  0.00    +0.000 A 
BRANCH  17  21
ATOM     21  O   UNL     1       1.174   9.499  22.755  0.00  0.00    +0.000 OA
ATOM     22  C   UNL     1      -0.149   9.408  23.283  0.00  0.00    +0.000 C 
ENDBRANCH  17  21
BRANCH  18  23
ATOM     23  O   UNL     1       0.422  11.046  20.764  0.00  0.00    +0.000 OA
ATOM     24  C   UNL     1       1.225  12.208  20.633  0.00  0.00    +0.000 C 
ENDBRANCH  18  23
BRANCH  19  25
ATOM     25  O   UNL     1       0.721  10.153  18.037  0.00  0.00    +0.000 OA
ATOM     26  C   UNL     1      -0.679  10.138  17.764  0.00  0.00    +0.000 C 
ENDBRANCH  19  25
ENDBRANCH   1  15
BRANCH   1  27
ATOM     27  C   UNL     1       2.177   5.089  21.084  0.00  0.00    +0.000 C 
BRANCH  27  28
ATOM     28  C   UNL     1       1.393   3.775  21.059  0.00  0.00    +0.000 C 
BRANCH  28  30
ATOM     29  C   UNL     1       2.034   1.842  19.540  0.00  0.00    +0.000 C 
ATOM     30  C   UNL     1       2.376   2.624  20.793  0.00  0.00    +0.000 C 
ENDBRANCH  28  30
ENDBRANCH  27  28
ENDBRANCH   1  27
TORSDOF 9
ENDMDL
MODEL 9
REMARK VINA RESULT:      -7.0      2.880      7.417
REMARK  Name = 
REMARK  14 active torsions:
REMARK  status: ('A' for Active; 'I' for Inactive)
REMARK    1  A    between atoms: C_1  and  C_2
REMARK    2  A    between atoms: C_2  and  C_3
REMARK    3  A    between atoms: C_3  and  C_4
REMARK    4  A    between atoms: C_4  and  C_5
REMARK    5  A    between atoms: C_5  and  C_6
REMARK    6  A    between atoms: C_8  and  O_9
REMARK    7  A    between atoms: O_9  and  C_10
REMARK    8  A    between atoms: C_11  and  O_12
REMARK    9  A    between atoms: O_12  and  C_13
REMARK   10  A    between atoms: C_14  and  O_15
REMARK   11  A    between atoms: O_15  and  C_16
REMARK   12  A    between atoms: C_19  and  C_20
REMARK   13  A    between atoms: C_26  and  O_27
REMARK   14  A    between atoms: O_27  and  C_28
REMARK                            x       y       z     vdW  Elec       q    Type
REMARK                         _______ _______ _______ _____ _____    ______ ____
ROOT
ATOM      1  C   UNL     1       2.357   5.765  19.812  0.00  0.00    +0.000 C 
ATOM      2  C   UNL     1       3.791   5.828  19.298  0.00  0.00    +0.000 C 
ATOM      3  C   UNL     1       3.638   5.189  17.961  0.00  0.00    +0.000 C 
ATOM      4  N   UNL     1       2.447   4.770  17.686  0.00  0.00    +0.000 NA
ATOM      5  O   UNL     1       1.617   5.048  18.805  0.00  0.00    +0.000 OA
ENDROOT
BRANCH   3   6
ATOM      6  C   UNL     1       4.788   5.158  17.023  0.00  0.00    +0.000 A 
ATOM      7  C   UNL     1       4.510   4.503  15.801  0.00  0.00    +0.000 A 
ATOM      8  C   UNL     1       5.437   4.452  14.760  0.00  0.00    +0.000 A 
ATOM      9  C   UNL     1       6.679   5.036  14.932  0.00  0.00    +0.000 A 
ATOM     10 CL   UNL     1       7.828   4.997  13.653  0.00  0.00    +0.000 Cl
ATOM     11  C   UNL     1       6.989   5.659  16.136  0.00  0.00    +0.000 A 
ATOM     12  C   UNL     1       6.063   5.735  17.199  0.00  0.00    +0.000 A 
BRANCH  12  13
ATOM     13  O   UNL     1       6.586   6.470  18.220  0.00  0.00    +0.000 OA
ATOM     14  C   UNL     1       7.805   6.100  18.834  0.00  0.00    +0.000 C 
ENDBRANCH  12  13
ENDBRANCH   3   6
BRANCH   1  15
ATOM     15  C   UNL     1       1.822   7.188  20.035  0.00  0.00    +0.000 A 
ATOM     16  C   UNL     1       1.760   8.066  18.938  0.00  0.00    +0.000 A 
ATOM     17  C   UNL     1       1.368   9.395  19.077  0.00  0.00    +0.000 A 
ATOM     18  C   UNL     1       1.072   9.901  20.358  0.00  0.00    +0.000 A 
ATOM     19  C   UNL     1       1.155   9.041  21.475  0.00  0.00    +0.000 A 
ATOM     20  C   UNL     1       1.483   7.684  21.294  0.00  0.00    +0.000 A 
BRANCH  17  21
ATOM     21  O   UNL     1       1.300  10.258  18.008  0.00  0.00    +0.000 OA
ATOM     22  C   UNL     1       2.430  11.108  17.816  0.00  0.00    +0.000 C 
ENDBRANCH  17  21
BRANCH  18  23
ATOM     23  O   UNL     1       0.802  11.249  20.393  0.00  0.00    +0.000 OA
ATOM     24  C   UNL     1      -0.559  11.645  20.316  0.00  0.00    +0.000 C 
ENDBRANCH  18  23
BRANCH  19  25
ATOM     25  O   UNL     1       0.922   9.556  22.726  0.00  0.00    +0.000 OA
ATOM     26  C   UNL     1      -0.422   9.464  23.194  0.00  0.00    +0.000 C 
ENDBRANCH  19  25
ENDBRANCH   1  15
BRANCH   1  27
ATOM     27  C   UNL     1       2.185   5.039  21.169  0.00  0.00    +0.000 C 
BRANCH  27  28
ATOM     28  C   UNL     1       1.612   3.619  21.150  0.00  0.00    +0.000 C 
BRANCH  28  30
ATOM     29  C   UNL     1       3.570   2.282  20.237  0.00  0.00    +0.000 C 
ATOM     30  C   UNL     1       2.745   2.630  21.462  0.00  0.00    +0.000 C 
ENDBRANCH  28  30
ENDBRANCH  27  28
ENDBRANCH   1  27
TORSDOF 9
ENDMDL
