MODEL 1
REMARK VINA RESULT:      -7.9      0.000      0.000
REMARK  Name = 
REMARK  6 active torsions:
REMARK  status: ('A' for Active; 'I' for Inactive)
REMARK    1  A    between atoms: C_1  and  C_2
REMARK    2  A    between atoms: C_7  and  C_8
REMARK    3  A    between atoms: C_10  and  N_11
REMARK    4  A    between atoms: C_12  and  C_14
REMARK    5  A    between atoms: N_23  and  C_24
REMARK    6  A    between atoms: C_27  and  C_28
REMARK                            x       y       z     vdW  Elec       q    Type
REMARK                         _______ _______ _______ _____ _____    ______ ____
ROOT
ATOM      1  C   UNL     1      -1.504  12.367  20.712  0.00  0.00    +0.000 A 
ATOM      2  C   UNL     1      -0.594  11.300  20.832  0.00  0.00    +0.000 A 
ATOM      3  C   UNL     1      -0.637  10.630  19.629  0.00  0.00    +0.000 A 
ATOM      4  N   UNL     1      -1.606  11.277  18.856  0.00  0.00    +0.000 N 
ATOM      5  N   UNL     1      -2.069  12.388  19.505  0.00  0.00    +0.000 NA
ENDROOT
BRANCH   1  12
ATOM      6  C   UNL     1      -6.404  13.252  24.101  0.00  0.00    +0.000 C 
ATOM      7  C   UNL     1      -5.037  12.691  24.401  0.00  0.00    +0.000 C 
ATOM      8  O   UNL     1      -4.782  12.269  25.529  0.00  0.00    +0.000 OA
ATOM      9  N   UNL     1      -4.118  12.655  23.363  0.00  0.00    +0.000 N 
ATOM     10  C   UNL     1      -2.856  11.949  23.560  0.00  0.00    +0.000 C 
ATOM     11  C   UNL     1      -1.674  12.844  23.199  0.00  0.00    +0.000 C 
ATOM     12  C   UNL     1      -1.801  13.412  21.772  0.00  0.00    +0.000 C 
ATOM     13  C   UNL     1      -3.169  14.110  21.629  0.00  0.00    +0.000 C 
ATOM     14  C   UNL     1      -4.330  13.198  22.020  0.00  0.00    +0.000 C 
ENDBRANCH   1  12
BRANCH   4  15
ATOM     15  C   UNL     1      -2.187  10.889  17.611  0.00  0.00    +0.000 A 
ATOM     16  C   UNL     1      -1.672   9.836  16.848  0.00  0.00    +0.000 A 
ATOM     17  C   UNL     1      -2.274   9.477  15.636  0.00  0.00    +0.000 A 
ATOM     18  C   UNL     1      -3.404  10.154  15.171  0.00  0.00    +0.000 A 
ATOM     19  C   UNL     1      -4.043   9.780  13.866  0.00  0.00    +0.000 C 
ATOM     20  C   UNL     1      -3.940  11.187  15.945  0.00  0.00    +0.000 A 
ATOM     21  C   UNL     1      -3.338  11.555  17.155  0.00  0.00    +0.000 A 
ENDBRANCH   4  15
BRANCH   3  22
ATOM     22  N   UNL     1       0.178   9.539  19.329  0.00  0.00    +0.000 N 
ATOM     23  C   UNL     1       1.446   9.750  18.699  0.00  0.00    +0.000 C 
ATOM     24  O   UNL     1       1.892  10.869  18.505  0.00  0.00    +0.000 OA
ATOM     25  H   UNL     1      -0.103   8.597  19.598  0.00  0.00    +0.000 HD
BRANCH  23  26
ATOM     26  C   UNL     1       2.149   8.522  18.465  0.00  0.00    +0.000 A 
ATOM     27  C   UNL     1       3.042   8.272  17.402  0.00  0.00    +0.000 A 
ATOM     28  N   UNL     1       3.608   7.070  17.468  0.00  0.00    +0.000 NA
ATOM     29  N   UNL     1       3.123   6.529  18.605  0.00  0.00    +0.000 N 
ATOM     30  C   UNL     1       3.543   5.370  19.243  0.00  0.00    +0.000 A 
ATOM     31  C   UNL     1       2.953   4.975  20.378  0.00  0.00    +0.000 A 
ATOM     32  C   UNL     1       1.791   5.806  20.808  0.00  0.00    +0.000 A 
ATOM     33  N   UNL     1       1.424   6.946  20.288  0.00  0.00    +0.000 NA
ATOM     34  C   UNL     1       2.138   7.344  19.186  0.00  0.00    +0.000 A 
ENDBRANCH  23  26
ENDBRANCH   3  22
TORSDOF 4
ENDMDL
MODEL 2
REMARK VINA RESULT:      -7.7      1.168      1.446
REMARK  Name = 
REMARK  6 active torsions:
REMARK  status: ('A' for Active; 'I' for Inactive)
REMARK    1  A    between atoms: C_1  and  C_2
REMARK    2  A    between atoms: C_7  and  C_8
REMARK    3  A    between atoms: C_10  and  N_11
REMARK    4  A    between atoms: C_12  and  C_14
REMARK    5  A    between atoms: N_23  and  C_24
REMARK    6  A    between atoms: C_27  and  C_28
REMARK                            x       y       z     vdW  Elec       q    Type
REMARK                         _______ _______ _______ _____ _____    ______ ____
ROOT
ATOM      1  C   UNL     1      -1.177  11.743  21.811  0.00  0.00    +0.000 A 
ATOM      2  C   UNL     1      -0.281  10.659  21.757  0.00  0.00    +0.000 A 
ATOM      3  C   UNL     1      -0.339  10.186  20.463  0.00  0.00    +0.000 A 
ATOM      4  N   UNL     1      -1.304  10.958  19.808  0.00  0.00    +0.000 N 
ATOM      5  N   UNL     1      -1.748  11.960  20.627  0.00  0.00    +0.000 NA
ENDROOT
BRANCH   1  12
ATOM      6  C   UNL     1      -4.809  16.499  22.493  0.00  0.00    +0.000 C 
ATOM      7  C   UNL     1      -4.903  15.065  22.945  0.00  0.00    +0.000 C 
ATOM      8  O   UNL     1      -5.901  14.677  23.553  0.00  0.00    +0.000 OA
ATOM      9  N   UNL     1      -3.848  14.223  22.626  0.00  0.00    +0.000 N 
ATOM     10  C   UNL     1      -3.984  12.791  22.877  0.00  0.00    +0.000 C 
ATOM     11  C   UNL     1      -2.803  12.270  23.688  0.00  0.00    +0.000 C 
ATOM     12  C   UNL     1      -1.455  12.614  23.023  0.00  0.00    +0.000 C 
ATOM     13  C   UNL     1      -1.398  14.132  22.759  0.00  0.00    +0.000 C 
ATOM     14  C   UNL     1      -2.606  14.628  21.966  0.00  0.00    +0.000 C 
ENDBRANCH   1  12
BRANCH   4  15
ATOM     15  C   UNL     1      -1.896  10.777  18.523  0.00  0.00    +0.000 A 
ATOM     16  C   UNL     1      -1.389   9.861  17.594  0.00  0.00    +0.000 A 
ATOM     17  C   UNL     1      -2.003   9.704  16.345  0.00  0.00    +0.000 A 
ATOM     18  C   UNL     1      -3.137  10.447  16.007  0.00  0.00    +0.000 A 
ATOM     19  C   UNL     1      -3.788  10.288  14.664  0.00  0.00    +0.000 C 
ATOM     20  C   UNL     1      -3.664  11.340  16.943  0.00  0.00    +0.000 A 
ATOM     21  C   UNL     1      -3.051  11.507  18.190  0.00  0.00    +0.000 A 
ENDBRANCH   4  15
BRANCH   3  22
ATOM     22  N   UNL     1       0.458   9.144  19.991  0.00  0.00    +0.000 N 
ATOM     23  C   UNL     1       1.512   9.422  19.062  0.00  0.00    +0.000 C 
ATOM     24  O   UNL     1       1.807  10.562  18.742  0.00  0.00    +0.000 OA
ATOM     25  H   UNL     1       0.327   8.196  20.339  0.00  0.00    +0.000 HD
BRANCH  23  26
ATOM     26  C   UNL     1       2.229   8.238  18.683  0.00  0.00    +0.000 A 
ATOM     27  C   UNL     1       3.075   8.110  17.563  0.00  0.00    +0.000 A 
ATOM     28  N   UNL     1       3.670   6.921  17.491  0.00  0.00    +0.000 NA
ATOM     29  N   UNL     1       3.250   6.266  18.594  0.00  0.00    +0.000 N 
ATOM     30  C   UNL     1       3.724   5.065  19.102  0.00  0.00    +0.000 A 
ATOM     31  C   UNL     1       3.197   4.553  20.221  0.00  0.00    +0.000 A 
ATOM     32  C   UNL     1       2.040   5.311  20.778  0.00  0.00    +0.000 A 
ATOM     33  N   UNL     1       1.624   6.484  20.384  0.00  0.00    +0.000 NA
ATOM     34  C   UNL     1       2.277   6.999  19.292  0.00  0.00    +0.000 A 
ENDBRANCH  23  26
ENDBRANCH   3  22
TORSDOF 4
ENDMDL
MODEL 3
REMARK VINA RESULT:      -7.7      1.496      2.007
REMARK  Name = 
REMARK  6 active torsions:
REMARK  status: ('A' for Active; 'I' for Inactive)
REMARK    1  A    between atoms: C_1  and  C_2
REMARK    2  A    between atoms: C_7  and  C_8
REMARK    3  A    between atoms: C_10  and  N_11
REMARK    4  A    between atoms: C_12  and  C_14
REMARK    5  A    between atoms: N_23  and  C_24
REMARK    6  A    between atoms: C_27  and  C_28
REMARK                            x       y       z     vdW  Elec       q    Type
REMARK                         _______ _______ _______ _____ _____    ______ ____
ROOT
ATOM      1  C   UNL     1      -0.898  11.645  21.640  0.00  0.00    +0.000 A 
ATOM      2  C   UNL     1       0.172  10.772  21.370  0.00  0.00    +0.000 A 
ATOM      3  C   UNL     1       0.032  10.400  20.050  0.00  0.00    +0.000 A 
ATOM      4  N   UNL     1      -1.140  11.011  19.595  0.00  0.00    +0.000 N 
ATOM      5  N   UNL     1      -1.653  11.835  20.559  0.00  0.00    +0.000 NA
ENDROOT
BRANCH   1  12
ATOM      6  C   UNL     1      -4.118  16.578  22.893  0.00  0.00    +0.000 C 
ATOM      7  C   UNL     1      -4.370  15.108  23.107  0.00  0.00    +0.000 C 
ATOM      8  O   UNL     1      -5.435  14.733  23.598  0.00  0.00    +0.000 OA
ATOM      9  N   UNL     1      -3.378  14.224  22.710  0.00  0.00    +0.000 N 
ATOM     10  C   UNL     1      -3.659  12.792  22.724  0.00  0.00    +0.000 C 
ATOM     11  C   UNL     1      -2.583  12.037  23.497  0.00  0.00    +0.000 C 
ATOM     12  C   UNL     1      -1.171  12.342  22.960  0.00  0.00    +0.000 C 
ATOM     13  C   UNL     1      -0.960  13.870  22.943  0.00  0.00    +0.000 C 
ATOM     14  C   UNL     1      -2.066  14.600  22.182  0.00  0.00    +0.000 C 
ENDBRANCH   1  12
BRANCH   4  15
ATOM     15  C   UNL     1      -1.854  10.817  18.375  0.00  0.00    +0.000 A 
ATOM     16  C   UNL     1      -2.987  11.571  18.049  0.00  0.00    +0.000 A 
ATOM     17  C   UNL     1      -3.657  11.360  16.838  0.00  0.00    +0.000 A 
ATOM     18  C   UNL     1      -3.202  10.403  15.927  0.00  0.00    +0.000 A 
ATOM     19  C   UNL     1      -3.926  10.166  14.634  0.00  0.00    +0.000 C 
ATOM     20  C   UNL     1      -2.054   9.669  16.234  0.00  0.00    +0.000 A 
ATOM     21  C   UNL     1      -1.384   9.871  17.447  0.00  0.00    +0.000 A 
ENDBRANCH   4  15
BRANCH   3  22
ATOM     22  N   UNL     1       0.942   9.581  19.383  0.00  0.00    +0.000 N 
ATOM     23  C   UNL     1       1.344   8.339  19.971  0.00  0.00    +0.000 C 
ATOM     24  O   UNL     1       0.837   7.917  20.998  0.00  0.00    +0.000 OA
ATOM     25  H   UNL     1       1.286   9.839  18.459  0.00  0.00    +0.000 HD
BRANCH  23  26
ATOM     26  C   UNL     1       2.283   7.627  19.152  0.00  0.00    +0.000 A 
ATOM     27  C   UNL     1       2.921   8.132  18.000  0.00  0.00    +0.000 A 
ATOM     28  N   UNL     1       3.799   7.281  17.474  0.00  0.00    +0.000 NA
ATOM     29  N   UNL     1       3.778   6.218  18.305  0.00  0.00    +0.000 N 
ATOM     30  C   UNL     1       4.648   5.137  18.325  0.00  0.00    +0.000 A 
ATOM     31  C   UNL     1       4.489   4.162  19.228  0.00  0.00    +0.000 A 
ATOM     32  C   UNL     1       3.283   4.297  20.097  0.00  0.00    +0.000 A 
ATOM     33  N   UNL     1       2.497   5.335  20.169  0.00  0.00    +0.000 NA
ATOM     34  C   UNL     1       2.779   6.345  19.283  0.00  0.00    +0.000 A 
ENDBRANCH  23  26
ENDBRANCH   3  22
TORSDOF 4
ENDMDL
MODEL 4
REMARK VINA RESULT:      -7.3      4.239      8.399
REMARK  Name = 
REMARK  6 active torsions:
REMARK  status: ('A' for Active; 'I' for Inactive)
REMARK    1  A    between atoms: C_1  and  C_2
REMARK    2  A    between atoms: C_7  and  C_8
REMARK    3  A    between atoms: C_10  and  N_11
REMARK    4  A    between atoms: C_12  and  C_14
REMARK    5  A    between atoms: N_23  and  C_24
REMARK    6  A    between atoms: C_27  and  C_28
REMARK                            x       y       z     vdW  Elec       q    Type
REMARK                         _______ _______ _______ _____ _____    ______ ____
ROOT
ATOM      1  C   UNL     1       1.240  14.830  18.833  0.00  0.00    +0.000 A 
ATOM      2  C   UNL     1      -0.166  14.803  18.777  0.00  0.00    +0.000 A 
ATOM      3  C   UNL     1      -0.538  13.562  19.248  0.00  0.00    +0.000 A 
ATOM      4  N   UNL     1       0.649  12.872  19.512  0.00  0.00    +0.000 N 
ATOM      5  N   UNL     1       1.728  13.694  19.329  0.00  0.00    +0.000 NA
ENDROOT
BRANCH   1  12
ATOM      6  C   UNL     1       6.771  16.362  20.661  0.00  0.00    +0.000 C 
ATOM      7  C   UNL     1       6.244  15.753  19.387  0.00  0.00    +0.000 C 
ATOM      8  O   UNL     1       7.026  15.436  18.490  0.00  0.00    +0.000 OA
ATOM      9  N   UNL     1       4.875  15.552  19.292  0.00  0.00    +0.000 N 
ATOM     10  C   UNL     1       4.348  14.796  18.160  0.00  0.00    +0.000 C 
ATOM     11  C   UNL     1       3.240  15.574  17.459  0.00  0.00    +0.000 C 
ATOM     12  C   UNL     1       2.128  15.997  18.439  0.00  0.00    +0.000 C 
ATOM     13  C   UNL     1       2.763  16.758  19.621  0.00  0.00    +0.000 C 
ATOM     14  C   UNL     1       3.884  15.964  20.287  0.00  0.00    +0.000 C 
ENDBRANCH   1  12
BRANCH   4  15
ATOM     15  C   UNL     1       0.852  11.497  19.833  0.00  0.00    +0.000 A 
ATOM     16  C   UNL     1       0.685  11.005  21.133  0.00  0.00    +0.000 A 
ATOM     17  C   UNL     1       0.883   9.647  21.408  0.00  0.00    +0.000 A 
ATOM     18  C   UNL     1       1.239   8.755  20.393  0.00  0.00    +0.000 A 
ATOM     19  C   UNL     1       1.463   7.302  20.690  0.00  0.00    +0.000 C 
ATOM     20  C   UNL     1       1.376   9.236  19.088  0.00  0.00    +0.000 A 
ATOM     21  C   UNL     1       1.186  10.595  18.808  0.00  0.00    +0.000 A 
ENDBRANCH   4  15
BRANCH   3  22
ATOM     22  N   UNL     1      -1.866  13.169  19.407  0.00  0.00    +0.000 N 
ATOM     23  C   UNL     1      -2.445  13.137  20.716  0.00  0.00    +0.000 C 
ATOM     24  O   UNL     1      -1.845  13.543  21.698  0.00  0.00    +0.000 OA
ATOM     25  H   UNL     1      -2.440  12.950  18.594  0.00  0.00    +0.000 HD
BRANCH  23  26
ATOM     26  C   UNL     1      -3.815  12.710  20.695  0.00  0.00    +0.000 A 
ATOM     27  C   UNL     1      -4.703  12.731  21.790  0.00  0.00    +0.000 A 
ATOM     28  N   UNL     1      -5.936  12.346  21.471  0.00  0.00    +0.000 NA
ATOM     29  N   UNL     1      -5.882  12.106  20.144  0.00  0.00    +0.000 N 
ATOM     30  C   UNL     1      -6.941  11.871  19.278  0.00  0.00    +0.000 A 
ATOM     31  C   UNL     1      -6.711  11.657  17.977  0.00  0.00    +0.000 A 
ATOM     32  C   UNL     1      -5.271  11.598  17.591  0.00  0.00    +0.000 A 
ATOM     33  N   UNL     1      -4.255  11.900  18.353  0.00  0.00    +0.000 NA
ATOM     34  C   UNL     1      -4.571  12.210  19.652  0.00  0.00    +0.000 A 
ENDBRANCH  23  26
ENDBRANCH   3  22
TORSDOF 4
ENDMDL
MODEL 5
REMARK VINA RESULT:      -7.2      4.259      8.201
REMARK  Name = 
REMARK  6 active torsions:
REMARK  status: ('A' for Active; 'I' for Inactive)
REMARK    1  A    between atoms: C_1  and  C_2
REMARK    2  A    between atoms: C_7  and  C_8
REMARK    3  A    between atoms: C_10  and  N_11
REMARK    4  A    between atoms: C_12  and  C_14
REMARK    5  A    between atoms: N_23  and  C_24
REMARK    6  A    between atoms: C_27  and  C_28
REMARK                            x       y       z     vdW  Elec       q    Type
REMARK                         _______ _______ _______ _____ _____    ______ ____
ROOT
ATOM      1  C   UNL     1       1.520  14.387  18.784  0.00  0.00    +0.000 A 
ATOM      2  C   UNL     1       0.177  14.288  18.374  0.00  0.00    +0.000 A 
ATOM      3  C   UNL     1      -0.151  12.953  18.476  0.00  0.00    +0.000 A 
ATOM      4  N   UNL     1       1.014  12.295  18.884  0.00  0.00    +0.000 N 
ATOM      5  N   UNL     1       2.005  13.200  19.146  0.00  0.00    +0.000 NA
ENDROOT
BRANCH   1  12
ATOM      6  C   UNL     1       7.235  15.301  20.452  0.00  0.00    +0.000 C 
ATOM      7  C   UNL     1       6.545  15.302  19.112  0.00  0.00    +0.000 C 
ATOM      8  O   UNL     1       7.201  15.480  18.085  0.00  0.00    +0.000 OA
ATOM      9  N   UNL     1       5.178  15.072  19.095  0.00  0.00    +0.000 N 
ATOM     10  C   UNL     1       4.509  14.876  17.813  0.00  0.00    +0.000 C 
ATOM     11  C   UNL     1       3.310  15.809  17.681  0.00  0.00    +0.000 C 
ATOM     12  C   UNL     1       2.337  15.664  18.868  0.00  0.00    +0.000 C 
ATOM     13  C   UNL     1       3.119  15.848  20.184  0.00  0.00    +0.000 C 
ATOM     14  C   UNL     1       4.327  14.918  20.276  0.00  0.00    +0.000 C 
ENDBRANCH   1  12
BRANCH   4  15
ATOM     15  C   UNL     1       1.291  10.897  18.961  0.00  0.00    +0.000 A 
ATOM     16  C   UNL     1       1.935  10.210  17.927  0.00  0.00    +0.000 A 
ATOM     17  C   UNL     1       2.200   8.840  18.042  0.00  0.00    +0.000 A 
ATOM     18  C   UNL     1       1.837   8.136  19.193  0.00  0.00    +0.000 A 
ATOM     19  C   UNL     1       2.109   6.665  19.313  0.00  0.00    +0.000 C 
ATOM     20  C   UNL     1       1.221   8.825  20.241  0.00  0.00    +0.000 A 
ATOM     21  C   UNL     1       0.948  10.193  20.129  0.00  0.00    +0.000 A 
ENDBRANCH   4  15
BRANCH   3  22
ATOM     22  N   UNL     1      -1.426  12.455  18.215  0.00  0.00    +0.000 N 
ATOM     23  C   UNL     1      -2.408  12.435  19.257  0.00  0.00    +0.000 C 
ATOM     24  O   UNL     1      -2.200  12.938  20.349  0.00  0.00    +0.000 OA
ATOM     25  H   UNL     1      -1.678  12.148  17.276  0.00  0.00    +0.000 HD
BRANCH  23  26
ATOM     26  C   UNL     1      -3.660  11.891  18.815  0.00  0.00    +0.000 A 
ATOM     27  C   UNL     1      -3.883  11.217  17.597  0.00  0.00    +0.000 A 
ATOM     28  N   UNL     1      -5.124  10.754  17.476  0.00  0.00    +0.000 NA
ATOM     29  N   UNL     1      -5.724  11.084  18.639  0.00  0.00    +0.000 N 
ATOM     30  C   UNL     1      -6.960  10.664  19.108  0.00  0.00    +0.000 A 
ATOM     31  C   UNL     1      -7.406  11.084  20.298  0.00  0.00    +0.000 A 
ATOM     32  C   UNL     1      -6.533  12.080  20.984  0.00  0.00    +0.000 A 
ATOM     33  N   UNL     1      -5.329  12.430  20.621  0.00  0.00    +0.000 NA
ATOM     34  C   UNL     1      -4.892  11.881  19.441  0.00  0.00    +0.000 A 
ENDBRANCH  23  26
ENDBRANCH   3  22
TORSDOF 4
ENDMDL
MODEL 6
REMARK VINA RESULT:      -7.2      3.866      6.510
REMARK  Name = 
REMARK  6 active torsions:
REMARK  status: ('A' for Active; 'I' for Inactive)
REMARK    1  A    between atoms: C_1  and  C_2
REMARK    2  A    between atoms: C_7  and  C_8
REMARK    3  A    between atoms: C_10  and  N_11
REMARK    4  A    between atoms: C_12  and  C_14
REMARK    5  A    between atoms: N_23  and  C_24
REMARK    6  A    between atoms: C_27  and  C_28
REMARK                            x       y       z     vdW  Elec       q    Type
REMARK                         _______ _______ _______ _____ _____    ______ ____
ROOT
ATOM      1  C   UNL     1      -1.920  13.256  23.403  0.00  0.00    +0.000 A 
ATOM      2  C   UNL     1      -1.223  14.207  22.634  0.00  0.00    +0.000 A 
ATOM      3  C   UNL     1      -0.481  13.485  21.724  0.00  0.00    +0.000 A 
ATOM      4  N   UNL     1      -0.712  12.137  22.014  0.00  0.00    +0.000 N 
ATOM      5  N   UNL     1      -1.659  12.016  22.993  0.00  0.00    +0.000 NA
ENDROOT
BRANCH   1  12
ATOM      6  C   UNL     1      -7.351  15.859  23.329  0.00  0.00    +0.000 C 
ATOM      7  C   UNL     1      -6.901  14.431  23.499  0.00  0.00    +0.000 C 
ATOM      8  O   UNL     1      -7.736  13.535  23.620  0.00  0.00    +0.000 OA
ATOM      9  N   UNL     1      -5.536  14.184  23.489  0.00  0.00    +0.000 N 
ATOM     10  C   UNL     1      -5.067  12.802  23.460  0.00  0.00    +0.000 C 
ATOM     11  C   UNL     1      -4.058  12.550  24.575  0.00  0.00    +0.000 C 
ATOM     12  C   UNL     1      -2.891  13.557  24.530  0.00  0.00    +0.000 C 
ATOM     13  C   UNL     1      -3.464  14.990  24.529  0.00  0.00    +0.000 C 
ATOM     14  C   UNL     1      -4.488  15.204  23.416  0.00  0.00    +0.000 C 
ENDBRANCH   1  12
BRANCH   4  15
ATOM     15  C   UNL     1      -0.058  10.972  21.512  0.00  0.00    +0.000 A 
ATOM     16  C   UNL     1       0.236  10.812  20.153  0.00  0.00    +0.000 A 
ATOM     17  C   UNL     1       0.888   9.660  19.698  0.00  0.00    +0.000 A 
ATOM     18  C   UNL     1       1.267   8.654  20.590  0.00  0.00    +0.000 A 
ATOM     19  C   UNL     1       1.954   7.412  20.102  0.00  0.00    +0.000 C 
ATOM     20  C   UNL     1       1.004   8.823  21.952  0.00  0.00    +0.000 A 
ATOM     21  C   UNL     1       0.346   9.970  22.412  0.00  0.00    +0.000 A 
ENDBRANCH   4  15
BRANCH   3  22
ATOM     22  N   UNL     1       0.304  14.075  20.734  0.00  0.00    +0.000 N 
ATOM     23  C   UNL     1       1.689  14.338  20.989  0.00  0.00    +0.000 C 
ATOM     24  O   UNL     1       2.238  13.967  22.013  0.00  0.00    +0.000 OA
ATOM     25  H   UNL     1      -0.089  14.277  19.816  0.00  0.00    +0.000 HD
BRANCH  23  26
ATOM     26  C   UNL     1       2.343  14.946  19.866  0.00  0.00    +0.000 A 
ATOM     27  C   UNL     1       3.520  14.480  19.245  0.00  0.00    +0.000 A 
ATOM     28  N   UNL     1       3.867  15.196  18.179  0.00  0.00    +0.000 NA
ATOM     29  N   UNL     1       2.892  16.121  18.061  0.00  0.00    +0.000 N 
ATOM     30  C   UNL     1       2.666  16.990  17.003  0.00  0.00    +0.000 A 
ATOM     31  C   UNL     1       1.640  17.848  17.045  0.00  0.00    +0.000 A 
ATOM     32  C   UNL     1       0.867  17.848  18.321  0.00  0.00    +0.000 A 
ATOM     33  N   UNL     1       0.991  16.991  19.297  0.00  0.00    +0.000 NA
ATOM     34  C   UNL     1       1.998  16.072  19.144  0.00  0.00    +0.000 A 
ENDBRANCH  23  26
ENDBRANCH   3  22
TORSDOF 4
ENDMDL
MODEL 7
REMARK VINA RESULT:      -7.2      1.986      2.775
REMARK  Name = 
REMARK  6 active torsions:
REMARK  status: ('A' for Active; 'I' for Inactive)
REMARK    1  A    between atoms: C_1  and  C_2
REMARK    2  A    between atoms: C_7  and  C_8
REMARK    3  A    between atoms: C_10  and  N_11
REMARK    4  A    between atoms: C_12  and  C_14
REMARK    5  A    between atoms: N_23  and  C_24
REMARK    6  A    between atoms: C_27  and  C_28
REMARK                            x       y       z     vdW  Elec       q    Type
REMARK                         _______ _______ _______ _____ _____    ______ ____
ROOT
ATOM      1  C   UNL     1      -1.794  12.228  21.115  0.00  0.00    +0.000 A 
ATOM      2  C   UNL     1      -0.851  11.186  21.187  0.00  0.00    +0.000 A 
ATOM      3  C   UNL     1      -0.843  10.597  19.941  0.00  0.00    +0.000 A 
ATOM      4  N   UNL     1      -1.815  11.262  19.189  0.00  0.00    +0.000 N 
ATOM      5  N   UNL     1      -2.331  12.312  19.899  0.00  0.00    +0.000 NA
ENDROOT
BRANCH   1  12
ATOM      6  C   UNL     1       0.745  17.420  22.809  0.00  0.00    +0.000 C 
ATOM      7  C   UNL     1      -0.532  17.094  22.077  0.00  0.00    +0.000 C 
ATOM      8  O   UNL     1      -1.255  18.003  21.670  0.00  0.00    +0.000 OA
ATOM      9  N   UNL     1      -0.827  15.754  21.871  0.00  0.00    +0.000 N 
ATOM     10  C   UNL     1      -1.949  15.402  21.007  0.00  0.00    +0.000 C 
ATOM     11  C   UNL     1      -2.894  14.436  21.714  0.00  0.00    +0.000 C 
ATOM     12  C   UNL     1      -2.152  13.188  22.234  0.00  0.00    +0.000 C 
ATOM     13  C   UNL     1      -0.964  13.639  23.108  0.00  0.00    +0.000 C 
ATOM     14  C   UNL     1      -0.050  14.624  22.382  0.00  0.00    +0.000 C 
ENDBRANCH   1  12
BRANCH   4  15
ATOM     15  C   UNL     1      -2.353  10.941  17.907  0.00  0.00    +0.000 A 
ATOM     16  C   UNL     1      -1.767   9.980  17.075  0.00  0.00    +0.000 A 
ATOM     17  C   UNL     1      -2.329   9.683  15.827  0.00  0.00    +0.000 A 
ATOM     18  C   UNL     1      -3.488  10.331  15.393  0.00  0.00    +0.000 A 
ATOM     19  C   UNL     1      -4.083  10.023  14.050  0.00  0.00    +0.000 C 
ATOM     20  C   UNL     1      -4.094  11.269  16.233  0.00  0.00    +0.000 A 
ATOM     21  C   UNL     1      -3.533  11.574  17.479  0.00  0.00    +0.000 A 
ENDBRANCH   4  15
BRANCH   3  22
ATOM     22  N   UNL     1       0.016   9.555  19.591  0.00  0.00    +0.000 N 
ATOM     23  C   UNL     1       1.254   9.846  18.933  0.00  0.00    +0.000 C 
ATOM     24  O   UNL     1       1.638  10.991  18.757  0.00  0.00    +0.000 OA
ATOM     25  H   UNL     1      -0.211   8.594  19.841  0.00  0.00    +0.000 HD
BRANCH  23  26
ATOM     26  C   UNL     1       2.010   8.661  18.647  0.00  0.00    +0.000 A 
ATOM     27  C   UNL     1       2.922   8.501  17.583  0.00  0.00    +0.000 A 
ATOM     28  N   UNL     1       3.538   7.321  17.596  0.00  0.00    +0.000 NA
ATOM     29  N   UNL     1       3.064   6.705  18.700  0.00  0.00    +0.000 N 
ATOM     30  C   UNL     1       3.526   5.534  19.285  0.00  0.00    +0.000 A 
ATOM     31  C   UNL     1       2.942   5.060  20.392  0.00  0.00    +0.000 A 
ATOM     32  C   UNL     1       1.742   5.820  20.849  0.00  0.00    +0.000 A 
ATOM     33  N   UNL     1       1.333   6.968  20.382  0.00  0.00    +0.000 NA
ATOM     34  C   UNL     1       2.041   7.449  19.309  0.00  0.00    +0.000 A 
ENDBRANCH  23  26
ENDBRANCH   3  22
TORSDOF 4
ENDMDL
MODEL 8
REMARK VINA RESULT:      -7.2      3.959      7.709
REMARK  Name = 
REMARK  6 active torsions:
REMARK  status: ('A' for Active; 'I' for Inactive)
REMARK    1  A    between atoms: C_1  and  C_2
REMARK    2  A    between atoms: C_7  and  C_8
REMARK    3  A    between atoms: C_10  and  N_11
REMARK    4  A    between atoms: C_12  and  C_14
REMARK    5  A    between atoms: N_23  and  C_24
REMARK    6  A    between atoms: C_27  and  C_28
REMARK                            x       y       z     vdW  Elec       q    Type
REMARK                         _______ _______ _______ _____ _____    ______ ____
ROOT
ATOM      1  C   UNL     1       1.276  13.820  21.057  0.00  0.00    +0.000 A 
ATOM      2  C   UNL     1      -0.073  13.813  20.656  0.00  0.00    +0.000 A 
ATOM      3  C   UNL     1      -0.318  12.543  20.180  0.00  0.00    +0.000 A 
ATOM      4  N   UNL     1       0.897  11.856  20.255  0.00  0.00    +0.000 N 
ATOM      5  N   UNL     1       1.844  12.629  20.870  0.00  0.00    +0.000 NA
ENDROOT
BRANCH   1  12
ATOM      6  C   UNL     1       6.720  16.098  19.849  0.00  0.00    +0.000 C 
ATOM      7  C   UNL     1       5.321  16.569  19.545  0.00  0.00    +0.000 C 
ATOM      8  O   UNL     1       5.149  17.599  18.893  0.00  0.00    +0.000 OA
ATOM      9  N   UNL     1       4.269  15.791  20.005  0.00  0.00    +0.000 N 
ATOM     10  C   UNL     1       2.912  16.108  19.571  0.00  0.00    +0.000 C 
ATOM     11  C   UNL     1       1.979  16.243  20.770  0.00  0.00    +0.000 C 
ATOM     12  C   UNL     1       2.020  14.992  21.671  0.00  0.00    +0.000 C 
ATOM     13  C   UNL     1       3.484  14.700  22.059  0.00  0.00    +0.000 C 
ATOM     14  C   UNL     1       4.397  14.595  20.839  0.00  0.00    +0.000 C 
ENDBRANCH   1  12
BRANCH   4  15
ATOM     15  C   UNL     1       1.258  10.582  19.723  0.00  0.00    +0.000 A 
ATOM     16  C   UNL     1       1.687  10.424  18.400  0.00  0.00    +0.000 A 
ATOM     17  C   UNL     1       2.043   9.159  17.916  0.00  0.00    +0.000 A 
ATOM     18  C   UNL     1       1.989   8.035  18.744  0.00  0.00    +0.000 A 
ATOM     19  C   UNL     1       2.358   6.677  18.223  0.00  0.00    +0.000 C 
ATOM     20  C   UNL     1       1.591   8.193  20.074  0.00  0.00    +0.000 A 
ATOM     21  C   UNL     1       1.227   9.455  20.562  0.00  0.00    +0.000 A 
ENDBRANCH   4  15
BRANCH   3  22
ATOM     22  N   UNL     1      -1.572  12.116  19.743  0.00  0.00    +0.000 N 
ATOM     23  C   UNL     1      -1.905  12.196  18.352  0.00  0.00    +0.000 C 
ATOM     24  O   UNL     1      -1.087  12.531  17.511  0.00  0.00    +0.000 OA
ATOM     25  H   UNL     1      -2.234  11.705  20.399  0.00  0.00    +0.000 HD
BRANCH  23  26
ATOM     26  C   UNL     1      -3.230  11.717  18.082  0.00  0.00    +0.000 A 
ATOM     27  C   UNL     1      -3.626  10.987  16.942  0.00  0.00    +0.000 A 
ATOM     28  N   UNL     1      -4.900  10.606  16.983  0.00  0.00    +0.000 NA
ATOM     29  N   UNL     1      -5.348  11.049  18.176  0.00  0.00    +0.000 N 
ATOM     30  C   UNL     1      -6.550  10.748  18.800  0.00  0.00    +0.000 A 
ATOM     31  C   UNL     1      -6.837  11.271  19.998  0.00  0.00    +0.000 A 
ATOM     32  C   UNL     1      -5.831  12.242  20.520  0.00  0.00    +0.000 A 
ATOM     33  N   UNL     1      -4.654  12.483  20.010  0.00  0.00    +0.000 NA
ATOM     34  C   UNL     1      -4.384  11.833  18.832  0.00  0.00    +0.000 A 
ENDBRANCH  23  26
ENDBRANCH   3  22
TORSDOF 4
ENDMDL
MODEL 9
REMARK VINA RESULT:      -7.1      4.093      8.218
REMARK  Name = 
REMARK  6 active torsions:
REMARK  status: ('A' for Active; 'I' for Inactive)
REMARK    1  A    between atoms: C_1  and  C_2
REMARK    2  A    between atoms: C_7  and  C_8
REMARK    3  A    between atoms: C_10  and  N_11
REMARK    4  A    between atoms: C_12  and  C_14
REMARK    5  A    between atoms: N_23  and  C_24
REMARK    6  A    between atoms: C_27  and  C_28
REMARK                            x       y       z     vdW  Elec       q    Type
REMARK                         _______ _______ _______ _____ _____    ______ ____
ROOT
ATOM      1  C   UNL     1       1.160  14.691  19.093  0.00  0.00    +0.000 A 
ATOM      2  C   UNL     1      -0.239  14.654  18.946  0.00  0.00    +0.000 A 
ATOM      3  C   UNL     1      -0.626  13.388  19.331  0.00  0.00    +0.000 A 
ATOM      4  N   UNL     1       0.550  12.696  19.636  0.00  0.00    +0.000 N 
ATOM      5  N   UNL     1       1.628  13.535  19.562  0.00  0.00    +0.000 NA
ENDROOT
BRANCH   1  12
ATOM      6  C   UNL     1       6.949  15.663  20.443  0.00  0.00    +0.000 C 
ATOM      7  C   UNL     1       6.238  15.329  19.156  0.00  0.00    +0.000 C 
ATOM      8  O   UNL     1       6.886  15.167  18.122  0.00  0.00    +0.000 OA
ATOM      9  N   UNL     1       4.858  15.194  19.203  0.00  0.00    +0.000 N 
ATOM     10  C   UNL     1       4.156  14.689  18.028  0.00  0.00    +0.000 C 
ATOM     11  C   UNL     1       3.017  15.623  17.635  0.00  0.00    +0.000 C 
ATOM     12  C   UNL     1       2.057  15.882  18.813  0.00  0.00    +0.000 C 
ATOM     13  C   UNL     1       2.872  16.380  20.025  0.00  0.00    +0.000 C 
ATOM     14  C   UNL     1       4.020  15.436  20.379  0.00  0.00    +0.000 C 
ENDBRANCH   1  12
BRANCH   4  15
ATOM     15  C   UNL     1       0.748  11.308  19.902  0.00  0.00    +0.000 A 
ATOM     16  C   UNL     1       1.184  10.418  18.914  0.00  0.00    +0.000 A 
ATOM     17  C   UNL     1       1.377   9.064  19.214  0.00  0.00    +0.000 A 
ATOM     18  C   UNL     1       1.149   8.578  20.504  0.00  0.00    +0.000 A 
ATOM     19  C   UNL     1       1.343   7.125  20.824  0.00  0.00    +0.000 C 
ATOM     20  C   UNL     1       0.743   9.469  21.501  0.00  0.00    +0.000 A 
ATOM     21  C   UNL     1       0.542  10.823  21.205  0.00  0.00    +0.000 A 
ENDBRANCH   4  15
BRANCH   3  22
ATOM     22  N   UNL     1      -1.957  12.976  19.386  0.00  0.00    +0.000 N 
ATOM     23  C   UNL     1      -2.491  12.156  18.340  0.00  0.00    +0.000 C 
ATOM     24  O   UNL     1      -1.790  11.714  17.445  0.00  0.00    +0.000 OA
ATOM     25  H   UNL     1      -2.538  13.216  20.188  0.00  0.00    +0.000 HD
BRANCH  23  26
ATOM     26  C   UNL     1      -3.871  11.828  18.557  0.00  0.00    +0.000 A 
ATOM     27  C   UNL     1      -4.646  10.959  17.762  0.00  0.00    +0.000 A 
ATOM     28  N   UNL     1      -5.877  10.778  18.234  0.00  0.00    +0.000 NA
ATOM     29  N   UNL     1      -5.911  11.499  19.375  0.00  0.00    +0.000 N 
ATOM     30  C   UNL     1      -6.894  11.496  20.355  0.00  0.00    +0.000 A 
ATOM     31  C   UNL     1      -6.767  12.273  21.437  0.00  0.00    +0.000 A 
ATOM     32  C   UNL     1      -5.577  13.172  21.433  0.00  0.00    +0.000 A 
ATOM     33  N   UNL     1      -4.589  13.141  20.580  0.00  0.00    +0.000 NA
ATOM     34  C   UNL     1      -4.736  12.248  19.549  0.00  0.00    +0.000 A 
ENDBRANCH  23  26
ENDBRANCH   3  22
TORSDOF 4
ENDMDL
