MODEL 1
REMARK VINA RESULT:      -8.6      0.000      0.000
REMARK  Name = 
REMARK  9 active torsions:
REMARK  status: ('A' for Active; 'I' for Inactive)
REMARK    1  A    between atoms: C_1  and  O_2
REMARK    2  A    between atoms: O_2  and  C_3
REMARK    3  A    between atoms: C_10  and  C_11
REMARK    4  A    between atoms: C_11  and  O_12
REMARK    5  A    between atoms: C_11  and  C_13
REMARK    6  A    between atoms: C_13  and  N_14
REMARK    7  A    between atoms: C_17  and  N_18
REMARK    8  A    between atoms: N_18  and  C_19
REMARK    9  A    between atoms: C_19  and  C_20
REMARK                            x       y       z     vdW  Elec       q    Type
REMARK                         _______ _______ _______ _____ _____    ______ ____
ROOT
ATOM      1  N   UNL     1       1.652   5.529  20.002  0.00  0.00    +0.000 NA
ATOM      2  C   UNL     1       1.783   4.824  18.715  0.00  0.00    +0.000 C 
ATOM      3  C   UNL     1       1.178   3.422  18.738  0.00  0.00    +0.000 C 
ATOM      4  C   UNL     1       1.750   2.560  19.865  0.00  0.00    +0.000 C 
ATOM      5  C   UNL     1       1.575   3.344  21.174  0.00  0.00    +0.000 C 
ATOM      6  C   UNL     1       2.217   4.729  21.103  0.00  0.00    +0.000 C 
ENDROOT
BRANCH   4   7
ATOM      7  N   UNL     1       3.141   2.195  19.542  0.00  0.00    +0.000 NA
ATOM      8  H   UNL     1       3.345   1.251  19.870  0.00  0.00    +0.000 HD
BRANCH   7   9
ATOM      9  C   UNL     1       3.411   2.238  18.099  0.00  0.00    +0.000 C 
BRANCH   9  10
ATOM     10  C   UNL     1       4.392   3.332  17.727  0.00  0.00    +0.000 A 
ATOM     11  C   UNL     1       5.239   3.877  18.692  0.00  0.00    +0.000 A 
ATOM     12  C   UNL     1       6.106   4.912  18.332  0.00  0.00    +0.000 A 
ATOM     13  C   UNL     1       6.971   5.509  19.261  0.00  0.00    +0.000 A 
ATOM     14  C   UNL     1       7.812   6.556  18.878  0.00  0.00    +0.000 A 
ATOM     15  C   UNL     1       7.799   7.015  17.562  0.00  0.00    +0.000 A 
ATOM     16  C   UNL     1       6.955   6.428  16.622  0.00  0.00    +0.000 A 
ATOM     17  C   UNL     1       6.101   5.377  17.003  0.00  0.00    +0.000 A 
ATOM     18  C   UNL     1       5.231   4.754  16.109  0.00  0.00    +0.000 A 
ATOM     19  N   UNL     1       4.388   3.748  16.436  0.00  0.00    +0.000 NA
ENDBRANCH   9  10
ENDBRANCH   7   9
ENDBRANCH   4   7
BRANCH   1  20
ATOM     20  C   UNL     1       2.311   6.863  19.969  0.00  0.00    +0.000 C 
BRANCH  20  21
ATOM     21  C   UNL     1       1.421   8.056  19.494  0.00  0.00    +0.000 C 
BRANCH  21  29
ATOM     22  C   UNL     1      -1.293  11.206  18.939  0.00  0.00    +0.000 A 
ATOM     23  C   UNL     1      -1.783  11.986  19.965  0.00  0.00    +0.000 A 
ATOM     24  C   UNL     1      -1.326  11.726  21.256  0.00  0.00    +0.000 A 
ATOM     25  C   UNL     1      -0.406  10.717  21.501  0.00  0.00    +0.000 A 
ATOM     26  N   UNL     1      -0.003  10.477  22.764  0.00  0.00    +0.000 NA
ATOM     27  C   UNL     1       0.864   9.463  22.958  0.00  0.00    +0.000 A 
ATOM     28  C   UNL     1       1.366   8.682  21.937  0.00  0.00    +0.000 A 
ATOM     29  C   UNL     1       0.951   8.949  20.626  0.00  0.00    +0.000 A 
ATOM     30  C   UNL     1       0.040   9.982  20.384  0.00  0.00    +0.000 A 
ATOM     31  N   UNL     1      -0.400  10.217  19.127  0.00  0.00    +0.000 NA
BRANCH  22  33
ATOM     32  C   UNL     1      -2.131  10.282  16.959  0.00  0.00    +0.000 C 
ATOM     33  O   UNL     1      -1.763  11.463  17.670  0.00  0.00    +0.000 OA
ENDBRANCH  22  33
ENDBRANCH  21  29
BRANCH  21  34
ATOM     34  O   UNL     1       2.097   8.921  18.576  0.00  0.00    +0.000 OA
ATOM     35  H   UNL     1       2.510   8.327  17.921  0.00  0.00    +0.000 HD
ENDBRANCH  21  34
ENDBRANCH  20  21
ENDBRANCH   1  20
TORSDOF 8
ENDMDL
MODEL 2
REMARK VINA RESULT:      -8.4      1.638      2.396
REMARK  Name = 
REMARK  9 active torsions:
REMARK  status: ('A' for Active; 'I' for Inactive)
REMARK    1  A    between atoms: C_1  and  O_2
REMARK    2  A    between atoms: O_2  and  C_3
REMARK    3  A    between atoms: C_10  and  C_11
REMARK    4  A    between atoms: C_11  and  O_12
REMARK    5  A    between atoms: C_11  and  C_13
REMARK    6  A    between atoms: C_13  and  N_14
REMARK    7  A    between atoms: C_17  and  N_18
REMARK    8  A    between atoms: N_18  and  C_19
REMARK    9  A    between atoms: C_19  and  C_20
REMARK                            x       y       z     vdW  Elec       q    Type
REMARK                         _______ _______ _______ _____ _____    ______ ____
ROOT
ATOM      1  N   UNL     1       1.570   5.303  20.511  0.00  0.00    +0.000 NA
ATOM      2  C   UNL     1       1.697   4.832  19.121  0.00  0.00    +0.000 C 
ATOM      3  C   UNL     1       1.111   3.437  18.908  0.00  0.00    +0.000 C 
ATOM      4  C   UNL     1       1.707   2.404  19.865  0.00  0.00    +0.000 C 
ATOM      5  C   UNL     1       1.535   2.948  21.291  0.00  0.00    +0.000 C 
ATOM      6  C   UNL     1       2.158   4.335  21.454  0.00  0.00    +0.000 C 
ENDROOT
BRANCH   4   7
ATOM      7  N   UNL     1       3.099   2.121  19.472  0.00  0.00    +0.000 NA
ATOM      8  H   UNL     1       3.357   1.171  19.739  0.00  0.00    +0.000 HD
BRANCH   7   9
ATOM      9  C   UNL     1       3.312   2.254  18.026  0.00  0.00    +0.000 C 
BRANCH   9  10
ATOM     10  C   UNL     1       4.284   3.366  17.685  0.00  0.00    +0.000 A 
ATOM     11  C   UNL     1       5.184   3.833  18.642  0.00  0.00    +0.000 A 
ATOM     12  C   UNL     1       6.043   4.886  18.315  0.00  0.00    +0.000 A 
ATOM     13  C   UNL     1       6.960   5.407  19.240  0.00  0.00    +0.000 A 
ATOM     14  C   UNL     1       7.792   6.473  18.892  0.00  0.00    +0.000 A 
ATOM     15  C   UNL     1       7.719   7.027  17.615  0.00  0.00    +0.000 A 
ATOM     16  C   UNL     1       6.823   6.515  16.679  0.00  0.00    +0.000 A 
ATOM     17  C   UNL     1       5.977   5.446  17.025  0.00  0.00    +0.000 A 
ATOM     18  C   UNL     1       5.058   4.896  16.134  0.00  0.00    +0.000 A 
ATOM     19  N   UNL     1       4.221   3.875  16.429  0.00  0.00    +0.000 NA
ENDBRANCH   9  10
ENDBRANCH   7   9
ENDBRANCH   4   7
BRANCH   1  20
ATOM     20  C   UNL     1       2.210   6.633  20.703  0.00  0.00    +0.000 C 
BRANCH  20  21
ATOM     21  C   UNL     1       1.252   7.806  21.089  0.00  0.00    +0.000 C 
BRANCH  21  29
ATOM     22  C   UNL     1      -0.353  11.594  21.906  0.00  0.00    +0.000 A 
ATOM     23  C   UNL     1      -0.320  12.649  21.019  0.00  0.00    +0.000 A 
ATOM     24  C   UNL     1       0.258  12.430  19.769  0.00  0.00    +0.000 A 
ATOM     25  C   UNL     1       0.780  11.192  19.427  0.00  0.00    +0.000 A 
ATOM     26  N   UNL     1       1.353  11.022  18.219  0.00  0.00    +0.000 NA
ATOM     27  C   UNL     1       1.880   9.812  17.946  0.00  0.00    +0.000 A 
ATOM     28  C   UNL     1       1.844   8.747  18.824  0.00  0.00    +0.000 A 
ATOM     29  C   UNL     1       1.234   8.930  20.072  0.00  0.00    +0.000 A 
ATOM     30  C   UNL     1       0.690  10.176  20.400  0.00  0.00    +0.000 A 
ATOM     31  N   UNL     1       0.140  10.375  21.620  0.00  0.00    +0.000 NA
BRANCH  22  33
ATOM     32  C   UNL     1      -1.415  13.154  23.289  0.00  0.00    +0.000 C 
ATOM     33  O   UNL     1      -0.914  11.826  23.143  0.00  0.00    +0.000 OA
ENDBRANCH  22  33
ENDBRANCH  21  29
BRANCH  21  34
ATOM     34  O   UNL     1      -0.109   7.388  21.225  0.00  0.00    +0.000 OA
ATOM     35  H   UNL     1      -0.516   8.035  21.832  0.00  0.00    +0.000 HD
ENDBRANCH  21  34
ENDBRANCH  20  21
ENDBRANCH   1  20
TORSDOF 8
ENDMDL
MODEL 3
REMARK VINA RESULT:      -8.3      1.582      2.394
REMARK  Name = 
REMARK  9 active torsions:
REMARK  status: ('A' for Active; 'I' for Inactive)
REMARK    1  A    between atoms: C_1  and  O_2
REMARK    2  A    between atoms: O_2  and  C_3
REMARK    3  A    between atoms: C_10  and  C_11
REMARK    4  A    between atoms: C_11  and  O_12
REMARK    5  A    between atoms: C_11  and  C_13
REMARK    6  A    between atoms: C_13  and  N_14
REMARK    7  A    between atoms: C_17  and  N_18
REMARK    8  A    between atoms: N_18  and  C_19
REMARK    9  A    between atoms: C_19  and  C_20
REMARK                            x       y       z     vdW  Elec       q    Type
REMARK                         _______ _______ _______ _____ _____    ______ ____
ROOT
ATOM      1  N   UNL     1       1.730   6.950  19.008  0.00  0.00    +0.000 NA
ATOM      2  C   UNL     1       2.298   5.912  18.130  0.00  0.00    +0.000 C 
ATOM      3  C   UNL     1       1.806   4.507  18.473  0.00  0.00    +0.000 C 
ATOM      4  C   UNL     1       2.055   4.144  19.938  0.00  0.00    +0.000 C 
ATOM      5  C   UNL     1       1.433   5.256  20.796  0.00  0.00    +0.000 C 
ATOM      6  C   UNL     1       1.977   6.637  20.427  0.00  0.00    +0.000 C 
ENDROOT
BRANCH   4   7
ATOM      7  N   UNL     1       3.498   3.931  20.149  0.00  0.00    +0.000 NA
ATOM      8  H   UNL     1       3.674   3.616  21.104  0.00  0.00    +0.000 HD
BRANCH   7   9
ATOM      9  C   UNL     1       4.056   2.925  19.236  0.00  0.00    +0.000 C 
BRANCH   9  10
ATOM     10  C   UNL     1       4.966   3.537  18.190  0.00  0.00    +0.000 A 
ATOM     11  C   UNL     1       4.697   3.362  16.833  0.00  0.00    +0.000 A 
ATOM     12  C   UNL     1       5.574   3.903  15.888  0.00  0.00    +0.000 A 
ATOM     13  C   UNL     1       5.363   3.748  14.509  0.00  0.00    +0.000 A 
ATOM     14  C   UNL     1       6.267   4.282  13.589  0.00  0.00    +0.000 A 
ATOM     15  C   UNL     1       7.388   4.979  14.036  0.00  0.00    +0.000 A 
ATOM     16  C   UNL     1       7.608   5.152  15.400  0.00  0.00    +0.000 A 
ATOM     17  C   UNL     1       6.706   4.612  16.334  0.00  0.00    +0.000 A 
ATOM     18  C   UNL     1       6.876   4.748  17.710  0.00  0.00    +0.000 A 
ATOM     19  N   UNL     1       6.037   4.237  18.640  0.00  0.00    +0.000 NA
ENDBRANCH   9  10
ENDBRANCH   7   9
ENDBRANCH   4   7
BRANCH   1  20
ATOM     20  C   UNL     1       2.280   8.297  18.695  0.00  0.00    +0.000 C 
BRANCH  20  21
ATOM     21  C   UNL     1       1.266   9.335  18.116  0.00  0.00    +0.000 C 
BRANCH  21  29
ATOM     22  C   UNL     1      -2.414  11.220  17.408  0.00  0.00    +0.000 A 
ATOM     23  C   UNL     1      -3.141  11.872  18.381  0.00  0.00    +0.000 A 
ATOM     24  C   UNL     1      -2.605  11.928  19.667  0.00  0.00    +0.000 A 
ATOM     25  C   UNL     1      -1.379  11.349  19.958  0.00  0.00    +0.000 A 
ATOM     26  N   UNL     1      -0.901  11.401  21.217  0.00  0.00    +0.000 NA
ATOM     27  C   UNL     1       0.277  10.793  21.461  0.00  0.00    +0.000 A 
ATOM     28  C   UNL     1       1.017  10.145  20.491  0.00  0.00    +0.000 A 
ATOM     29  C   UNL     1       0.518  10.109  19.183  0.00  0.00    +0.000 A 
ATOM     30  C   UNL     1      -0.710  10.713  18.893  0.00  0.00    +0.000 A 
ATOM     31  N   UNL     1      -1.220  10.644  17.642  0.00  0.00    +0.000 NA
BRANCH  22  33
ATOM     32  C   UNL     1      -2.744   9.903  15.502  0.00  0.00    +0.000 C 
ATOM     33  O   UNL     1      -2.960  11.159  16.145  0.00  0.00    +0.000 OA
ENDBRANCH  22  33
ENDBRANCH  21  29
BRANCH  21  34
ATOM     34  O   UNL     1       1.892  10.322  17.291  0.00  0.00    +0.000 OA
ATOM     35  H   UNL     1       2.628  10.674  17.828  0.00  0.00    +0.000 HD
ENDBRANCH  21  34
ENDBRANCH  20  21
ENDBRANCH   1  20
TORSDOF 8
ENDMDL
MODEL 4
REMARK VINA RESULT:      -8.1      3.752      9.797
REMARK  Name = 
REMARK  9 active torsions:
REMARK  status: ('A' for Active; 'I' for Inactive)
REMARK    1  A    between atoms: C_1  and  O_2
REMARK    2  A    between atoms: O_2  and  C_3
REMARK    3  A    between atoms: C_10  and  C_11
REMARK    4  A    between atoms: C_11  and  O_12
REMARK    5  A    between atoms: C_11  and  C_13
REMARK    6  A    between atoms: C_13  and  N_14
REMARK    7  A    between atoms: C_17  and  N_18
REMARK    8  A    between atoms: N_18  and  C_19
REMARK    9  A    between atoms: C_19  and  C_20
REMARK                            x       y       z     vdW  Elec       q    Type
REMARK                         _______ _______ _______ _____ _____    ______ ____
ROOT
ATOM      1  N   UNL     1       1.166   9.673  18.868  0.00  0.00    +0.000 NA
ATOM      2  C   UNL     1       0.866   9.652  20.310  0.00  0.00    +0.000 C 
ATOM      3  C   UNL     1      -0.311  10.550  20.687  0.00  0.00    +0.000 C 
ATOM      4  C   UNL     1      -0.118  11.992  20.215  0.00  0.00    +0.000 C 
ATOM      5  C   UNL     1       0.181  11.944  18.709  0.00  0.00    +0.000 C 
ATOM      6  C   UNL     1       1.380  11.051  18.390  0.00  0.00    +0.000 C 
ENDROOT
BRANCH   4   7
ATOM      7  N   UNL     1       0.924  12.638  21.033  0.00  0.00    +0.000 NA
ATOM      8  H   UNL     1       1.803  12.682  20.518  0.00  0.00    +0.000 HD
BRANCH   7   9
ATOM      9  C   UNL     1       0.563  14.008  21.421  0.00  0.00    +0.000 C 
BRANCH   9  10
ATOM     10  C   UNL     1       0.835  15.011  20.318  0.00  0.00    +0.000 A 
ATOM     11  C   UNL     1      -0.191  15.822  19.835  0.00  0.00    +0.000 A 
ATOM     12  C   UNL     1       0.076  16.711  18.790  0.00  0.00    +0.000 A 
ATOM     13  C   UNL     1      -0.919  17.541  18.252  0.00  0.00    +0.000 A 
ATOM     14  C   UNL     1      -0.627  18.405  17.196  0.00  0.00    +0.000 A 
ATOM     15  C   UNL     1       0.661  18.451  16.667  0.00  0.00    +0.000 A 
ATOM     16  C   UNL     1       1.665  17.643  17.194  0.00  0.00    +0.000 A 
ATOM     17  C   UNL     1       1.377  16.765  18.255  0.00  0.00    +0.000 A 
ATOM     18  C   UNL     1       2.338  15.929  18.821  0.00  0.00    +0.000 A 
ATOM     19  N   UNL     1       2.101  15.064  19.834  0.00  0.00    +0.000 NA
ENDBRANCH   9  10
ENDBRANCH   7   9
ENDBRANCH   4   7
BRANCH   1  20
ATOM     20  C   UNL     1       2.359   8.844  18.541  0.00  0.00    +0.000 C 
BRANCH  20  21
ATOM     21  C   UNL     1       2.288   7.342  18.964  0.00  0.00    +0.000 C 
BRANCH  21  29
ATOM     22  C   UNL     1       1.933   3.163  18.956  0.00  0.00    +0.000 A 
ATOM     23  C   UNL     1       2.699   2.329  18.169  0.00  0.00    +0.000 A 
ATOM     24  C   UNL     1       3.665   2.914  17.349  0.00  0.00    +0.000 A 
ATOM     25  C   UNL     1       3.851   4.287  17.329  0.00  0.00    +0.000 A 
ATOM     26  N   UNL     1       4.777   4.821  16.508  0.00  0.00    +0.000 NA
ATOM     27  C   UNL     1       4.897   6.164  16.495  0.00  0.00    +0.000 A 
ATOM     28  C   UNL     1       4.141   7.006  17.286  0.00  0.00    +0.000 A 
ATOM     29  C   UNL     1       3.190   6.440  18.146  0.00  0.00    +0.000 A 
ATOM     30  C   UNL     1       3.023   5.052  18.176  0.00  0.00    +0.000 A 
ATOM     31  N   UNL     1       2.077   4.501  18.970  0.00  0.00    +0.000 NA
BRANCH  22  33
ATOM     32  C   UNL     1       1.194   2.785  21.144  0.00  0.00    +0.000 C 
ATOM     33  O   UNL     1       0.973   2.575  19.750  0.00  0.00    +0.000 OA
ENDBRANCH  22  33
ENDBRANCH  21  29
BRANCH  21  34
ATOM     34  O   UNL     1       2.667   7.132  20.328  0.00  0.00    +0.000 OA
ATOM     35  H   UNL     1       3.630   6.971  20.303  0.00  0.00    +0.000 HD
ENDBRANCH  21  34
ENDBRANCH  20  21
ENDBRANCH   1  20
TORSDOF 8
ENDMDL
MODEL 5
REMARK VINA RESULT:      -8.1      1.112      1.354
REMARK  Name = 
REMARK  9 active torsions:
REMARK  status: ('A' for Active; 'I' for Inactive)
REMARK    1  A    between atoms: C_1  and  O_2
REMARK    2  A    between atoms: O_2  and  C_3
REMARK    3  A    between atoms: C_10  and  C_11
REMARK    4  A    between atoms: C_11  and  O_12
REMARK    5  A    between atoms: C_11  and  C_13
REMARK    6  A    between atoms: C_13  and  N_14
REMARK    7  A    between atoms: C_17  and  N_18
REMARK    8  A    between atoms: N_18  and  C_19
REMARK    9  A    between atoms: C_19  and  C_20
REMARK                            x       y       z     vdW  Elec       q    Type
REMARK                         _______ _______ _______ _____ _____    ______ ____
ROOT
ATOM      1  N   UNL     1       1.623   5.994  19.506  0.00  0.00    +0.000 NA
ATOM      2  C   UNL     1       1.938   5.228  18.287  0.00  0.00    +0.000 C 
ATOM      3  C   UNL     1       1.381   3.806  18.315  0.00  0.00    +0.000 C 
ATOM      4  C   UNL     1       1.835   3.028  19.551  0.00  0.00    +0.000 C 
ATOM      5  C   UNL     1       1.471   3.871  20.782  0.00  0.00    +0.000 C 
ATOM      6  C   UNL     1       2.072   5.276  20.712  0.00  0.00    +0.000 C 
ENDROOT
BRANCH   4   7
ATOM      7  N   UNL     1       3.267   2.702  19.423  0.00  0.00    +0.000 NA
ATOM      8  H   UNL     1       3.461   1.791  19.840  0.00  0.00    +0.000 HD
BRANCH   7   9
ATOM      9  C   UNL     1       3.709   2.658  18.024  0.00  0.00    +0.000 C 
BRANCH   9  10
ATOM     10  C   UNL     1       4.660   3.789  17.683  0.00  0.00    +0.000 A 
ATOM     11  C   UNL     1       5.573   4.252  18.631  0.00  0.00    +0.000 A 
ATOM     12  C   UNL     1       6.411   5.321  18.305  0.00  0.00    +0.000 A 
ATOM     13  C   UNL     1       7.339   5.839  19.222  0.00  0.00    +0.000 A 
ATOM     14  C   UNL     1       8.149   6.922  18.875  0.00  0.00    +0.000 A 
ATOM     15  C   UNL     1       8.045   7.496  17.610  0.00  0.00    +0.000 A 
ATOM     16  C   UNL     1       7.137   6.988  16.683  0.00  0.00    +0.000 A 
ATOM     17  C   UNL     1       6.312   5.902  17.026  0.00  0.00    +0.000 A 
ATOM     18  C   UNL     1       5.383   5.355  16.144  0.00  0.00    +0.000 A 
ATOM     19  N   UNL     1       4.565   4.318  16.438  0.00  0.00    +0.000 NA
ENDBRANCH   9  10
ENDBRANCH   7   9
ENDBRANCH   4   7
BRANCH   1  20
ATOM     20  C   UNL     1       2.237   7.350  19.479  0.00  0.00    +0.000 C 
BRANCH  20  21
ATOM     21  C   UNL     1       1.553   8.393  18.538  0.00  0.00    +0.000 C 
BRANCH  21  29
ATOM     22  C   UNL     1      -1.977  10.203  17.176  0.00  0.00    +0.000 A 
ATOM     23  C   UNL     1      -2.656  11.181  17.872  0.00  0.00    +0.000 A 
ATOM     24  C   UNL     1      -2.119  11.608  19.086  0.00  0.00    +0.000 A 
ATOM     25  C   UNL     1      -0.939  11.069  19.576  0.00  0.00    +0.000 A 
ATOM     26  N   UNL     1      -0.459  11.488  20.764  0.00  0.00    +0.000 NA
ATOM     27  C   UNL     1       0.671  10.910  21.218  0.00  0.00    +0.000 A 
ATOM     28  C   UNL     1       1.362   9.936  20.524  0.00  0.00    +0.000 A 
ATOM     29  C   UNL     1       0.863   9.518  19.284  0.00  0.00    +0.000 A 
ATOM     30  C   UNL     1      -0.316  10.081  18.786  0.00  0.00    +0.000 A 
ATOM     31  N   UNL     1      -0.829   9.651  17.611  0.00  0.00    +0.000 NA
BRANCH  22  33
ATOM     32  C   UNL     1      -3.106  10.840  15.228  0.00  0.00    +0.000 C 
ATOM     33  O   UNL     1      -2.525   9.779  15.985  0.00  0.00    +0.000 OA
ENDBRANCH  22  33
ENDBRANCH  21  29
BRANCH  21  34
ATOM     34  O   UNL     1       2.478   9.030  17.651  0.00  0.00    +0.000 OA
ATOM     35  H   UNL     1       3.082   8.320  17.359  0.00  0.00    +0.000 HD
ENDBRANCH  21  34
ENDBRANCH  20  21
ENDBRANCH   1  20
TORSDOF 8
ENDMDL
MODEL 6
REMARK VINA RESULT:      -8.1      1.032      1.782
REMARK  Name = 
REMARK  9 active torsions:
REMARK  status: ('A' for Active; 'I' for Inactive)
REMARK    1  A    between atoms: C_1  and  O_2
REMARK    2  A    between atoms: O_2  and  C_3
REMARK    3  A    between atoms: C_10  and  C_11
REMARK    4  A    between atoms: C_11  and  O_12
REMARK    5  A    between atoms: C_11  and  C_13
REMARK    6  A    between atoms: C_13  and  N_14
REMARK    7  A    between atoms: C_17  and  N_18
REMARK    8  A    between atoms: N_18  and  C_19
REMARK    9  A    between atoms: C_19  and  C_20
REMARK                            x       y       z     vdW  Elec       q    Type
REMARK                         _______ _______ _______ _____ _____    ______ ____
ROOT
ATOM      1  N   UNL     1       1.689   5.419  20.077  0.00  0.00    +0.000 NA
ATOM      2  C   UNL     1       1.545   4.721  18.787  0.00  0.00    +0.000 C 
ATOM      3  C   UNL     1       0.882   3.351  18.921  0.00  0.00    +0.000 C 
ATOM      4  C   UNL     1       1.606   2.450  19.923  0.00  0.00    +0.000 C 
ATOM      5  C   UNL     1       1.715   3.229  21.242  0.00  0.00    +0.000 C 
ATOM      6  C   UNL     1       2.405   4.580  21.055  0.00  0.00    +0.000 C 
ENDROOT
BRANCH   4   7
ATOM      7  N   UNL     1       2.893   2.018  19.349  0.00  0.00    +0.000 NA
ATOM      8  H   UNL     1       2.894   2.154  18.338  0.00  0.00    +0.000 HD
BRANCH   7   9
ATOM      9  C   UNL     1       4.032   2.763  19.902  0.00  0.00    +0.000 C 
BRANCH   9  10
ATOM     10  C   UNL     1       4.856   3.441  18.825  0.00  0.00    +0.000 A 
ATOM     11  C   UNL     1       4.539   3.264  17.479  0.00  0.00    +0.000 A 
ATOM     12  C   UNL     1       5.337   3.868  16.504  0.00  0.00    +0.000 A 
ATOM     13  C   UNL     1       5.077   3.715  15.134  0.00  0.00    +0.000 A 
ATOM     14  C   UNL     1       5.904   4.314  14.183  0.00  0.00    +0.000 A 
ATOM     15  C   UNL     1       6.998   5.075  14.589  0.00  0.00    +0.000 A 
ATOM     16  C   UNL     1       7.267   5.249  15.945  0.00  0.00    +0.000 A 
ATOM     17  C   UNL     1       6.442   4.643  16.910  0.00  0.00    +0.000 A 
ATOM     18  C   UNL     1       6.663   4.776  18.279  0.00  0.00    +0.000 A 
ATOM     19  N   UNL     1       5.899   4.203  19.238  0.00  0.00    +0.000 NA
ENDBRANCH   9  10
ENDBRANCH   7   9
ENDBRANCH   4   7
BRANCH   1  20
ATOM     20  C   UNL     1       2.399   6.718  19.924  0.00  0.00    +0.000 C 
BRANCH  20  21
ATOM     21  C   UNL     1       1.546   7.905  19.372  0.00  0.00    +0.000 C 
BRANCH  21  29
ATOM     22  C   UNL     1      -1.300  10.902  18.659  0.00  0.00    +0.000 A 
ATOM     23  C   UNL     1      -1.807  11.728  19.639  0.00  0.00    +0.000 A 
ATOM     24  C   UNL     1      -1.321  11.572  20.937  0.00  0.00    +0.000 A 
ATOM     25  C   UNL     1      -0.358  10.619  21.232  0.00  0.00    +0.000 A 
ATOM     26  N   UNL     1       0.072  10.478  22.501  0.00  0.00    +0.000 NA
ATOM     27  C   UNL     1       0.982   9.514  22.746  0.00  0.00    +0.000 A 
ATOM     28  C   UNL     1       1.501   8.687  21.770  0.00  0.00    +0.000 A 
ATOM     29  C   UNL     1       1.057   8.851  20.451  0.00  0.00    +0.000 A 
ATOM     30  C   UNL     1       0.101   9.829  20.158  0.00  0.00    +0.000 A 
ATOM     31  N   UNL     1      -0.366   9.963  18.896  0.00  0.00    +0.000 NA
BRANCH  22  33
ATOM     32  C   UNL     1      -3.145  11.527  17.362  0.00  0.00    +0.000 C 
ATOM     33  O   UNL     1      -1.798  11.057  17.383  0.00  0.00    +0.000 OA
ENDBRANCH  22  33
ENDBRANCH  21  29
BRANCH  21  34
ATOM     34  O   UNL     1       2.266   8.720  18.442  0.00  0.00    +0.000 OA
ATOM     35  H   UNL     1       2.653   9.439  18.979  0.00  0.00    +0.000 HD
ENDBRANCH  21  34
ENDBRANCH  20  21
ENDBRANCH   1  20
TORSDOF 8
ENDMDL
MODEL 7
REMARK VINA RESULT:      -8.0      2.930     10.304
REMARK  Name = 
REMARK  9 active torsions:
REMARK  status: ('A' for Active; 'I' for Inactive)
REMARK    1  A    between atoms: C_1  and  O_2
REMARK    2  A    between atoms: O_2  and  C_3
REMARK    3  A    between atoms: C_10  and  C_11
REMARK    4  A    between atoms: C_11  and  O_12
REMARK    5  A    between atoms: C_11  and  C_13
REMARK    6  A    between atoms: C_13  and  N_14
REMARK    7  A    between atoms: C_17  and  N_18
REMARK    8  A    between atoms: N_18  and  C_19
REMARK    9  A    between atoms: C_19  and  C_20
REMARK                            x       y       z     vdW  Elec       q    Type
REMARK                         _______ _______ _______ _____ _____    ______ ____
ROOT
ATOM      1  N   UNL     1       1.220  10.065  18.371  0.00  0.00    +0.000 NA
ATOM      2  C   UNL     1       0.303   9.537  19.396  0.00  0.00    +0.000 C 
ATOM      3  C   UNL     1      -0.810  10.518  19.762  0.00  0.00    +0.000 C 
ATOM      4  C   UNL     1      -0.264  11.879  20.201  0.00  0.00    +0.000 C 
ATOM      5  C   UNL     1       0.673  12.376  19.090  0.00  0.00    +0.000 C 
ATOM      6  C   UNL     1       1.779  11.366  18.780  0.00  0.00    +0.000 C 
ENDROOT
BRANCH   4   7
ATOM      7  N   UNL     1       0.361  11.748  21.529  0.00  0.00    +0.000 NA
ATOM      8  H   UNL     1       0.743  12.645  21.831  0.00  0.00    +0.000 HD
BRANCH   7   9
ATOM      9  C   UNL     1      -0.588  11.297  22.554  0.00  0.00    +0.000 C 
BRANCH   9  10
ATOM     10  C   UNL     1      -1.501  12.411  23.027  0.00  0.00    +0.000 A 
ATOM     11  C   UNL     1      -2.884  12.286  22.908  0.00  0.00    +0.000 A 
ATOM     12  C   UNL     1      -3.702  13.344  23.315  0.00  0.00    +0.000 A 
ATOM     13  C   UNL     1      -5.100  13.282  23.207  0.00  0.00    +0.000 A 
ATOM     14  C   UNL     1      -5.890  14.362  23.603  0.00  0.00    +0.000 A 
ATOM     15  C   UNL     1      -5.294  15.514  24.113  0.00  0.00    +0.000 A 
ATOM     16  C   UNL     1      -3.909  15.590  24.238  0.00  0.00    +0.000 A 
ATOM     17  C   UNL     1      -3.105  14.508  23.836  0.00  0.00    +0.000 A 
ATOM     18  C   UNL     1      -1.715  14.527  23.932  0.00  0.00    +0.000 A 
ATOM     19  N   UNL     1      -0.906  13.513  23.548  0.00  0.00    +0.000 NA
ENDBRANCH   9  10
ENDBRANCH   7   9
ENDBRANCH   4   7
BRANCH   1  20
ATOM     20  C   UNL     1       2.332   9.116  18.086  0.00  0.00    +0.000 C 
BRANCH  20  21
ATOM     21  C   UNL     1       2.176   7.680  18.679  0.00  0.00    +0.000 C 
BRANCH  21  29
ATOM     22  C   UNL     1       1.865   3.555  19.378  0.00  0.00    +0.000 A 
ATOM     23  C   UNL     1       2.668   2.612  18.774  0.00  0.00    +0.000 A 
ATOM     24  C   UNL     1       3.657   3.063  17.901  0.00  0.00    +0.000 A 
ATOM     25  C   UNL     1       3.830   4.415  17.651  0.00  0.00    +0.000 A 
ATOM     26  N   UNL     1       4.781   4.815  16.783  0.00  0.00    +0.000 NA
ATOM     27  C   UNL     1       4.888   6.137  16.543  0.00  0.00    +0.000 A 
ATOM     28  C   UNL     1       4.094   7.090  17.150  0.00  0.00    +0.000 A 
ATOM     29  C   UNL     1       3.118   6.665  18.060  0.00  0.00    +0.000 A 
ATOM     30  C   UNL     1       2.964   5.300  18.324  0.00  0.00    +0.000 A 
ATOM     31  N   UNL     1       1.994   4.878  19.167  0.00  0.00    +0.000 NA
BRANCH  22  33
ATOM     32  C   UNL     1       1.383   2.701  21.503  0.00  0.00    +0.000 C 
ATOM     33  O   UNL     1       0.881   3.097  20.228  0.00  0.00    +0.000 OA
ENDBRANCH  22  33
ENDBRANCH  21  29
BRANCH  21  34
ATOM     34  O   UNL     1       2.429   7.631  20.087  0.00  0.00    +0.000 OA
ATOM     35  H   UNL     1       2.934   6.807  20.227  0.00  0.00    +0.000 HD
ENDBRANCH  21  34
ENDBRANCH  20  21
ENDBRANCH   1  20
TORSDOF 8
ENDMDL
MODEL 8
REMARK VINA RESULT:      -8.0      3.665      9.667
REMARK  Name = 
REMARK  9 active torsions:
REMARK  status: ('A' for Active; 'I' for Inactive)
REMARK    1  A    between atoms: C_1  and  O_2
REMARK    2  A    between atoms: O_2  and  C_3
REMARK    3  A    between atoms: C_10  and  C_11
REMARK    4  A    between atoms: C_11  and  O_12
REMARK    5  A    between atoms: C_11  and  C_13
REMARK    6  A    between atoms: C_13  and  N_14
REMARK    7  A    between atoms: C_17  and  N_18
REMARK    8  A    between atoms: N_18  and  C_19
REMARK    9  A    between atoms: C_19  and  C_20
REMARK                            x       y       z     vdW  Elec       q    Type
REMARK                         _______ _______ _______ _____ _____    ______ ____
ROOT
ATOM      1  N   UNL     1       0.944   9.401  19.399  0.00  0.00    +0.000 NA
ATOM      2  C   UNL     1       0.991   9.515  20.867  0.00  0.00    +0.000 C 
ATOM      3  C   UNL     1      -0.186  10.303  21.441  0.00  0.00    +0.000 C 
ATOM      4  C   UNL     1      -0.318  11.692  20.813  0.00  0.00    +0.000 C 
ATOM      5  C   UNL     1      -0.370  11.502  19.290  0.00  0.00    +0.000 C 
ATOM      6  C   UNL     1       0.840  10.728  18.767  0.00  0.00    +0.000 C 
ENDROOT
BRANCH   4   7
ATOM      7  N   UNL     1       0.779  12.551  21.294  0.00  0.00    +0.000 NA
ATOM      8  H   UNL     1       1.463  12.700  20.552  0.00  0.00    +0.000 HD
BRANCH   7   9
ATOM      9  C   UNL     1       0.307  13.867  21.740  0.00  0.00    +0.000 C 
BRANCH   9  10
ATOM     10  C   UNL     1       0.281  14.883  20.614  0.00  0.00    +0.000 A 
ATOM     11  C   UNL     1       1.423  15.113  19.848  0.00  0.00    +0.000 A 
ATOM     12  C   UNL     1       1.385  16.083  18.842  0.00  0.00    +0.000 A 
ATOM     13  C   UNL     1       2.506  16.369  18.048  0.00  0.00    +0.000 A 
ATOM     14  C   UNL     1       2.444  17.357  17.064  0.00  0.00    +0.000 A 
ATOM     15  C   UNL     1       1.263  18.068  16.860  0.00  0.00    +0.000 A 
ATOM     16  C   UNL     1       0.136  17.790  17.631  0.00  0.00    +0.000 A 
ATOM     17  C   UNL     1       0.192  16.801  18.629  0.00  0.00    +0.000 A 
ATOM     18  C   UNL     1      -0.899  16.482  19.435  0.00  0.00    +0.000 A 
ATOM     19  N   UNL     1      -0.884  15.545  20.410  0.00  0.00    +0.000 NA
ENDBRANCH   9  10
ENDBRANCH   7   9
ENDBRANCH   4   7
BRANCH   1  20
ATOM     20  C   UNL     1       2.137   8.689  18.863  0.00  0.00    +0.000 C 
BRANCH  20  21
ATOM     21  C   UNL     1       2.194   7.150  19.128  0.00  0.00    +0.000 C 
BRANCH  21  29
ATOM     22  C   UNL     1       2.459   2.967  18.971  0.00  0.00    +0.000 A 
ATOM     23  C   UNL     1       3.300   2.283  18.119  0.00  0.00    +0.000 A 
ATOM     24  C   UNL     1       4.127   3.031  17.282  0.00  0.00    +0.000 A 
ATOM     25  C   UNL     1       4.107   4.417  17.307  0.00  0.00    +0.000 A 
ATOM     26  N   UNL     1       4.903   5.109  16.467  0.00  0.00    +0.000 NA
ATOM     27  C   UNL     1       4.823   6.454  16.502  0.00  0.00    +0.000 A 
ATOM     28  C   UNL     1       3.991   7.148  17.357  0.00  0.00    +0.000 A 
ATOM     29  C   UNL     1       3.178   6.420  18.235  0.00  0.00    +0.000 A 
ATOM     30  C   UNL     1       3.219   5.022  18.219  0.00  0.00    +0.000 A 
ATOM     31  N   UNL     1       2.405   4.311  19.032  0.00  0.00    +0.000 NA
BRANCH  22  33
ATOM     32  C   UNL     1       1.178   2.934  20.929  0.00  0.00    +0.000 C 
ATOM     33  O   UNL     1       1.637   2.218  19.784  0.00  0.00    +0.000 OA
ENDBRANCH  22  33
ENDBRANCH  21  29
BRANCH  21  34
ATOM     34  O   UNL     1       2.580   6.832  20.468  0.00  0.00    +0.000 OA
ATOM     35  H   UNL     1       1.799   7.043  21.016  0.00  0.00    +0.000 HD
ENDBRANCH  21  34
ENDBRANCH  20  21
ENDBRANCH   1  20
TORSDOF 8
ENDMDL
MODEL 9
REMARK VINA RESULT:      -8.0      1.714      2.634
REMARK  Name = 
REMARK  9 active torsions:
REMARK  status: ('A' for Active; 'I' for Inactive)
REMARK    1  A    between atoms: C_1  and  O_2
REMARK    2  A    between atoms: O_2  and  C_3
REMARK    3  A    between atoms: C_10  and  C_11
REMARK    4  A    between atoms: C_11  and  O_12
REMARK    5  A    between atoms: C_11  and  C_13
REMARK    6  A    between atoms: C_13  and  N_14
REMARK    7  A    between atoms: C_17  and  N_18
REMARK    8  A    between atoms: N_18  and  C_19
REMARK    9  A    between atoms: C_19  and  C_20
REMARK                            x       y       z     vdW  Elec       q    Type
REMARK                         _______ _______ _______ _____ _____    ______ ____
ROOT
ATOM      1  N   UNL     1       1.345   4.621  20.695  0.00  0.00    +0.000 NA
ATOM      2  C   UNL     1       0.648   3.848  19.652  0.00  0.00    +0.000 C 
ATOM      3  C   UNL     1       1.215   2.441  19.472  0.00  0.00    +0.000 C 
ATOM      4  C   UNL     1       2.719   2.451  19.196  0.00  0.00    +0.000 C 
ATOM      5  C   UNL     1       3.386   3.260  20.318  0.00  0.00    +0.000 C 
ATOM      6  C   UNL     1       2.796   4.666  20.439  0.00  0.00    +0.000 C 
ENDROOT
BRANCH   4   7
ATOM      7  N   UNL     1       2.961   2.963  17.834  0.00  0.00    +0.000 NA
ATOM      8  H   UNL     1       2.716   3.951  17.779  0.00  0.00    +0.000 HD
BRANCH   7   9
ATOM      9  C   UNL     1       4.365   2.825  17.425  0.00  0.00    +0.000 C 
BRANCH   9  10
ATOM     10  C   UNL     1       5.070   4.163  17.322  0.00  0.00    +0.000 A 
ATOM     11  C   UNL     1       6.144   4.460  18.160  0.00  0.00    +0.000 A 
ATOM     12  C   UNL     1       6.752   5.715  18.071  0.00  0.00    +0.000 A 
ATOM     13  C   UNL     1       7.827   6.077  18.898  0.00  0.00    +0.000 A 
ATOM     14  C   UNL     1       8.401   7.345  18.801  0.00  0.00    +0.000 A 
ATOM     15  C   UNL     1       7.910   8.265  17.876  0.00  0.00    +0.000 A 
ATOM     16  C   UNL     1       6.851   7.921  17.040  0.00  0.00    +0.000 A 
ATOM     17  C   UNL     1       6.263   6.647  17.136  0.00  0.00    +0.000 A 
ATOM     18  C   UNL     1       5.198   6.248  16.330  0.00  0.00    +0.000 A 
ATOM     19  N   UNL     1       4.599   5.036  16.397  0.00  0.00    +0.000 NA
ENDBRANCH   9  10
ENDBRANCH   7   9
ENDBRANCH   4   7
BRANCH   1  20
ATOM     20  C   UNL     1       0.817   6.008  20.799  0.00  0.00    +0.000 C 
BRANCH  20  21
ATOM     21  C   UNL     1       1.885   7.147  20.843  0.00  0.00    +0.000 C 
BRANCH  21  29
ATOM     22  C   UNL     1      -0.201  10.786  20.910  0.00  0.00    +0.000 A 
ATOM     23  C   UNL     1      -0.216  11.681  19.861  0.00  0.00    +0.000 A 
ATOM     24  C   UNL     1       0.482  11.339  18.703  0.00  0.00    +0.000 A 
ATOM     25  C   UNL     1       1.167  10.137  18.608  0.00  0.00    +0.000 A 
ATOM     26  N   UNL     1       1.850   9.848  17.483  0.00  0.00    +0.000 NA
ATOM     27  C   UNL     1       2.531   8.685  17.451  0.00  0.00    +0.000 A 
ATOM     28  C   UNL     1       2.546   7.779  18.492  0.00  0.00    +0.000 A 
ATOM     29  C   UNL     1       1.821   8.083  19.652  0.00  0.00    +0.000 A 
ATOM     30  C   UNL     1       1.115   9.287  19.732  0.00  0.00    +0.000 A 
ATOM     31  N   UNL     1       0.449   9.608  20.865  0.00  0.00    +0.000 NA
BRANCH  22  33
ATOM     32  C   UNL     1      -0.797  10.158  23.084  0.00  0.00    +0.000 C 
ATOM     33  O   UNL     1      -0.882  11.142  22.054  0.00  0.00    +0.000 OA
ENDBRANCH  22  33
ENDBRANCH  21  29
BRANCH  21  34
ATOM     34  O   UNL     1       1.756   7.984  21.997  0.00  0.00    +0.000 OA
ATOM     35  H   UNL     1       0.893   7.749  22.388  0.00  0.00    +0.000 HD
ENDBRANCH  21  34
ENDBRANCH  20  21
ENDBRANCH   1  20
TORSDOF 8
ENDMDL
