MODEL 1
REMARK VINA RESULT:      -7.6      0.000      0.000
REMARK  Name = 
REMARK  10 active torsions:
REMARK  status: ('A' for Active; 'I' for Inactive)
REMARK    1  A    between atoms: C_1  and  C_2
REMARK    2  A    between atoms: C_7  and  C_8
REMARK    3  A    between atoms: N_10  and  N_11
REMARK    4  A    between atoms: N_11  and  C_12
REMARK    5  A    between atoms: C_12  and  C_13
REMARK    6  A    between atoms: C_20  and  N_21
REMARK    7  A    between atoms: C_22  and  C_24
REMARK    8  A    between atoms: C_24  and  C_25
REMARK    9  A    between atoms: C_24  and  C_26
REMARK   10  A    between atoms: C_24  and  C_27
REMARK                            x       y       z     vdW  Elec       q    Type
REMARK                         _______ _______ _______ _____ _____    ______ ____
ROOT
ATOM      1  C   UNL     1       4.772   1.956  19.129  0.00  0.00    +0.000 C 
ATOM      2  C   UNL     1       3.803   2.878  19.824  0.00  0.00    +0.000 A 
ATOM      3  C   UNL     1       2.943   2.294  20.779  0.00  0.00    +0.000 A 
ATOM      4  C   UNL     1       1.929   3.032  21.379  0.00  0.00    +0.000 A 
ATOM      5 CL   UNL     1       0.874   2.286  22.514  0.00  0.00    +0.000 Cl
ATOM      6  C   UNL     1       1.747   4.365  21.050  0.00  0.00    +0.000 A 
ATOM      7  C   UNL     1       2.601   4.979  20.120  0.00  0.00    +0.000 A 
ATOM      8  C   UNL     1       3.636   4.243  19.491  0.00  0.00    +0.000 A 
ENDROOT
BRANCH   7   9
ATOM      9  C   UNL     1       2.380   6.425  19.823  0.00  0.00    +0.000 C 
ATOM     10  O   UNL     1       2.532   6.862  18.684  0.00  0.00    +0.000 OA
ATOM     11  N   UNL     1       2.011   7.210  20.912  0.00  0.00    +0.000 N 
ATOM     12  H   UNL     1       2.154   6.873  21.863  0.00  0.00    +0.000 HD
BRANCH  11  13
ATOM     13  N   UNL     1       1.768   8.591  20.747  0.00  0.00    +0.000 NA
ATOM     14  H   UNL     1       1.389   8.720  19.803  0.00  0.00    +0.000 HD
BRANCH  13  15
ATOM     15  C   UNL     1       0.763   9.067  21.715  0.00  0.00    +0.000 C 
BRANCH  15  16
ATOM     16  C   UNL     1      -0.099  10.164  21.143  0.00  0.00    +0.000 A 
ATOM     17  C   UNL     1      -0.262  10.309  19.756  0.00  0.00    +0.000 A 
ATOM     18  C   UNL     1      -1.075  11.318  19.233  0.00  0.00    +0.000 A 
ATOM     19  C   UNL     1      -1.751  12.187  20.088  0.00  0.00    +0.000 A 
ATOM     20  C   UNL     1      -1.615  12.044  21.467  0.00  0.00    +0.000 A 
ATOM     21  C   UNL     1      -0.797  11.040  21.982  0.00  0.00    +0.000 A 
ATOM     22  F   UNL     1      -0.698  10.918  23.314  0.00  0.00    +0.000 F 
ENDBRANCH  15  16
ENDBRANCH  13  15
ENDBRANCH  11  13
ENDBRANCH   7   9
BRANCH   8  23
ATOM     23  N   UNL     1       4.402   4.868  18.468  0.00  0.00    +0.000 N 
ATOM     24  C   UNL     1       5.710   5.305  18.630  0.00  0.00    +0.000 C 
ATOM     25  O   UNL     1       6.325   5.228  19.694  0.00  0.00    +0.000 OA
ATOM     26  H   UNL     1       3.847   5.457  17.843  0.00  0.00    +0.000 HD
BRANCH  24  27
ATOM     27  C   UNL     1       6.351   5.926  17.360  0.00  0.00    +0.000 C 
ATOM     28  C   UNL     1       7.024   4.859  16.483  0.00  0.00    +0.000 C 
ATOM     29  C   UNL     1       5.274   6.624  16.505  0.00  0.00    +0.000 C 
ATOM     30  C   UNL     1       7.385   6.982  17.783  0.00  0.00    +0.000 C 
ENDBRANCH  24  27
ENDBRANCH   8  23
TORSDOF 6
ENDMDL
MODEL 2
REMARK VINA RESULT:      -7.6      1.248      1.850
REMARK  Name = 
REMARK  10 active torsions:
REMARK  status: ('A' for Active; 'I' for Inactive)
REMARK    1  A    between atoms: C_1  and  C_2
REMARK    2  A    between atoms: C_7  and  C_8
REMARK    3  A    between atoms: N_10  and  N_11
REMARK    4  A    between atoms: N_11  and  C_12
REMARK    5  A    between atoms: C_12  and  C_13
REMARK    6  A    between atoms: C_20  and  N_21
REMARK    7  A    between atoms: C_22  and  C_24
REMARK    8  A    between atoms: C_24  and  C_25
REMARK    9  A    between atoms: C_24  and  C_26
REMARK   10  A    between atoms: C_24  and  C_27
REMARK                            x       y       z     vdW  Elec       q    Type
REMARK                         _______ _______ _______ _____ _____    ______ ____
ROOT
ATOM      1  C   UNL     1       3.722   1.619  18.165  0.00  0.00    +0.000 C 
ATOM      2  C   UNL     1       3.158   2.597  19.163  0.00  0.00    +0.000 A 
ATOM      3  C   UNL     1       2.433   2.054  20.247  0.00  0.00    +0.000 A 
ATOM      4  C   UNL     1       1.765   2.875  21.148  0.00  0.00    +0.000 A 
ATOM      5 CL   UNL     1       0.862   2.186  22.439  0.00  0.00    +0.000 Cl
ATOM      6  C   UNL     1       1.802   4.252  20.998  0.00  0.00    +0.000 A 
ATOM      7  C   UNL     1       2.532   4.822  19.943  0.00  0.00    +0.000 A 
ATOM      8  C   UNL     1       3.215   4.003  19.009  0.00  0.00    +0.000 A 
ENDROOT
BRANCH   7   9
ATOM      9  C   UNL     1       2.564   6.311  19.845  0.00  0.00    +0.000 C 
ATOM     10  O   UNL     1       3.068   6.865  18.870  0.00  0.00    +0.000 OA
ATOM     11  N   UNL     1       2.003   6.994  20.921  0.00  0.00    +0.000 N 
ATOM     12  H   UNL     1       1.843   6.518  21.808  0.00  0.00    +0.000 HD
BRANCH  11  13
ATOM     13  N   UNL     1       1.970   8.406  20.931  0.00  0.00    +0.000 NA
ATOM     14  H   UNL     1       2.789   8.730  20.407  0.00  0.00    +0.000 HD
BRANCH  13  15
ATOM     15  C   UNL     1       0.761   8.908  20.253  0.00  0.00    +0.000 C 
BRANCH  15  16
ATOM     16  C   UNL     1       0.011   9.906  21.098  0.00  0.00    +0.000 A 
ATOM     17  C   UNL     1      -0.362   9.602  22.418  0.00  0.00    +0.000 A 
ATOM     18  C   UNL     1      -1.044  10.538  23.201  0.00  0.00    +0.000 A 
ATOM     19  C   UNL     1      -1.346  11.796  22.685  0.00  0.00    +0.000 A 
ATOM     20  C   UNL     1      -0.965  12.120  21.384  0.00  0.00    +0.000 A 
ATOM     21  C   UNL     1      -0.293  11.180  20.605  0.00  0.00    +0.000 A 
ATOM     22  F   UNL     1       0.074  11.526  19.362  0.00  0.00    +0.000 F 
ENDBRANCH  15  16
ENDBRANCH  13  15
ENDBRANCH  11  13
ENDBRANCH   7   9
BRANCH   8  23
ATOM     23  N   UNL     1       3.842   4.613  17.888  0.00  0.00    +0.000 N 
ATOM     24  C   UNL     1       5.217   4.707  17.720  0.00  0.00    +0.000 C 
ATOM     25  O   UNL     1       6.032   4.304  18.550  0.00  0.00    +0.000 OA
ATOM     26  H   UNL     1       3.328   5.414  17.515  0.00  0.00    +0.000 HD
BRANCH  24  27
ATOM     27  C   UNL     1       5.667   5.386  16.399  0.00  0.00    +0.000 C 
ATOM     28  C   UNL     1       4.862   6.663  16.113  0.00  0.00    +0.000 C 
ATOM     29  C   UNL     1       7.156   5.781  16.481  0.00  0.00    +0.000 C 
ATOM     30  C   UNL     1       5.499   4.392  15.239  0.00  0.00    +0.000 C 
ENDBRANCH  24  27
ENDBRANCH   8  23
TORSDOF 6
ENDMDL
MODEL 3
REMARK VINA RESULT:      -7.5      0.861      1.322
REMARK  Name = 
REMARK  10 active torsions:
REMARK  status: ('A' for Active; 'I' for Inactive)
REMARK    1  A    between atoms: C_1  and  C_2
REMARK    2  A    between atoms: C_7  and  C_8
REMARK    3  A    between atoms: N_10  and  N_11
REMARK    4  A    between atoms: N_11  and  C_12
REMARK    5  A    between atoms: C_12  and  C_13
REMARK    6  A    between atoms: C_20  and  N_21
REMARK    7  A    between atoms: C_22  and  C_24
REMARK    8  A    between atoms: C_24  and  C_25
REMARK    9  A    between atoms: C_24  and  C_26
REMARK   10  A    between atoms: C_24  and  C_27
REMARK                            x       y       z     vdW  Elec       q    Type
REMARK                         _______ _______ _______ _____ _____    ______ ____
ROOT
ATOM      1  C   UNL     1       4.468   1.970  18.703  0.00  0.00    +0.000 C 
ATOM      2  C   UNL     1       3.621   2.919  19.510  0.00  0.00    +0.000 A 
ATOM      3  C   UNL     1       2.783   2.346  20.492  0.00  0.00    +0.000 A 
ATOM      4  C   UNL     1       1.870   3.121  21.198  0.00  0.00    +0.000 A 
ATOM      5 CL   UNL     1       0.837   2.391  22.364  0.00  0.00    +0.000 Cl
ATOM      6  C   UNL     1       1.769   4.480  20.952  0.00  0.00    +0.000 A 
ATOM      7  C   UNL     1       2.605   5.083  19.998  0.00  0.00    +0.000 A 
ATOM      8  C   UNL     1       3.537   4.310  19.261  0.00  0.00    +0.000 A 
ENDROOT
BRANCH   7   9
ATOM      9  C   UNL     1       2.476   6.555  19.792  0.00  0.00    +0.000 C 
ATOM     10  O   UNL     1       2.753   7.064  18.708  0.00  0.00    +0.000 OA
ATOM     11  N   UNL     1       2.044   7.279  20.900  0.00  0.00    +0.000 N 
ATOM     12  H   UNL     1       2.083   6.868  21.832  0.00  0.00    +0.000 HD
BRANCH  11  13
ATOM     13  N   UNL     1       1.878   8.679  20.818  0.00  0.00    +0.000 NA
ATOM     14  H   UNL     1       2.515   9.015  20.089  0.00  0.00    +0.000 HD
BRANCH  13  15
ATOM     15  C   UNL     1       0.500   9.022  20.420  0.00  0.00    +0.000 C 
BRANCH  15  16
ATOM     16  C   UNL     1      -0.038  10.197  21.197  0.00  0.00    +0.000 A 
ATOM     17  C   UNL     1       0.033  11.501  20.680  0.00  0.00    +0.000 A 
ATOM     18  C   UNL     1      -0.482  12.583  21.399  0.00  0.00    +0.000 A 
ATOM     19  C   UNL     1      -1.090  12.377  22.635  0.00  0.00    +0.000 A 
ATOM     20  C   UNL     1      -1.185  11.087  23.153  0.00  0.00    +0.000 A 
ATOM     21  C   UNL     1      -0.663  10.012  22.435  0.00  0.00    +0.000 A 
ATOM     22  F   UNL     1      -0.783   8.781  22.952  0.00  0.00    +0.000 F 
ENDBRANCH  15  16
ENDBRANCH  13  15
ENDBRANCH  11  13
ENDBRANCH   7   9
BRANCH   8  23
ATOM     23  N   UNL     1       4.280   4.935  18.221  0.00  0.00    +0.000 N 
ATOM     24  C   UNL     1       5.625   5.264  18.314  0.00  0.00    +0.000 C 
ATOM     25  O   UNL     1       6.302   5.082  19.326  0.00  0.00    +0.000 OA
ATOM     26  H   UNL     1       3.732   5.597  17.667  0.00  0.00    +0.000 HD
BRANCH  24  27
ATOM     27  C   UNL     1       6.228   5.908  17.036  0.00  0.00    +0.000 C 
ATOM     28  C   UNL     1       5.139   6.516  16.139  0.00  0.00    +0.000 C 
ATOM     29  C   UNL     1       7.204   7.039  17.418  0.00  0.00    +0.000 C 
ATOM     30  C   UNL     1       7.012   4.841  16.256  0.00  0.00    +0.000 C 
ENDBRANCH  24  27
ENDBRANCH   8  23
TORSDOF 6
ENDMDL
MODEL 4
REMARK VINA RESULT:      -7.5      1.022      1.601
REMARK  Name = 
REMARK  10 active torsions:
REMARK  status: ('A' for Active; 'I' for Inactive)
REMARK    1  A    between atoms: C_1  and  C_2
REMARK    2  A    between atoms: C_7  and  C_8
REMARK    3  A    between atoms: N_10  and  N_11
REMARK    4  A    between atoms: N_11  and  C_12
REMARK    5  A    between atoms: C_12  and  C_13
REMARK    6  A    between atoms: C_20  and  N_21
REMARK    7  A    between atoms: C_22  and  C_24
REMARK    8  A    between atoms: C_24  and  C_25
REMARK    9  A    between atoms: C_24  and  C_26
REMARK   10  A    between atoms: C_24  and  C_27
REMARK                            x       y       z     vdW  Elec       q    Type
REMARK                         _______ _______ _______ _____ _____    ______ ____
ROOT
ATOM      1  C   UNL     1       4.807   1.867  19.305  0.00  0.00    +0.000 C 
ATOM      2  C   UNL     1       3.804   2.778  19.965  0.00  0.00    +0.000 A 
ATOM      3  C   UNL     1       2.947   2.194  20.923  0.00  0.00    +0.000 A 
ATOM      4  C   UNL     1       1.906   2.919  21.492  0.00  0.00    +0.000 A 
ATOM      5 CL   UNL     1       0.856   2.171  22.631  0.00  0.00    +0.000 Cl
ATOM      6  C   UNL     1       1.692   4.238  21.128  0.00  0.00    +0.000 A 
ATOM      7  C   UNL     1       2.541   4.853  20.194  0.00  0.00    +0.000 A 
ATOM      8  C   UNL     1       3.605   4.131  19.597  0.00  0.00    +0.000 A 
ENDROOT
BRANCH   7   9
ATOM      9  C   UNL     1       2.285   6.285  19.859  0.00  0.00    +0.000 C 
ATOM     10  O   UNL     1       2.488   6.709  18.723  0.00  0.00    +0.000 OA
ATOM     11  N   UNL     1       1.825   7.072  20.911  0.00  0.00    +0.000 N 
ATOM     12  H   UNL     1       1.924   6.756  21.875  0.00  0.00    +0.000 HD
BRANCH  11  13
ATOM     13  N   UNL     1       1.541   8.440  20.707  0.00  0.00    +0.000 NA
ATOM     14  H   UNL     1       0.614   8.495  20.273  0.00  0.00    +0.000 HD
BRANCH  13  15
ATOM     15  C   UNL     1       1.491   9.164  21.991  0.00  0.00    +0.000 C 
BRANCH  15  16
ATOM     16  C   UNL     1       0.391  10.195  22.018  0.00  0.00    +0.000 A 
ATOM     17  C   UNL     1      -0.576  10.195  23.036  0.00  0.00    +0.000 A 
ATOM     18  C   UNL     1      -1.584  11.164  23.064  0.00  0.00    +0.000 A 
ATOM     19  C   UNL     1      -1.629  12.155  22.085  0.00  0.00    +0.000 A 
ATOM     20  C   UNL     1      -0.666  12.179  21.080  0.00  0.00    +0.000 A 
ATOM     21  C   UNL     1       0.332  11.206  21.053  0.00  0.00    +0.000 A 
ATOM     22  F   UNL     1       1.255  11.264  20.081  0.00  0.00    +0.000 F 
ENDBRANCH  15  16
ENDBRANCH  13  15
ENDBRANCH  11  13
ENDBRANCH   7   9
BRANCH   8  23
ATOM     23  N   UNL     1       4.367   4.752  18.568  0.00  0.00    +0.000 N 
ATOM     24  C   UNL     1       5.687   5.157  18.714  0.00  0.00    +0.000 C 
ATOM     25  O   UNL     1       6.318   5.053  19.766  0.00  0.00    +0.000 OA
ATOM     26  H   UNL     1       3.815   5.361  17.960  0.00  0.00    +0.000 HD
BRANCH  24  27
ATOM     27  C   UNL     1       6.321   5.780  17.441  0.00  0.00    +0.000 C 
ATOM     28  C   UNL     1       7.324   6.890  17.792  0.00  0.00    +0.000 C 
ATOM     29  C   UNL     1       7.077   4.702  16.639  0.00  0.00    +0.000 C 
ATOM     30  C   UNL     1       5.205   6.348  16.549  0.00  0.00    +0.000 C 
ENDBRANCH  24  27
ENDBRANCH   8  23
TORSDOF 6
ENDMDL
MODEL 5
REMARK VINA RESULT:      -7.4      1.130      1.686
REMARK  Name = 
REMARK  10 active torsions:
REMARK  status: ('A' for Active; 'I' for Inactive)
REMARK    1  A    between atoms: C_1  and  C_2
REMARK    2  A    between atoms: C_7  and  C_8
REMARK    3  A    between atoms: N_10  and  N_11
REMARK    4  A    between atoms: N_11  and  C_12
REMARK    5  A    between atoms: C_12  and  C_13
REMARK    6  A    between atoms: C_20  and  N_21
REMARK    7  A    between atoms: C_22  and  C_24
REMARK    8  A    between atoms: C_24  and  C_25
REMARK    9  A    between atoms: C_24  and  C_26
REMARK   10  A    between atoms: C_24  and  C_27
REMARK                            x       y       z     vdW  Elec       q    Type
REMARK                         _______ _______ _______ _____ _____    ______ ____
ROOT
ATOM      1  C   UNL     1       4.856   2.072  19.177  0.00  0.00    +0.000 C 
ATOM      2  C   UNL     1       3.855   2.989  19.832  0.00  0.00    +0.000 A 
ATOM      3  C   UNL     1       2.989   2.409  20.785  0.00  0.00    +0.000 A 
ATOM      4  C   UNL     1       1.949   3.139  21.348  0.00  0.00    +0.000 A 
ATOM      5 CL   UNL     1       0.888   2.398  22.481  0.00  0.00    +0.000 Cl
ATOM      6  C   UNL     1       1.745   4.460  20.984  0.00  0.00    +0.000 A 
ATOM      7  C   UNL     1       2.603   5.070  20.055  0.00  0.00    +0.000 A 
ATOM      8  C   UNL     1       3.666   4.342  19.463  0.00  0.00    +0.000 A 
ENDROOT
BRANCH   7   9
ATOM      9  C   UNL     1       2.358   6.504  19.720  0.00  0.00    +0.000 C 
ATOM     10  O   UNL     1       2.579   6.930  18.588  0.00  0.00    +0.000 OA
ATOM     11  N   UNL     1       1.885   7.291  20.766  0.00  0.00    +0.000 N 
ATOM     12  H   UNL     1       1.969   6.972  21.730  0.00  0.00    +0.000 HD
BRANCH  11  13
ATOM     13  N   UNL     1       1.610   8.661  20.561  0.00  0.00    +0.000 NA
ATOM     14  H   UNL     1       1.656   8.829  19.551  0.00  0.00    +0.000 HD
BRANCH  13  15
ATOM     15  C   UNL     1       0.250   8.998  21.021  0.00  0.00    +0.000 C 
BRANCH  15  16
ATOM     16  C   UNL     1      -0.242  10.296  20.432  0.00  0.00    +0.000 A 
ATOM     17  C   UNL     1      -0.585  11.381  21.255  0.00  0.00    +0.000 A 
ATOM     18  C   UNL     1      -1.025  12.586  20.700  0.00  0.00    +0.000 A 
ATOM     19  C   UNL     1      -1.113  12.731  19.317  0.00  0.00    +0.000 A 
ATOM     20  C   UNL     1      -0.758  11.670  18.487  0.00  0.00    +0.000 A 
ATOM     21  C   UNL     1      -0.327  10.468  19.046  0.00  0.00    +0.000 A 
ATOM     22  F   UNL     1       0.022   9.469  18.221  0.00  0.00    +0.000 F 
ENDBRANCH  15  16
ENDBRANCH  13  15
ENDBRANCH  11  13
ENDBRANCH   7   9
BRANCH   8  23
ATOM     23  N   UNL     1       4.437   4.959  18.439  0.00  0.00    +0.000 N 
ATOM     24  C   UNL     1       5.758   5.359  18.594  0.00  0.00    +0.000 C 
ATOM     25  O   UNL     1       6.381   5.254  19.650  0.00  0.00    +0.000 OA
ATOM     26  H   UNL     1       3.892   5.569  17.827  0.00  0.00    +0.000 HD
BRANCH  24  27
ATOM     27  C   UNL     1       6.403   5.979  17.325  0.00  0.00    +0.000 C 
ATOM     28  C   UNL     1       7.444   7.050  17.682  0.00  0.00    +0.000 C 
ATOM     29  C   UNL     1       7.117   4.888  16.502  0.00  0.00    +0.000 C 
ATOM     30  C   UNL     1       5.300   6.595  16.448  0.00  0.00    +0.000 C 
ENDBRANCH  24  27
ENDBRANCH   8  23
TORSDOF 6
ENDMDL
MODEL 6
REMARK VINA RESULT:      -7.4      5.039      7.889
REMARK  Name = 
REMARK  10 active torsions:
REMARK  status: ('A' for Active; 'I' for Inactive)
REMARK    1  A    between atoms: C_1  and  C_2
REMARK    2  A    between atoms: C_7  and  C_8
REMARK    3  A    between atoms: N_10  and  N_11
REMARK    4  A    between atoms: N_11  and  C_12
REMARK    5  A    between atoms: C_12  and  C_13
REMARK    6  A    between atoms: C_20  and  N_21
REMARK    7  A    between atoms: C_22  and  C_24
REMARK    8  A    between atoms: C_24  and  C_25
REMARK    9  A    between atoms: C_24  and  C_26
REMARK   10  A    between atoms: C_24  and  C_27
REMARK                            x       y       z     vdW  Elec       q    Type
REMARK                         _______ _______ _______ _____ _____    ______ ____
ROOT
ATOM      1  C   UNL     1       0.912   8.652  22.181  0.00  0.00    +0.000 C 
ATOM      2  C   UNL     1       0.889   8.972  20.709  0.00  0.00    +0.000 A 
ATOM      3  C   UNL     1       1.801   8.270  19.890  0.00  0.00    +0.000 A 
ATOM      4  C   UNL     1       1.948   8.585  18.544  0.00  0.00    +0.000 A 
ATOM      5 CL   UNL     1       3.091   7.736  17.579  0.00  0.00    +0.000 Cl
ATOM      6  C   UNL     1       1.193   9.599  17.978  0.00  0.00    +0.000 A 
ATOM      7  C   UNL     1       0.262  10.300  18.761  0.00  0.00    +0.000 A 
ATOM      8  C   UNL     1       0.102  10.000  20.137  0.00  0.00    +0.000 A 
ENDROOT
BRANCH   7   9
ATOM      9  C   UNL     1      -0.546  11.363  18.094  0.00  0.00    +0.000 C 
ATOM     10  O   UNL     1      -0.310  12.552  18.299  0.00  0.00    +0.000 OA
ATOM     11  N   UNL     1      -1.563  10.907  17.260  0.00  0.00    +0.000 N 
ATOM     12  H   UNL     1      -1.891   9.944  17.325  0.00  0.00    +0.000 HD
BRANCH  11  13
ATOM     13  N   UNL     1      -2.386  11.824  16.571  0.00  0.00    +0.000 NA
ATOM     14  H   UNL     1      -1.847  12.171  15.771  0.00  0.00    +0.000 HD
BRANCH  13  15
ATOM     15  C   UNL     1      -3.597  11.159  16.055  0.00  0.00    +0.000 C 
BRANCH  15  16
ATOM     16  C   UNL     1      -4.781  11.351  16.969  0.00  0.00    +0.000 A 
ATOM     17  C   UNL     1      -5.661  12.432  16.797  0.00  0.00    +0.000 A 
ATOM     18  C   UNL     1      -6.765  12.595  17.638  0.00  0.00    +0.000 A 
ATOM     19  C   UNL     1      -7.017  11.671  18.651  0.00  0.00    +0.000 A 
ATOM     20  C   UNL     1      -6.164  10.583  18.822  0.00  0.00    +0.000 A 
ATOM     21  C   UNL     1      -5.060  10.430  17.985  0.00  0.00    +0.000 A 
ATOM     22  F   UNL     1      -4.265   9.364  18.165  0.00  0.00    +0.000 F 
ENDBRANCH  15  16
ENDBRANCH  13  15
ENDBRANCH  11  13
ENDBRANCH   7   9
BRANCH   8  23
ATOM     23  N   UNL     1      -0.763  10.812  20.923  0.00  0.00    +0.000 N 
ATOM     24  C   UNL     1      -0.358  11.958  21.594  0.00  0.00    +0.000 C 
ATOM     25  O   UNL     1       0.804  12.364  21.606  0.00  0.00    +0.000 OA
ATOM     26  H   UNL     1      -1.488  10.284  21.413  0.00  0.00    +0.000 HD
BRANCH  24  27
ATOM     27  C   UNL     1      -1.488  12.698  22.359  0.00  0.00    +0.000 C 
ATOM     28  C   UNL     1      -0.947  13.900  23.149  0.00  0.00    +0.000 C 
ATOM     29  C   UNL     1      -2.546  13.227  21.369  0.00  0.00    +0.000 C 
ATOM     30  C   UNL     1      -2.177  11.712  23.316  0.00  0.00    +0.000 C 
ENDBRANCH  24  27
ENDBRANCH   8  23
TORSDOF 6
ENDMDL
MODEL 7
REMARK VINA RESULT:      -7.4      1.008      1.059
REMARK  Name = 
REMARK  10 active torsions:
REMARK  status: ('A' for Active; 'I' for Inactive)
REMARK    1  A    between atoms: C_1  and  C_2
REMARK    2  A    between atoms: C_7  and  C_8
REMARK    3  A    between atoms: N_10  and  N_11
REMARK    4  A    between atoms: N_11  and  C_12
REMARK    5  A    between atoms: C_12  and  C_13
REMARK    6  A    between atoms: C_20  and  N_21
REMARK    7  A    between atoms: C_22  and  C_24
REMARK    8  A    between atoms: C_24  and  C_25
REMARK    9  A    between atoms: C_24  and  C_26
REMARK   10  A    between atoms: C_24  and  C_27
REMARK                            x       y       z     vdW  Elec       q    Type
REMARK                         _______ _______ _______ _____ _____    ______ ____
ROOT
ATOM      1  C   UNL     1       4.774   2.058  19.123  0.00  0.00    +0.000 C 
ATOM      2  C   UNL     1       3.802   3.003  19.780  0.00  0.00    +0.000 A 
ATOM      3  C   UNL     1       2.930   2.451  20.744  0.00  0.00    +0.000 A 
ATOM      4  C   UNL     1       1.913   3.210  21.312  0.00  0.00    +0.000 A 
ATOM      5 CL   UNL     1       0.844   2.502  22.458  0.00  0.00    +0.000 Cl
ATOM      6  C   UNL     1       1.740   4.533  20.941  0.00  0.00    +0.000 A 
ATOM      7  C   UNL     1       2.605   5.117  20.002  0.00  0.00    +0.000 A 
ATOM      8  C   UNL     1       3.644   4.359  19.406  0.00  0.00    +0.000 A 
ENDROOT
BRANCH   7   9
ATOM      9  C   UNL     1       2.392   6.554  19.660  0.00  0.00    +0.000 C 
ATOM     10  O   UNL     1       2.575   6.960  18.514  0.00  0.00    +0.000 OA
ATOM     11  N   UNL     1       1.995   7.368  20.717  0.00  0.00    +0.000 N 
ATOM     12  H   UNL     1       2.113   7.057  21.681  0.00  0.00    +0.000 HD
BRANCH  11  13
ATOM     13  N   UNL     1       1.757   8.744  20.508  0.00  0.00    +0.000 NA
ATOM     14  H   UNL     1       1.954   8.938  19.521  0.00  0.00    +0.000 HD
BRANCH  13  15
ATOM     15  C   UNL     1       0.344   9.078  20.768  0.00  0.00    +0.000 C 
BRANCH  15  16
ATOM     16  C   UNL     1      -0.133  10.224  19.912  0.00  0.00    +0.000 A 
ATOM     17  C   UNL     1      -1.067  10.020  18.883  0.00  0.00    +0.000 A 
ATOM     18  C   UNL     1      -1.517  11.089  18.104  0.00  0.00    +0.000 A 
ATOM     19  C   UNL     1      -1.056  12.380  18.353  0.00  0.00    +0.000 A 
ATOM     20  C   UNL     1      -0.144  12.602  19.383  0.00  0.00    +0.000 A 
ATOM     21  C   UNL     1       0.307  11.531  20.151  0.00  0.00    +0.000 A 
ATOM     22  F   UNL     1       1.173  11.778  21.146  0.00  0.00    +0.000 F 
ENDBRANCH  15  16
ENDBRANCH  13  15
ENDBRANCH  11  13
ENDBRANCH   7   9
BRANCH   8  23
ATOM     23  N   UNL     1       4.422   4.950  18.372  0.00  0.00    +0.000 N 
ATOM     24  C   UNL     1       5.732   5.382  18.533  0.00  0.00    +0.000 C 
ATOM     25  O   UNL     1       6.338   5.330  19.603  0.00  0.00    +0.000 OA
ATOM     26  H   UNL     1       3.876   5.526  17.727  0.00  0.00    +0.000 HD
BRANCH  24  27
ATOM     27  C   UNL     1       6.388   5.964  17.252  0.00  0.00    +0.000 C 
ATOM     28  C   UNL     1       7.096   4.875  16.431  0.00  0.00    +0.000 C 
ATOM     29  C   UNL     1       5.316   6.608  16.349  0.00  0.00    +0.000 C 
ATOM     30  C   UNL     1       7.395   7.054  17.652  0.00  0.00    +0.000 C 
ENDBRANCH  24  27
ENDBRANCH   8  23
TORSDOF 6
ENDMDL
MODEL 8
REMARK VINA RESULT:      -7.3      5.419      8.272
REMARK  Name = 
REMARK  10 active torsions:
REMARK  status: ('A' for Active; 'I' for Inactive)
REMARK    1  A    between atoms: C_1  and  C_2
REMARK    2  A    between atoms: C_7  and  C_8
REMARK    3  A    between atoms: N_10  and  N_11
REMARK    4  A    between atoms: N_11  and  C_12
REMARK    5  A    between atoms: C_12  and  C_13
REMARK    6  A    between atoms: C_20  and  N_21
REMARK    7  A    between atoms: C_22  and  C_24
REMARK    8  A    between atoms: C_24  and  C_25
REMARK    9  A    between atoms: C_24  and  C_26
REMARK   10  A    between atoms: C_24  and  C_27
REMARK                            x       y       z     vdW  Elec       q    Type
REMARK                         _______ _______ _______ _____ _____    ______ ____
ROOT
ATOM      1  C   UNL     1       0.183   9.320  22.902  0.00  0.00    +0.000 C 
ATOM      2  C   UNL     1       0.255   9.432  21.401  0.00  0.00    +0.000 A 
ATOM      3  C   UNL     1       1.207   8.620  20.747  0.00  0.00    +0.000 A 
ATOM      4  C   UNL     1       1.441   8.743  19.383  0.00  0.00    +0.000 A 
ATOM      5 CL   UNL     1       2.630   7.764  18.618  0.00  0.00    +0.000 Cl
ATOM      6  C   UNL     1       0.735   9.672  18.634  0.00  0.00    +0.000 A 
ATOM      7  C   UNL     1      -0.233  10.479  19.252  0.00  0.00    +0.000 A 
ATOM      8  C   UNL     1      -0.483  10.373  20.644  0.00  0.00    +0.000 A 
ENDROOT
BRANCH   7   9
ATOM      9  C   UNL     1      -0.986  11.441  18.395  0.00  0.00    +0.000 C 
ATOM     10  O   UNL     1      -1.084  12.624  18.717  0.00  0.00    +0.000 OA
ATOM     11  N   UNL     1      -1.557  10.900  17.246  0.00  0.00    +0.000 N 
ATOM     12  H   UNL     1      -1.679   9.892  17.157  0.00  0.00    +0.000 HD
BRANCH  11  13
ATOM     13  N   UNL     1      -2.285  11.720  16.357  0.00  0.00    +0.000 NA
ATOM     14  H   UNL     1      -1.695  11.869  15.532  0.00  0.00    +0.000 HD
BRANCH  13  15
ATOM     15  C   UNL     1      -3.524  11.051  15.921  0.00  0.00    +0.000 C 
BRANCH  15  16
ATOM     16  C   UNL     1      -4.670  11.308  16.866  0.00  0.00    +0.000 A 
ATOM     17  C   UNL     1      -5.508  12.423  16.701  0.00  0.00    +0.000 A 
ATOM     18  C   UNL     1      -6.579  12.648  17.572  0.00  0.00    +0.000 A 
ATOM     19  C   UNL     1      -6.837  11.753  18.609  0.00  0.00    +0.000 A 
ATOM     20  C   UNL     1      -6.027  10.632  18.774  0.00  0.00    +0.000 A 
ATOM     21  C   UNL     1      -4.957  10.418  17.907  0.00  0.00    +0.000 A 
ATOM     22  F   UNL     1      -4.203   9.322  18.081  0.00  0.00    +0.000 F 
ENDBRANCH  15  16
ENDBRANCH  13  15
ENDBRANCH  11  13
ENDBRANCH   7   9
BRANCH   8  23
ATOM     23  N   UNL     1      -1.384  11.290  21.253  0.00  0.00    +0.000 N 
ATOM     24  C   UNL     1      -0.990  12.444  21.918  0.00  0.00    +0.000 C 
ATOM     25  O   UNL     1       0.186  12.768  22.079  0.00  0.00    +0.000 OA
ATOM     26  H   UNL     1      -2.210  10.845  21.658  0.00  0.00    +0.000 HD
BRANCH  24  27
ATOM     27  C   UNL     1      -2.157  13.306  22.472  0.00  0.00    +0.000 C 
ATOM     28  C   UNL     1      -3.107  13.762  21.354  0.00  0.00    +0.000 C 
ATOM     29  C   UNL     1      -2.985  12.494  23.488  0.00  0.00    +0.000 C 
ATOM     30  C   UNL     1      -1.577  14.532  23.196  0.00  0.00    +0.000 C 
ENDBRANCH  24  27
ENDBRANCH   8  23
TORSDOF 6
ENDMDL
MODEL 9
REMARK VINA RESULT:      -7.2      5.812      8.613
REMARK  Name = 
REMARK  10 active torsions:
REMARK  status: ('A' for Active; 'I' for Inactive)
REMARK    1  A    between atoms: C_1  and  C_2
REMARK    2  A    between atoms: C_7  and  C_8
REMARK    3  A    between atoms: N_10  and  N_11
REMARK    4  A    between atoms: N_11  and  C_12
REMARK    5  A    between atoms: C_12  and  C_13
REMARK    6  A    between atoms: C_20  and  N_21
REMARK    7  A    between atoms: C_22  and  C_24
REMARK    8  A    between atoms: C_24  and  C_25
REMARK    9  A    between atoms: C_24  and  C_26
REMARK   10  A    between atoms: C_24  and  C_27
REMARK                            x       y       z     vdW  Elec       q    Type
REMARK                         _______ _______ _______ _____ _____    ______ ____
ROOT
ATOM      1  C   UNL     1       0.068   9.631  23.395  0.00  0.00    +0.000 C 
ATOM      2  C   UNL     1       0.026   9.712  21.891  0.00  0.00    +0.000 A 
ATOM      3  C   UNL     1       0.935   8.896  21.183  0.00  0.00    +0.000 A 
ATOM      4  C   UNL     1       1.064   8.994  19.802  0.00  0.00    +0.000 A 
ATOM      5 CL   UNL     1       2.205   8.012  18.970  0.00  0.00    +0.000 Cl
ATOM      6  C   UNL     1       0.293   9.899  19.091  0.00  0.00    +0.000 A 
ATOM      7  C   UNL     1      -0.636  10.708  19.764  0.00  0.00    +0.000 A 
ATOM      8  C   UNL     1      -0.778  10.629  21.173  0.00  0.00    +0.000 A 
ENDROOT
BRANCH   7   9
ATOM      9  C   UNL     1      -1.463  11.644  18.947  0.00  0.00    +0.000 C 
ATOM     10  O   UNL     1      -1.136  12.823  18.822  0.00  0.00    +0.000 OA
ATOM     11  N   UNL     1      -2.601  11.089  18.370  0.00  0.00    +0.000 N 
ATOM     12  H   UNL     1      -2.972  10.202  18.709  0.00  0.00    +0.000 HD
BRANCH  11  13
ATOM     13  N   UNL     1      -3.453  11.881  17.569  0.00  0.00    +0.000 NA
ATOM     14  H   UNL     1      -3.085  11.848  16.613  0.00  0.00    +0.000 HD
BRANCH  13  15
ATOM     15  C   UNL     1      -4.821  11.330  17.553  0.00  0.00    +0.000 C 
BRANCH  15  16
ATOM     16  C   UNL     1      -5.564  11.620  18.833  0.00  0.00    +0.000 A 
ATOM     17  C   UNL     1      -5.285  12.772  19.586  0.00  0.00    +0.000 A 
ATOM     18  C   UNL     1      -5.988  13.043  20.763  0.00  0.00    +0.000 A 
ATOM     19  C   UNL     1      -6.991  12.178  21.195  0.00  0.00    +0.000 A 
ATOM     20  C   UNL     1      -7.293  11.041  20.448  0.00  0.00    +0.000 A 
ATOM     21  C   UNL     1      -6.583  10.772  19.279  0.00  0.00    +0.000 A 
ATOM     22  F   UNL     1      -6.906   9.678  18.573  0.00  0.00    +0.000 F 
ENDBRANCH  15  16
ENDBRANCH  13  15
ENDBRANCH  11  13
ENDBRANCH   7   9
BRANCH   8  23
ATOM     23  N   UNL     1      -1.642  11.549  21.830  0.00  0.00    +0.000 N 
ATOM     24  C   UNL     1      -1.225  12.756  22.374  0.00  0.00    +0.000 C 
ATOM     25  O   UNL     1      -0.053  13.133  22.376  0.00  0.00    +0.000 OA
ATOM     26  H   UNL     1      -2.396  11.100  22.355  0.00  0.00    +0.000 HD
BRANCH  24  27
ATOM     27  C   UNL     1      -2.356  13.608  23.012  0.00  0.00    +0.000 C 
ATOM     28  C   UNL     1      -3.501  12.729  23.538  0.00  0.00    +0.000 C 
ATOM     29  C   UNL     1      -1.806  14.422  24.200  0.00  0.00    +0.000 C 
ATOM     30  C   UNL     1      -2.895  14.595  21.964  0.00  0.00    +0.000 C 
ENDBRANCH  24  27
ENDBRANCH   8  23
TORSDOF 6
ENDMDL
