MODEL 1
REMARK VINA RESULT:      -6.4      0.000      0.000
REMARK  Name = 
REMARK  13 active torsions:
REMARK  status: ('A' for Active; 'I' for Inactive)
REMARK    1  A    between atoms: C_1  and  C_2
REMARK    2  A    between atoms: C_2  and  C_3
REMARK    3  A    between atoms: C_3  and  C_4
REMARK    4  A    between atoms: C_4  and  O_5
REMARK    5  A    between atoms: O_5  and  C_6
REMARK    6  A    between atoms: C_6  and  C_7
REMARK    7  A    between atoms: C_7  and  C_8
REMARK    8  A    between atoms: C_8  and  N_9
REMARK    9  A    between atoms: N_9  and  C_10
REMARK   10  A    between atoms: C_10  and  C_11
REMARK   11  A    between atoms: N_15  and  C_16
REMARK   12  A    between atoms: C_16  and  C_17
REMARK   13  A    between atoms: C_17  and  N_18
REMARK                            x       y       z     vdW  Elec       q    Type
REMARK                         _______ _______ _______ _____ _____    ______ ____
ROOT
ATOM      1  C   UNL     1       1.951   4.703  19.441  0.00  0.00    +0.000 A 
ATOM      2  C   UNL     1       1.325   4.167  20.556  0.00  0.00    +0.000 A 
ATOM      3  C   UNL     1       1.155   2.786  20.342  0.00  0.00    +0.000 A 
ATOM      4  C   UNL     1       1.700   2.496  19.118  0.00  0.00    +0.000 A 
ATOM      5  N   UNL     1       2.209   3.655  18.570  0.00  0.00    +0.000 N 
ENDROOT
BRANCH   1   6
ATOM      6  C   UNL     1       2.289   6.135  19.192  0.00  0.00    +0.000 C 
BRANCH   6   7
ATOM      7  N   UNL     1       2.124   6.894  20.420  0.00  0.00    +0.000 NA
ATOM      8  H   UNL     1       1.419   6.437  21.000  0.00  0.00    +0.000 HD
BRANCH   7   9
ATOM      9  C   UNL     1       1.732   8.280  20.163  0.00  0.00    +0.000 C 
BRANCH   9  10
ATOM     10  C   UNL     1       1.696   8.529  18.655  0.00  0.00    +0.000 C 
BRANCH  10  11
ATOM     11  C   UNL     1       0.942   9.817  18.340  0.00  0.00    +0.000 C 
BRANCH  11  12
ATOM     12  O   UNL     1      -0.204   9.955  19.182  0.00  0.00    +0.000 OA
BRANCH  12  13
ATOM     13  C   UNL     1      -1.247  10.612  18.457  0.00  0.00    +0.000 C 
BRANCH  13  14
ATOM     14  C   UNL     1      -1.615   9.842  17.195  0.00  0.00    +0.000 C 
BRANCH  14  16
ATOM     15  C   UNL     1      -2.985  10.173  15.041  0.00  0.00    +0.000 C 
ATOM     16  C   UNL     1      -2.941  10.268  16.557  0.00  0.00    +0.000 C 
ENDBRANCH  14  16
ENDBRANCH  13  14
ENDBRANCH  12  13
ENDBRANCH  11  12
ENDBRANCH  10  11
ENDBRANCH   9  10
ENDBRANCH   7   9
ENDBRANCH   6   7
ENDBRANCH   1   6
BRANCH   5  17
ATOM     17  C   UNL     1       2.968   3.735  17.315  0.00  0.00    +0.000 C 
BRANCH  17  18
ATOM     18  C   UNL     1       4.493   3.883  17.502  0.00  0.00    +0.000 C 
BRANCH  18  19
ATOM     19  N   UNL     1       5.105   5.150  17.049  0.00  0.00    +0.000 NA
ATOM     20  C   UNL     1       5.472   5.179  15.618  0.00  0.00    +0.000 C 
ATOM     21  C   UNL     1       6.685   4.304  15.255  0.00  0.00    +0.000 C 
ATOM     22  O   UNL     1       7.830   4.619  16.060  0.00  0.00    +0.000 OA
ATOM     23  C   UNL     1       7.524   4.514  17.455  0.00  0.00    +0.000 C 
ATOM     24  C   UNL     1       6.342   5.427  17.830  0.00  0.00    +0.000 C 
ENDBRANCH  18  19
ENDBRANCH  17  18
ENDBRANCH   5  17
TORSDOF 12
ENDMDL
MODEL 2
REMARK VINA RESULT:      -6.3      3.538      7.584
REMARK  Name = 
REMARK  13 active torsions:
REMARK  status: ('A' for Active; 'I' for Inactive)
REMARK    1  A    between atoms: C_1  and  C_2
REMARK    2  A    between atoms: C_2  and  C_3
REMARK    3  A    between atoms: C_3  and  C_4
REMARK    4  A    between atoms: C_4  and  O_5
REMARK    5  A    between atoms: O_5  and  C_6
REMARK    6  A    between atoms: C_6  and  C_7
REMARK    7  A    between atoms: C_7  and  C_8
REMARK    8  A    between atoms: C_8  and  N_9
REMARK    9  A    between atoms: N_9  and  C_10
REMARK   10  A    between atoms: C_10  and  C_11
REMARK   11  A    between atoms: N_15  and  C_16
REMARK   12  A    between atoms: C_16  and  C_17
REMARK   13  A    between atoms: C_17  and  N_18
REMARK                            x       y       z     vdW  Elec       q    Type
REMARK                         _______ _______ _______ _____ _____    ______ ____
ROOT
ATOM      1  C   UNL     1       4.930   6.004  17.074  0.00  0.00    +0.000 A 
ATOM      2  C   UNL     1       4.479   7.312  17.174  0.00  0.00    +0.000 A 
ATOM      3  C   UNL     1       3.206   7.292  17.775  0.00  0.00    +0.000 A 
ATOM      4  C   UNL     1       2.911   5.984  18.056  0.00  0.00    +0.000 A 
ATOM      5  N   UNL     1       3.966   5.191  17.654  0.00  0.00    +0.000 N 
ENDROOT
BRANCH   1   6
ATOM      6  C   UNL     1       6.202   5.529  16.458  0.00  0.00    +0.000 C 
BRANCH   6   7
ATOM      7  N   UNL     1       6.092   5.583  15.010  0.00  0.00    +0.000 NA
ATOM      8  H   UNL     1       5.107   5.508  14.750  0.00  0.00    +0.000 HD
BRANCH   7   9
ATOM      9  C   UNL     1       6.860   4.524  14.357  0.00  0.00    +0.000 C 
BRANCH   9  10
ATOM     10  C   UNL     1       7.459   5.057  13.054  0.00  0.00    +0.000 C 
BRANCH  10  11
ATOM     11  C   UNL     1       7.054   4.177  11.877  0.00  0.00    +0.000 C 
BRANCH  11  12
ATOM     12  O   UNL     1       6.558   2.916  12.329  0.00  0.00    +0.000 OA
BRANCH  12  13
ATOM     13  C   UNL     1       5.486   2.497  11.481  0.00  0.00    +0.000 C 
BRANCH  13  14
ATOM     14  C   UNL     1       4.258   3.380  11.663  0.00  0.00    +0.000 C 
BRANCH  14  16
ATOM     15  C   UNL     1       3.105   4.159   9.497  0.00  0.00    +0.000 C 
ATOM     16  C   UNL     1       3.151   3.148  10.630  0.00  0.00    +0.000 C 
ENDBRANCH  14  16
ENDBRANCH  13  14
ENDBRANCH  12  13
ENDBRANCH  11  12
ENDBRANCH  10  11
ENDBRANCH   9  10
ENDBRANCH   7   9
ENDBRANCH   6   7
ENDBRANCH   1   6
BRANCH   5  17
ATOM     17  C   UNL     1       4.073   3.744  17.883  0.00  0.00    +0.000 C 
BRANCH  17  18
ATOM     18  C   UNL     1       4.202   3.344  19.367  0.00  0.00    +0.000 C 
BRANCH  18  19
ATOM     19  N   UNL     1       3.263   2.318  19.870  0.00  0.00    +0.000 NA
ATOM     20  C   UNL     1       2.062   2.119  19.032  0.00  0.00    +0.000 C 
ATOM     21  C   UNL     1       1.047   3.274  19.092  0.00  0.00    +0.000 C 
ATOM     22  O   UNL     1       0.658   3.573  20.440  0.00  0.00    +0.000 OA
ATOM     23  C   UNL     1       1.802   3.856  21.255  0.00  0.00    +0.000 C 
ATOM     24  C   UNL     1       2.795   2.679  21.237  0.00  0.00    +0.000 C 
ENDBRANCH  18  19
ENDBRANCH  17  18
ENDBRANCH   5  17
TORSDOF 12
ENDMDL
MODEL 3
REMARK VINA RESULT:      -6.1      1.025      1.373
REMARK  Name = 
REMARK  13 active torsions:
REMARK  status: ('A' for Active; 'I' for Inactive)
REMARK    1  A    between atoms: C_1  and  C_2
REMARK    2  A    between atoms: C_2  and  C_3
REMARK    3  A    between atoms: C_3  and  C_4
REMARK    4  A    between atoms: C_4  and  O_5
REMARK    5  A    between atoms: O_5  and  C_6
REMARK    6  A    between atoms: C_6  and  C_7
REMARK    7  A    between atoms: C_7  and  C_8
REMARK    8  A    between atoms: C_8  and  N_9
REMARK    9  A    between atoms: N_9  and  C_10
REMARK   10  A    between atoms: C_10  and  C_11
REMARK   11  A    between atoms: N_15  and  C_16
REMARK   12  A    between atoms: C_16  and  C_17
REMARK   13  A    between atoms: C_17  and  N_18
REMARK                            x       y       z     vdW  Elec       q    Type
REMARK                         _______ _______ _______ _____ _____    ______ ____
ROOT
ATOM      1  C   UNL     1       1.971   4.742  19.647  0.00  0.00    +0.000 A 
ATOM      2  C   UNL     1       1.116   4.028  20.473  0.00  0.00    +0.000 A 
ATOM      3  C   UNL     1       0.764   2.835  19.814  0.00  0.00    +0.000 A 
ATOM      4  C   UNL     1       1.426   2.825  18.614  0.00  0.00    +0.000 A 
ATOM      5  N   UNL     1       2.183   3.973  18.512  0.00  0.00    +0.000 N 
ENDROOT
BRANCH   1   6
ATOM      6  C   UNL     1       2.561   6.089  19.900  0.00  0.00    +0.000 C 
BRANCH   6   7
ATOM      7  N   UNL     1       1.746   6.803  20.868  0.00  0.00    +0.000 NA
ATOM      8  H   UNL     1       0.834   6.348  20.933  0.00  0.00    +0.000 HD
BRANCH   7   9
ATOM      9  C   UNL     1       1.574   8.211  20.513  0.00  0.00    +0.000 C 
BRANCH   9  10
ATOM     10  C   UNL     1       0.421   8.804  21.324  0.00  0.00    +0.000 C 
BRANCH  10  11
ATOM     11  C   UNL     1      -0.357   9.817  20.492  0.00  0.00    +0.000 C 
BRANCH  11  12
ATOM     12  O   UNL     1       0.490  10.440  19.525  0.00  0.00    +0.000 OA
BRANCH  12  13
ATOM     13  C   UNL     1      -0.093  10.305  18.227  0.00  0.00    +0.000 C 
BRANCH  13  14
ATOM     14  C   UNL     1      -1.598  10.540  18.268  0.00  0.00    +0.000 C 
BRANCH  14  16
ATOM     15  C   UNL     1      -2.854  10.666  16.024  0.00  0.00    +0.000 C 
ATOM     16  C   UNL     1      -2.386   9.800  17.182  0.00  0.00    +0.000 C 
ENDBRANCH  14  16
ENDBRANCH  13  14
ENDBRANCH  12  13
ENDBRANCH  11  12
ENDBRANCH  10  11
ENDBRANCH   9  10
ENDBRANCH   7   9
ENDBRANCH   6   7
ENDBRANCH   1   6
BRANCH   5  17
ATOM     17  C   UNL     1       3.117   4.277  17.418  0.00  0.00    +0.000 C 
BRANCH  17  18
ATOM     18  C   UNL     1       4.576   3.857  17.694  0.00  0.00    +0.000 C 
BRANCH  18  19
ATOM     19  N   UNL     1       5.552   4.940  17.935  0.00  0.00    +0.000 NA
ATOM     20  C   UNL     1       5.178   6.246  17.355  0.00  0.00    +0.000 C 
ATOM     21  C   UNL     1       5.278   6.313  15.821  0.00  0.00    +0.000 C 
ATOM     22  O   UNL     1       6.578   5.925  15.354  0.00  0.00    +0.000 OA
ATOM     23  C   UNL     1       6.929   4.621  15.833  0.00  0.00    +0.000 C 
ATOM     24  C   UNL     1       6.879   4.568  17.370  0.00  0.00    +0.000 C 
ENDBRANCH  18  19
ENDBRANCH  17  18
ENDBRANCH   5  17
TORSDOF 12
ENDMDL
MODEL 4
REMARK VINA RESULT:      -6.0      2.121      3.093
REMARK  Name = 
REMARK  13 active torsions:
REMARK  status: ('A' for Active; 'I' for Inactive)
REMARK    1  A    between atoms: C_1  and  C_2
REMARK    2  A    between atoms: C_2  and  C_3
REMARK    3  A    between atoms: C_3  and  C_4
REMARK    4  A    between atoms: C_4  and  O_5
REMARK    5  A    between atoms: O_5  and  C_6
REMARK    6  A    between atoms: C_6  and  C_7
REMARK    7  A    between atoms: C_7  and  C_8
REMARK    8  A    between atoms: C_8  and  N_9
REMARK    9  A    between atoms: N_9  and  C_10
REMARK   10  A    between atoms: C_10  and  C_11
REMARK   11  A    between atoms: N_15  and  C_16
REMARK   12  A    between atoms: C_16  and  C_17
REMARK   13  A    between atoms: C_17  and  N_18
REMARK                            x       y       z     vdW  Elec       q    Type
REMARK                         _______ _______ _______ _____ _____    ______ ____
ROOT
ATOM      1  C   UNL     1       2.649   5.543  19.577  0.00  0.00    +0.000 A 
ATOM      2  C   UNL     1       1.560   5.378  20.420  0.00  0.00    +0.000 A 
ATOM      3  C   UNL     1       1.617   4.080  20.962  0.00  0.00    +0.000 A 
ATOM      4  C   UNL     1       2.747   3.484  20.467  0.00  0.00    +0.000 A 
ATOM      5  N   UNL     1       3.397   4.376  19.639  0.00  0.00    +0.000 N 
ENDROOT
BRANCH   1   6
ATOM      6  C   UNL     1       2.976   6.735  18.742  0.00  0.00    +0.000 C 
BRANCH   6   7
ATOM      7  N   UNL     1       2.084   7.829  19.085  0.00  0.00    +0.000 NA
ATOM      8  H   UNL     1       1.176   7.445  19.351  0.00  0.00    +0.000 HD
BRANCH   7   9
ATOM      9  C   UNL     1       1.918   8.773  17.980  0.00  0.00    +0.000 C 
BRANCH   9  10
ATOM     10  C   UNL     1       0.761   9.724  18.290  0.00  0.00    +0.000 C 
BRANCH  10  11
ATOM     11  C   UNL     1       1.283  11.031  18.876  0.00  0.00    +0.000 C 
BRANCH  11  12
ATOM     12  O   UNL     1       0.236  11.749  19.531  0.00  0.00    +0.000 OA
BRANCH  12  13
ATOM     13  C   UNL     1      -0.547  10.841  20.310  0.00  0.00    +0.000 C 
BRANCH  13  14
ATOM     14  C   UNL     1      -0.278  11.013  21.800  0.00  0.00    +0.000 C 
BRANCH  14  16
ATOM     15  C   UNL     1      -0.287   8.439  21.770  0.00  0.00    +0.000 C 
ATOM     16  C   UNL     1      -0.302   9.709  22.603  0.00  0.00    +0.000 C 
ENDBRANCH  14  16
ENDBRANCH  13  14
ENDBRANCH  12  13
ENDBRANCH  11  12
ENDBRANCH  10  11
ENDBRANCH   9  10
ENDBRANCH   7   9
ENDBRANCH   6   7
ENDBRANCH   1   6
BRANCH   5  17
ATOM     17  C   UNL     1       4.701   4.145  19.004  0.00  0.00    +0.000 C 
BRANCH  17  18
ATOM     18  C   UNL     1       5.757   5.228  19.310  0.00  0.00    +0.000 C 
BRANCH  18  19
ATOM     19  N   UNL     1       7.126   4.994  18.802  0.00  0.00    +0.000 NA
ATOM     20  C   UNL     1       8.013   6.175  18.858  0.00  0.00    +0.000 C 
ATOM     21  C   UNL     1       7.673   7.274  17.835  0.00  0.00    +0.000 C 
ATOM     22  O   UNL     1       7.626   6.760  16.496  0.00  0.00    +0.000 OA
ATOM     23  C   UNL     1       6.706   5.667  16.396  0.00  0.00    +0.000 C 
ATOM     24  C   UNL     1       7.075   4.545  17.384  0.00  0.00    +0.000 C 
ENDBRANCH  18  19
ENDBRANCH  17  18
ENDBRANCH   5  17
TORSDOF 12
ENDMDL
MODEL 5
REMARK VINA RESULT:      -6.0      0.973      1.179
REMARK  Name = 
REMARK  13 active torsions:
REMARK  status: ('A' for Active; 'I' for Inactive)
REMARK    1  A    between atoms: C_1  and  C_2
REMARK    2  A    between atoms: C_2  and  C_3
REMARK    3  A    between atoms: C_3  and  C_4
REMARK    4  A    between atoms: C_4  and  O_5
REMARK    5  A    between atoms: O_5  and  C_6
REMARK    6  A    between atoms: C_6  and  C_7
REMARK    7  A    between atoms: C_7  and  C_8
REMARK    8  A    between atoms: C_8  and  N_9
REMARK    9  A    between atoms: N_9  and  C_10
REMARK   10  A    between atoms: C_10  and  C_11
REMARK   11  A    between atoms: N_15  and  C_16
REMARK   12  A    between atoms: C_16  and  C_17
REMARK   13  A    between atoms: C_17  and  N_18
REMARK                            x       y       z     vdW  Elec       q    Type
REMARK                         _______ _______ _______ _____ _____    ______ ____
ROOT
ATOM      1  C   UNL     1       2.153   5.078  19.647  0.00  0.00    +0.000 A 
ATOM      2  C   UNL     1       1.272   4.469  20.528  0.00  0.00    +0.000 A 
ATOM      3  C   UNL     1       0.867   3.243  19.965  0.00  0.00    +0.000 A 
ATOM      4  C   UNL     1       1.523   3.110  18.769  0.00  0.00    +0.000 A 
ATOM      5  N   UNL     1       2.328   4.213  18.576  0.00  0.00    +0.000 N 
ENDROOT
BRANCH   1   6
ATOM      6  C   UNL     1       2.801   6.414  19.792  0.00  0.00    +0.000 C 
BRANCH   6   7
ATOM      7  N   UNL     1       1.953   7.433  19.195  0.00  0.00    +0.000 NA
ATOM      8  H   UNL     1       1.091   6.995  18.866  0.00  0.00    +0.000 HD
BRANCH   7   9
ATOM      9  C   UNL     1       2.614   8.122  18.087  0.00  0.00    +0.000 C 
BRANCH   9  10
ATOM     10  C   UNL     1       1.826   9.383  17.729  0.00  0.00    +0.000 C 
BRANCH  10  11
ATOM     11  C   UNL     1       0.836   9.731  18.835  0.00  0.00    +0.000 C 
BRANCH  11  12
ATOM     12  O   UNL     1      -0.172  10.622  18.355  0.00  0.00    +0.000 OA
BRANCH  12  13
ATOM     13  C   UNL     1      -1.434  10.258  18.918  0.00  0.00    +0.000 C 
BRANCH  13  14
ATOM     14  C   UNL     1      -2.473  10.004  17.833  0.00  0.00    +0.000 C 
BRANCH  14  16
ATOM     15  C   UNL     1      -2.792  10.410  15.311  0.00  0.00    +0.000 C 
ATOM     16  C   UNL     1      -2.424  10.993  16.664  0.00  0.00    +0.000 C 
ENDBRANCH  14  16
ENDBRANCH  13  14
ENDBRANCH  12  13
ENDBRANCH  11  12
ENDBRANCH  10  11
ENDBRANCH   9  10
ENDBRANCH   7   9
ENDBRANCH   6   7
ENDBRANCH   1   6
BRANCH   5  17
ATOM     17  C   UNL     1       3.270   4.390  17.461  0.00  0.00    +0.000 C 
BRANCH  17  18
ATOM     18  C   UNL     1       4.724   3.993  17.789  0.00  0.00    +0.000 C 
BRANCH  18  19
ATOM     19  N   UNL     1       5.728   5.078  17.807  0.00  0.00    +0.000 NA
ATOM     20  C   UNL     1       5.364   6.267  17.008  0.00  0.00    +0.000 C 
ATOM     21  C   UNL     1       5.422   6.052  15.485  0.00  0.00    +0.000 C 
ATOM     22  O   UNL     1       6.700   5.554  15.066  0.00  0.00    +0.000 OA
ATOM     23  C   UNL     1       7.039   4.350  15.764  0.00  0.00    +0.000 C 
ATOM     24  C   UNL     1       7.031   4.577  17.287  0.00  0.00    +0.000 C 
ENDBRANCH  18  19
ENDBRANCH  17  18
ENDBRANCH   5  17
TORSDOF 12
ENDMDL
MODEL 6
REMARK VINA RESULT:      -6.0      1.020      1.167
REMARK  Name = 
REMARK  13 active torsions:
REMARK  status: ('A' for Active; 'I' for Inactive)
REMARK    1  A    between atoms: C_1  and  C_2
REMARK    2  A    between atoms: C_2  and  C_3
REMARK    3  A    between atoms: C_3  and  C_4
REMARK    4  A    between atoms: C_4  and  O_5
REMARK    5  A    between atoms: O_5  and  C_6
REMARK    6  A    between atoms: C_6  and  C_7
REMARK    7  A    between atoms: C_7  and  C_8
REMARK    8  A    between atoms: C_8  and  N_9
REMARK    9  A    between atoms: N_9  and  C_10
REMARK   10  A    between atoms: C_10  and  C_11
REMARK   11  A    between atoms: N_15  and  C_16
REMARK   12  A    between atoms: C_16  and  C_17
REMARK   13  A    between atoms: C_17  and  N_18
REMARK                            x       y       z     vdW  Elec       q    Type
REMARK                         _______ _______ _______ _____ _____    ______ ____
ROOT
ATOM      1  C   UNL     1       2.064   4.528  19.558  0.00  0.00    +0.000 A 
ATOM      2  C   UNL     1       1.025   4.147  20.394  0.00  0.00    +0.000 A 
ATOM      3  C   UNL     1       1.481   3.092  21.207  0.00  0.00    +0.000 A 
ATOM      4  C   UNL     1       2.792   2.864  20.878  0.00  0.00    +0.000 A 
ATOM      5  N   UNL     1       3.164   3.751  19.889  0.00  0.00    +0.000 N 
ENDROOT
BRANCH   1   6
ATOM      6  C   UNL     1       2.032   5.569  18.490  0.00  0.00    +0.000 C 
BRANCH   6   7
ATOM      7  N   UNL     1       2.288   6.874  19.074  0.00  0.00    +0.000 NA
ATOM      8  H   UNL     1       1.418   7.238  19.467  0.00  0.00    +0.000 HD
BRANCH   7   9
ATOM      9  C   UNL     1       2.825   7.821  18.097  0.00  0.00    +0.000 C 
BRANCH   9  10
ATOM     10  C   UNL     1       1.741   8.830  17.716  0.00  0.00    +0.000 C 
BRANCH  10  11
ATOM     11  C   UNL     1       1.486   9.804  18.861  0.00  0.00    +0.000 C 
BRANCH  11  12
ATOM     12  O   UNL     1       0.280   9.474  19.553  0.00  0.00    +0.000 OA
BRANCH  12  13
ATOM     13  C   UNL     1      -0.685  10.507  19.342  0.00  0.00    +0.000 C 
BRANCH  13  14
ATOM     14  C   UNL     1      -1.736  10.083  18.323  0.00  0.00    +0.000 C 
BRANCH  14  16
ATOM     15  C   UNL     1      -2.697  10.542  15.980  0.00  0.00    +0.000 C 
ATOM     16  C   UNL     1      -1.968  11.092  17.194  0.00  0.00    +0.000 C 
ENDBRANCH  14  16
ENDBRANCH  13  14
ENDBRANCH  12  13
ENDBRANCH  11  12
ENDBRANCH  10  11
ENDBRANCH   9  10
ENDBRANCH   7   9
ENDBRANCH   6   7
ENDBRANCH   1   6
BRANCH   5  17
ATOM     17  C   UNL     1       4.522   3.892  19.346  0.00  0.00    +0.000 C 
BRANCH  17  18
ATOM     18  C   UNL     1       4.600   3.836  17.806  0.00  0.00    +0.000 C 
BRANCH  18  19
ATOM     19  N   UNL     1       5.089   5.047  17.114  0.00  0.00    +0.000 NA
ATOM     20  C   UNL     1       5.428   4.847  15.689  0.00  0.00    +0.000 C 
ATOM     21  C   UNL     1       6.708   4.028  15.449  0.00  0.00    +0.000 C 
ATOM     22  O   UNL     1       7.833   4.581  16.147  0.00  0.00    +0.000 OA
ATOM     23  C   UNL     1       7.561   4.705  17.548  0.00  0.00    +0.000 C 
ATOM     24  C   UNL     1       6.309   5.567  17.791  0.00  0.00    +0.000 C 
ENDBRANCH  18  19
ENDBRANCH  17  18
ENDBRANCH   5  17
TORSDOF 12
ENDMDL
MODEL 7
REMARK VINA RESULT:      -6.0      4.504      7.500
REMARK  Name = 
REMARK  13 active torsions:
REMARK  status: ('A' for Active; 'I' for Inactive)
REMARK    1  A    between atoms: C_1  and  C_2
REMARK    2  A    between atoms: C_2  and  C_3
REMARK    3  A    between atoms: C_3  and  C_4
REMARK    4  A    between atoms: C_4  and  O_5
REMARK    5  A    between atoms: O_5  and  C_6
REMARK    6  A    between atoms: C_6  and  C_7
REMARK    7  A    between atoms: C_7  and  C_8
REMARK    8  A    between atoms: C_8  and  N_9
REMARK    9  A    between atoms: N_9  and  C_10
REMARK   10  A    between atoms: C_10  and  C_11
REMARK   11  A    between atoms: N_15  and  C_16
REMARK   12  A    between atoms: C_16  and  C_17
REMARK   13  A    between atoms: C_17  and  N_18
REMARK                            x       y       z     vdW  Elec       q    Type
REMARK                         _______ _______ _______ _____ _____    ______ ____
ROOT
ATOM      1  C   UNL     1       6.283   6.307  17.229  0.00  0.00    +0.000 A 
ATOM      2  C   UNL     1       7.356   7.168  17.408  0.00  0.00    +0.000 A 
ATOM      3  C   UNL     1       8.011   6.810  18.601  0.00  0.00    +0.000 A 
ATOM      4  C   UNL     1       7.350   5.725  19.116  0.00  0.00    +0.000 A 
ATOM      5  N   UNL     1       6.308   5.396  18.274  0.00  0.00    +0.000 N 
ENDROOT
BRANCH   1   6
ATOM      6  C   UNL     1       5.272   6.336  16.132  0.00  0.00    +0.000 C 
BRANCH   6   7
ATOM      7  N   UNL     1       5.921   6.055  14.863  0.00  0.00    +0.000 NA
ATOM      8  H   UNL     1       5.205   5.877  14.158  0.00  0.00    +0.000 HD
BRANCH   7   9
ATOM      9  C   UNL     1       6.829   4.911  14.948  0.00  0.00    +0.000 C 
BRANCH   9  10
ATOM     10  C   UNL     1       6.072   3.632  14.588  0.00  0.00    +0.000 C 
BRANCH  10  11
ATOM     11  C   UNL     1       6.456   3.155  13.191  0.00  0.00    +0.000 C 
BRANCH  11  12
ATOM     12  O   UNL     1       6.045   4.098  12.200  0.00  0.00    +0.000 OA
BRANCH  12  13
ATOM     13  C   UNL     1       4.631   4.005  12.016  0.00  0.00    +0.000 C 
BRANCH  13  14
ATOM     14  C   UNL     1       4.261   2.809  11.148  0.00  0.00    +0.000 C 
BRANCH  14  16
ATOM     15  C   UNL     1       2.990   4.420   9.594  0.00  0.00    +0.000 C 
ATOM     16  C   UNL     1       3.060   3.040  10.227  0.00  0.00    +0.000 C 
ENDBRANCH  14  16
ENDBRANCH  13  14
ENDBRANCH  12  13
ENDBRANCH  11  12
ENDBRANCH  10  11
ENDBRANCH   9  10
ENDBRANCH   7   9
ENDBRANCH   6   7
ENDBRANCH   1   6
BRANCH   5  17
ATOM     17  C   UNL     1       5.434   4.225  18.428  0.00  0.00    +0.000 C 
BRANCH  17  18
ATOM     18  C   UNL     1       4.243   4.442  19.385  0.00  0.00    +0.000 C 
BRANCH  18  19
ATOM     19  N   UNL     1       3.666   3.240  20.023  0.00  0.00    +0.000 NA
ATOM     20  C   UNL     1       3.649   2.036  19.166  0.00  0.00    +0.000 C 
ATOM     21  C   UNL     1       2.624   2.087  18.019  0.00  0.00    +0.000 C 
ATOM     22  O   UNL     1       1.301   2.364  18.499  0.00  0.00    +0.000 OA
ATOM     23  C   UNL     1       1.273   3.576  19.263  0.00  0.00    +0.000 C 
ATOM     24  C   UNL     1       2.262   3.506  20.440  0.00  0.00    +0.000 C 
ENDBRANCH  18  19
ENDBRANCH  17  18
ENDBRANCH   5  17
TORSDOF 12
ENDMDL
MODEL 8
REMARK VINA RESULT:      -5.9      1.228      1.374
REMARK  Name = 
REMARK  13 active torsions:
REMARK  status: ('A' for Active; 'I' for Inactive)
REMARK    1  A    between atoms: C_1  and  C_2
REMARK    2  A    between atoms: C_2  and  C_3
REMARK    3  A    between atoms: C_3  and  C_4
REMARK    4  A    between atoms: C_4  and  O_5
REMARK    5  A    between atoms: O_5  and  C_6
REMARK    6  A    between atoms: C_6  and  C_7
REMARK    7  A    between atoms: C_7  and  C_8
REMARK    8  A    between atoms: C_8  and  N_9
REMARK    9  A    between atoms: N_9  and  C_10
REMARK   10  A    between atoms: C_10  and  C_11
REMARK   11  A    between atoms: N_15  and  C_16
REMARK   12  A    between atoms: C_16  and  C_17
REMARK   13  A    between atoms: C_17  and  N_18
REMARK                            x       y       z     vdW  Elec       q    Type
REMARK                         _______ _______ _______ _____ _____    ______ ____
ROOT
ATOM      1  C   UNL     1       2.152   5.429  20.118  0.00  0.00    +0.000 A 
ATOM      2  C   UNL     1       1.064   4.678  20.536  0.00  0.00    +0.000 A 
ATOM      3  C   UNL     1       1.378   3.317  20.364  0.00  0.00    +0.000 A 
ATOM      4  C   UNL     1       2.657   3.255  19.872  0.00  0.00    +0.000 A 
ATOM      5  N   UNL     1       3.146   4.538  19.740  0.00  0.00    +0.000 N 
ENDROOT
BRANCH   1   6
ATOM      6  C   UNL     1       2.261   6.916  20.065  0.00  0.00    +0.000 C 
BRANCH   6   7
ATOM      7  N   UNL     1       1.403   7.503  21.080  0.00  0.00    +0.000 NA
ATOM      8  H   UNL     1       0.446   7.180  20.932  0.00  0.00    +0.000 HD
BRANCH   7   9
ATOM      9  C   UNL     1       1.442   8.965  21.059  0.00  0.00    +0.000 C 
BRANCH   9  10
ATOM     10  C   UNL     1       0.138   9.501  20.467  0.00  0.00    +0.000 C 
BRANCH  10  11
ATOM     11  C   UNL     1       0.382  10.107  19.089  0.00  0.00    +0.000 C 
BRANCH  11  12
ATOM     12  O   UNL     1      -0.485  11.220  18.862  0.00  0.00    +0.000 OA
BRANCH  12  13
ATOM     13  C   UNL     1      -1.782  10.744  18.496  0.00  0.00    +0.000 C 
BRANCH  13  14
ATOM     14  C   UNL     1      -1.734   9.940  17.203  0.00  0.00    +0.000 C 
BRANCH  14  16
ATOM     15  C   UNL     1      -3.940  11.106  16.571  0.00  0.00    +0.000 C 
ATOM     16  C   UNL     1      -3.066   9.869  16.450  0.00  0.00    +0.000 C 
ENDBRANCH  14  16
ENDBRANCH  13  14
ENDBRANCH  12  13
ENDBRANCH  11  12
ENDBRANCH  10  11
ENDBRANCH   9  10
ENDBRANCH   7   9
ENDBRANCH   6   7
ENDBRANCH   1   6
BRANCH   5  17
ATOM     17  C   UNL     1       4.519   4.883  19.345  0.00  0.00    +0.000 C 
BRANCH  17  18
ATOM     18  C   UNL     1       4.945   4.323  17.972  0.00  0.00    +0.000 C 
BRANCH  18  19
ATOM     19  N   UNL     1       4.820   5.227  16.809  0.00  0.00    +0.000 NA
ATOM     20  C   UNL     1       5.466   4.735  15.574  0.00  0.00    +0.000 C 
ATOM     21  C   UNL     1       7.004   4.765  15.606  0.00  0.00    +0.000 C 
ATOM     22  O   UNL     1       7.505   6.069  15.933  0.00  0.00    +0.000 OA
ATOM     23  C   UNL     1       6.960   6.534  17.174  0.00  0.00    +0.000 C 
ATOM     24  C   UNL     1       5.421   6.553  17.125  0.00  0.00    +0.000 C 
ENDBRANCH  18  19
ENDBRANCH  17  18
ENDBRANCH   5  17
TORSDOF 12
ENDMDL
MODEL 9
REMARK VINA RESULT:      -5.9      1.937      2.687
REMARK  Name = 
REMARK  13 active torsions:
REMARK  status: ('A' for Active; 'I' for Inactive)
REMARK    1  A    between atoms: C_1  and  C_2
REMARK    2  A    between atoms: C_2  and  C_3
REMARK    3  A    between atoms: C_3  and  C_4
REMARK    4  A    between atoms: C_4  and  O_5
REMARK    5  A    between atoms: O_5  and  C_6
REMARK    6  A    between atoms: C_6  and  C_7
REMARK    7  A    between atoms: C_7  and  C_8
REMARK    8  A    between atoms: C_8  and  N_9
REMARK    9  A    between atoms: N_9  and  C_10
REMARK   10  A    between atoms: C_10  and  C_11
REMARK   11  A    between atoms: N_15  and  C_16
REMARK   12  A    between atoms: C_16  and  C_17
REMARK   13  A    between atoms: C_17  and  N_18
REMARK                            x       y       z     vdW  Elec       q    Type
REMARK                         _______ _______ _______ _____ _____    ______ ____
ROOT
ATOM      1  C   UNL     1       2.134   4.177  19.648  0.00  0.00    +0.000 A 
ATOM      2  C   UNL     1       1.015   3.358  19.626  0.00  0.00    +0.000 A 
ATOM      3  C   UNL     1       1.407   2.092  19.150  0.00  0.00    +0.000 A 
ATOM      4  C   UNL     1       2.757   2.148  18.916  0.00  0.00    +0.000 A 
ATOM      5  N   UNL     1       3.214   3.409  19.238  0.00  0.00    +0.000 N 
ENDROOT
BRANCH   1   6
ATOM      6  C   UNL     1       2.194   5.618  20.028  0.00  0.00    +0.000 C 
BRANCH   6   7
ATOM      7  N   UNL     1       2.187   6.438  18.829  0.00  0.00    +0.000 NA
ATOM      8  H   UNL     1       2.957   6.149  18.225  0.00  0.00    +0.000 HD
BRANCH   7   9
ATOM      9  C   UNL     1       2.304   7.864  19.134  0.00  0.00    +0.000 C 
BRANCH   9  10
ATOM     10  C   UNL     1       2.050   8.680  17.866  0.00  0.00    +0.000 C 
BRANCH  10  11
ATOM     11  C   UNL     1       1.431  10.029  18.209  0.00  0.00    +0.000 C 
BRANCH  11  12
ATOM     12  O   UNL     1       0.210   9.861  18.931  0.00  0.00    +0.000 OA
BRANCH  12  13
ATOM     13  C   UNL     1      -0.029  11.019  19.734  0.00  0.00    +0.000 C 
BRANCH  13  14
ATOM     14  C   UNL     1       0.589  10.871  21.119  0.00  0.00    +0.000 C 
BRANCH  14  16
ATOM     15  C   UNL     1      -0.129   9.524  23.191  0.00  0.00    +0.000 C 
ATOM     16  C   UNL     1      -0.425  10.679  22.250  0.00  0.00    +0.000 C 
ENDBRANCH  14  16
ENDBRANCH  13  14
ENDBRANCH  12  13
ENDBRANCH  11  12
ENDBRANCH  10  11
ENDBRANCH   9  10
ENDBRANCH   7   9
ENDBRANCH   6   7
ENDBRANCH   1   6
BRANCH   5  17
ATOM     17  C   UNL     1       4.623   3.827  19.225  0.00  0.00    +0.000 C 
BRANCH  17  18
ATOM     18  C   UNL     1       5.250   3.903  17.818  0.00  0.00    +0.000 C 
BRANCH  18  19
ATOM     19  N   UNL     1       4.980   5.123  17.027  0.00  0.00    +0.000 NA
ATOM     20  C   UNL     1       5.330   5.018  15.595  0.00  0.00    +0.000 C 
ATOM     21  C   UNL     1       6.841   5.003  15.309  0.00  0.00    +0.000 C 
ATOM     22  O   UNL     1       7.506   6.131  15.893  0.00  0.00    +0.000 OA
ATOM     23  C   UNL     1       7.254   6.207  17.302  0.00  0.00    +0.000 C 
ATOM     24  C   UNL     1       5.742   6.274  17.586  0.00  0.00    +0.000 C 
ENDBRANCH  18  19
ENDBRANCH  17  18
ENDBRANCH   5  17
TORSDOF 12
ENDMDL
