MODEL 1
REMARK VINA RESULT:      -7.5      0.000      0.000
REMARK  Name = 
REMARK  9 active torsions:
REMARK  status: ('A' for Active; 'I' for Inactive)
REMARK    1  A    between atoms: C_1  and  C_2
REMARK    2  A    between atoms: C_2  and  O_3
REMARK    3  A    between atoms: O_3  and  C_4
REMARK    4  A    between atoms: C_6  and  C_7
REMARK    5  A    between atoms: N_17  and  C_18
REMARK    6  A    between atoms: C_27  and  O_28
REMARK    7  A    between atoms: O_28  and  C_29
REMARK    8  A    between atoms: C_29  and  C_30
REMARK    9  A    between atoms: C_30  and  O_32
REMARK                            x       y       z     vdW  Elec       q    Type
REMARK                         _______ _______ _______ _____ _____    ______ ____
ROOT
ATOM      1  C   UNL     1      -0.551  13.018  19.150  0.00  0.00    +0.000 C 
ATOM      2  N   UNL     1      -0.634  14.391  18.681  0.00  0.00    +0.000 N 
ATOM      3  C   UNL     1       0.174  15.385  19.171  0.00  0.00    +0.000 A 
ATOM      4  C   UNL     1       0.227  16.633  18.534  0.00  0.00    +0.000 A 
ATOM      5  C   UNL     1       1.084  17.637  18.982  0.00  0.00    +0.000 A 
ATOM      6  C   UNL     1       1.920  17.403  20.072  0.00  0.00    +0.000 A 
ATOM      7  C   UNL     1       1.891  16.164  20.702  0.00  0.00    +0.000 A 
ATOM      8  C   UNL     1       1.025  15.159  20.243  0.00  0.00    +0.000 A 
ATOM      9  C   UNL     1       0.939  13.870  20.959  0.00  0.00    +0.000 C 
ATOM     10  O   UNL     1       1.706  13.719  21.910  0.00  0.00    +0.000 OA
ATOM     11  N   UNL     1      -0.018  12.930  20.525  0.00  0.00    +0.000 N 
ATOM     12  H   UNL     1      -1.461  14.664  18.165  0.00  0.00    +0.000 HD
ENDROOT
BRANCH   1  15
ATOM     13  C   UNL     1      -3.420  10.878  17.754  0.00  0.00    +0.000 A 
ATOM     14  C   UNL     1      -2.166  11.438  18.010  0.00  0.00    +0.000 A 
ATOM     15  C   UNL     1      -1.966  12.460  18.963  0.00  0.00    +0.000 A 
ATOM     16  C   UNL     1      -3.067  12.865  19.724  0.00  0.00    +0.000 A 
ATOM     17 BR   UNL     1      -2.957  14.206  21.063  0.00  0.00    +0.000 Br
ATOM     18  C   UNL     1      -4.319  12.272  19.524  0.00  0.00    +0.000 A 
ATOM     19  C   UNL     1      -4.497  11.266  18.561  0.00  0.00    +0.000 A 
BRANCH  13  20
ATOM     20  O   UNL     1      -3.648   9.985  16.741  0.00  0.00    +0.000 OA
BRANCH  20  22
ATOM     21  C   UNL     1      -3.295  10.126  14.327  0.00  0.00    +0.000 C 
ATOM     22  C   UNL     1      -2.679   9.863  15.691  0.00  0.00    +0.000 C 
ENDBRANCH  20  22
ENDBRANCH  13  20
BRANCH  19  23
ATOM     23  O   UNL     1      -5.784  10.791  18.513  0.00  0.00    +0.000 OA
BRANCH  23  24
ATOM     24  C   UNL     1      -6.643  11.170  19.594  0.00  0.00    +0.000 C 
BRANCH  24  25
ATOM     25  C   UNL     1      -7.303   9.918  20.155  0.00  0.00    +0.000 C 
ATOM     26  O   UNL     1      -7.588   9.762  21.333  0.00  0.00    +0.000 OA
BRANCH  25  27
ATOM     27  O   UNL     1      -7.569   8.979  19.212  0.00  0.00    +0.000 OA
ATOM     28  H   UNL     1      -8.501   9.072  18.917  0.00  0.00    +0.000 HD
ENDBRANCH  25  27
ENDBRANCH  24  25
ENDBRANCH  23  24
ENDBRANCH  19  23
ENDBRANCH   1  15
BRANCH  11  29
ATOM     29  C   UNL     1      -0.142  11.696  21.278  0.00  0.00    +0.000 A 
ATOM     30  C   UNL     1       0.501  10.528  20.831  0.00  0.00    +0.000 A 
ATOM     31  C   UNL     1       0.397   9.320  21.528  0.00  0.00    +0.000 A 
ATOM     32  C   UNL     1      -0.326   9.261  22.711  0.00  0.00    +0.000 A 
ATOM     33  C   UNL     1      -0.938  10.411  23.198  0.00  0.00    +0.000 A 
ATOM     34  C   UNL     1      -0.854  11.614  22.484  0.00  0.00    +0.000 A 
ENDBRANCH  11  29
TORSDOF 8
ENDMDL
MODEL 2
REMARK VINA RESULT:      -7.5      1.859      3.116
REMARK  Name = 
REMARK  9 active torsions:
REMARK  status: ('A' for Active; 'I' for Inactive)
REMARK    1  A    between atoms: C_1  and  C_2
REMARK    2  A    between atoms: C_2  and  O_3
REMARK    3  A    between atoms: O_3  and  C_4
REMARK    4  A    between atoms: C_6  and  C_7
REMARK    5  A    between atoms: N_17  and  C_18
REMARK    6  A    between atoms: C_27  and  O_28
REMARK    7  A    between atoms: O_28  and  C_29
REMARK    8  A    between atoms: C_29  and  C_30
REMARK    9  A    between atoms: C_30  and  O_32
REMARK                            x       y       z     vdW  Elec       q    Type
REMARK                         _______ _______ _______ _____ _____    ______ ____
ROOT
ATOM      1  C   UNL     1      -1.008  12.921  19.335  0.00  0.00    +0.000 C 
ATOM      2  N   UNL     1      -0.961  14.325  18.964  0.00  0.00    +0.000 N 
ATOM      3  C   UNL     1       0.144  15.108  19.183  0.00  0.00    +0.000 A 
ATOM      4  C   UNL     1       0.236  16.380  18.604  0.00  0.00    +0.000 A 
ATOM      5  C   UNL     1       1.376  17.168  18.767  0.00  0.00    +0.000 A 
ATOM      6  C   UNL     1       2.455  16.685  19.504  0.00  0.00    +0.000 A 
ATOM      7  C   UNL     1       2.384  15.417  20.069  0.00  0.00    +0.000 A 
ATOM      8  C   UNL     1       1.233  14.632  19.899  0.00  0.00    +0.000 A 
ATOM      9  C   UNL     1       1.127  13.316  20.562  0.00  0.00    +0.000 C 
ATOM     10  O   UNL     1       2.115  12.941  21.194  0.00  0.00    +0.000 OA
ATOM     11  N   UNL     1      -0.086  12.608  20.447  0.00  0.00    +0.000 N 
ATOM     12  H   UNL     1      -1.838  14.790  18.765  0.00  0.00    +0.000 HD
ENDROOT
BRANCH   1  15
ATOM     13  C   UNL     1      -4.407  13.011  21.122  0.00  0.00    +0.000 A 
ATOM     14  C   UNL     1      -3.072  13.219  20.768  0.00  0.00    +0.000 A 
ATOM     15  C   UNL     1      -2.488  12.645  19.619  0.00  0.00    +0.000 A 
ATOM     16  C   UNL     1      -3.314  11.898  18.772  0.00  0.00    +0.000 A 
ATOM     17 BR   UNL     1      -2.687  11.085  17.176  0.00  0.00    +0.000 Br
ATOM     18  C   UNL     1      -4.670  11.730  19.079  0.00  0.00    +0.000 A 
ATOM     19  C   UNL     1      -5.226  12.300  20.234  0.00  0.00    +0.000 A 
BRANCH  13  20
ATOM     20  O   UNL     1      -4.946  13.452  22.301  0.00  0.00    +0.000 OA
BRANCH  20  22
ATOM     21  C   UNL     1      -6.559  14.986  23.308  0.00  0.00    +0.000 C 
ATOM     22  C   UNL     1      -5.342  14.826  22.413  0.00  0.00    +0.000 C 
ENDBRANCH  20  22
ENDBRANCH  13  20
BRANCH  19  23
ATOM     23  O   UNL     1      -6.568  12.045  20.366  0.00  0.00    +0.000 OA
BRANCH  23  24
ATOM     24  C   UNL     1      -7.128  11.096  19.452  0.00  0.00    +0.000 C 
BRANCH  24  25
ATOM     25  C   UNL     1      -7.439   9.813  20.209  0.00  0.00    +0.000 C 
ATOM     26  O   UNL     1      -7.592   9.752  21.420  0.00  0.00    +0.000 OA
BRANCH  25  27
ATOM     27  O   UNL     1      -7.553   8.725  19.406  0.00  0.00    +0.000 OA
ATOM     28  H   UNL     1      -8.149   8.938  18.656  0.00  0.00    +0.000 HD
ENDBRANCH  25  27
ENDBRANCH  24  25
ENDBRANCH  23  24
ENDBRANCH  19  23
ENDBRANCH   1  15
BRANCH  11  29
ATOM     29  C   UNL     1      -0.204  11.350  21.160  0.00  0.00    +0.000 A 
ATOM     30  C   UNL     1       0.114  10.141  20.517  0.00  0.00    +0.000 A 
ATOM     31  C   UNL     1       0.006   8.910  21.171  0.00  0.00    +0.000 A 
ATOM     32  C   UNL     1      -0.392   8.863  22.500  0.00  0.00    +0.000 A 
ATOM     33  C   UNL     1      -0.673  10.047  23.173  0.00  0.00    +0.000 A 
ATOM     34  C   UNL     1      -0.589  11.277  22.507  0.00  0.00    +0.000 A 
ENDBRANCH  11  29
TORSDOF 8
ENDMDL
MODEL 3
REMARK VINA RESULT:      -7.4      1.698      3.057
REMARK  Name = 
REMARK  9 active torsions:
REMARK  status: ('A' for Active; 'I' for Inactive)
REMARK    1  A    between atoms: C_1  and  C_2
REMARK    2  A    between atoms: C_2  and  O_3
REMARK    3  A    between atoms: O_3  and  C_4
REMARK    4  A    between atoms: C_6  and  C_7
REMARK    5  A    between atoms: N_17  and  C_18
REMARK    6  A    between atoms: C_27  and  O_28
REMARK    7  A    between atoms: O_28  and  C_29
REMARK    8  A    between atoms: C_29  and  C_30
REMARK    9  A    between atoms: C_30  and  O_32
REMARK                            x       y       z     vdW  Elec       q    Type
REMARK                         _______ _______ _______ _____ _____    ______ ____
ROOT
ATOM      1  C   UNL     1      -0.855  12.785  19.137  0.00  0.00    +0.000 C 
ATOM      2  N   UNL     1      -0.832  14.179  18.728  0.00  0.00    +0.000 N 
ATOM      3  C   UNL     1       0.192  15.028  19.065  0.00  0.00    +0.000 A 
ATOM      4  C   UNL     1       0.294  16.288  18.461  0.00  0.00    +0.000 A 
ATOM      5  C   UNL     1       1.359  17.143  18.746  0.00  0.00    +0.000 A 
ATOM      6  C   UNL     1       2.354  16.740  19.635  0.00  0.00    +0.000 A 
ATOM      7  C   UNL     1       2.275  15.485  20.227  0.00  0.00    +0.000 A 
ATOM      8  C   UNL     1       1.199  14.632  19.933  0.00  0.00    +0.000 A 
ATOM      9  C   UNL     1       1.074  13.330  20.619  0.00  0.00    +0.000 C 
ATOM     10  O   UNL     1       1.987  13.027  21.388  0.00  0.00    +0.000 OA
ATOM     11  N   UNL     1      -0.074  12.553  20.370  0.00  0.00    +0.000 N 
ATOM     12  H   UNL     1      -1.698  14.589  18.401  0.00  0.00    +0.000 HD
ENDROOT
BRANCH   1  15
ATOM     13  C   UNL     1      -4.512  12.902  20.306  0.00  0.00    +0.000 A 
ATOM     14  C   UNL     1      -3.150  13.161  20.134  0.00  0.00    +0.000 A 
ATOM     15  C   UNL     1      -2.343  12.434  19.232  0.00  0.00    +0.000 A 
ATOM     16  C   UNL     1      -2.965  11.466  18.436  0.00  0.00    +0.000 A 
ATOM     17 BR   UNL     1      -2.025  10.425  17.158  0.00  0.00    +0.000 Br
ATOM     18  C   UNL     1      -4.341  11.237  18.551  0.00  0.00    +0.000 A 
ATOM     19  C   UNL     1      -5.121  11.964  19.463  0.00  0.00    +0.000 A 
BRANCH  13  20
ATOM     20  O   UNL     1      -5.273  13.509  21.270  0.00  0.00    +0.000 OA
BRANCH  20  22
ATOM     21  C   UNL     1      -5.408  15.203  23.026  0.00  0.00    +0.000 C 
ATOM     22  C   UNL     1      -4.624  14.045  22.431  0.00  0.00    +0.000 C 
ENDBRANCH  20  22
ENDBRANCH  13  20
BRANCH  19  23
ATOM     23  O   UNL     1      -6.449  11.617  19.430  0.00  0.00    +0.000 OA
BRANCH  23  24
ATOM     24  C   UNL     1      -6.985  11.035  20.624  0.00  0.00    +0.000 C 
BRANCH  24  25
ATOM     25  C   UNL     1      -7.373   9.592  20.332  0.00  0.00    +0.000 C 
ATOM     26  O   UNL     1      -7.554   8.743  21.192  0.00  0.00    +0.000 OA
BRANCH  25  27
ATOM     27  O   UNL     1      -7.521   9.331  19.008  0.00  0.00    +0.000 OA
ATOM     28  H   UNL     1      -8.423   8.975  18.848  0.00  0.00    +0.000 HD
ENDBRANCH  25  27
ENDBRANCH  24  25
ENDBRANCH  23  24
ENDBRANCH  19  23
ENDBRANCH   1  15
BRANCH  11  29
ATOM     29  C   UNL     1      -0.220  11.309  21.103  0.00  0.00    +0.000 A 
ATOM     30  C   UNL     1      -0.718  11.319  22.418  0.00  0.00    +0.000 A 
ATOM     31  C   UNL     1      -0.865  10.141  23.157  0.00  0.00    +0.000 A 
ATOM     32  C   UNL     1      -0.550   8.918  22.583  0.00  0.00    +0.000 A 
ATOM     33  C   UNL     1      -0.094   8.875  21.269  0.00  0.00    +0.000 A 
ATOM     34  C   UNL     1       0.077  10.059  20.540  0.00  0.00    +0.000 A 
ENDBRANCH  11  29
TORSDOF 8
ENDMDL
MODEL 4
REMARK VINA RESULT:      -7.0      0.491      1.119
REMARK  Name = 
REMARK  9 active torsions:
REMARK  status: ('A' for Active; 'I' for Inactive)
REMARK    1  A    between atoms: C_1  and  C_2
REMARK    2  A    between atoms: C_2  and  O_3
REMARK    3  A    between atoms: O_3  and  C_4
REMARK    4  A    between atoms: C_6  and  C_7
REMARK    5  A    between atoms: N_17  and  C_18
REMARK    6  A    between atoms: C_27  and  O_28
REMARK    7  A    between atoms: O_28  and  C_29
REMARK    8  A    between atoms: C_29  and  C_30
REMARK    9  A    between atoms: C_30  and  O_32
REMARK                            x       y       z     vdW  Elec       q    Type
REMARK                         _______ _______ _______ _____ _____    ______ ____
ROOT
ATOM      1  C   UNL     1      -0.413  12.991  18.982  0.00  0.00    +0.000 C 
ATOM      2  N   UNL     1      -0.476  14.404  18.651  0.00  0.00    +0.000 N 
ATOM      3  C   UNL     1       0.421  15.316  19.145  0.00  0.00    +0.000 A 
ATOM      4  C   UNL     1       0.470  16.616  18.622  0.00  0.00    +0.000 A 
ATOM      5  C   UNL     1       1.413  17.541  19.070  0.00  0.00    +0.000 A 
ATOM      6  C   UNL     1       2.339  17.172  20.045  0.00  0.00    +0.000 A 
ATOM      7  C   UNL     1       2.313  15.881  20.559  0.00  0.00    +0.000 A 
ATOM      8  C   UNL     1       1.360  14.958  20.101  0.00  0.00    +0.000 A 
ATOM      9  C   UNL     1       1.284  13.610  20.701  0.00  0.00    +0.000 C 
ATOM     10  O   UNL     1       2.132  13.341  21.553  0.00  0.00    +0.000 OA
ATOM     11  N   UNL     1       0.247  12.752  20.282  0.00  0.00    +0.000 N 
ATOM     12  H   UNL     1      -1.336  14.757  18.248  0.00  0.00    +0.000 HD
ENDROOT
BRANCH   1  15
ATOM     13  C   UNL     1      -3.499  11.100  17.697  0.00  0.00    +0.000 A 
ATOM     14  C   UNL     1      -2.202  11.585  17.875  0.00  0.00    +0.000 A 
ATOM     15  C   UNL     1      -1.863  12.506  18.889  0.00  0.00    +0.000 A 
ATOM     16  C   UNL     1      -2.867  12.883  19.788  0.00  0.00    +0.000 A 
ATOM     17 BR   UNL     1      -2.566  14.090  21.221  0.00  0.00    +0.000 Br
ATOM     18  C   UNL     1      -4.159  12.358  19.662  0.00  0.00    +0.000 A 
ATOM     19  C   UNL     1      -4.475  11.453  18.638  0.00  0.00    +0.000 A 
BRANCH  13  20
ATOM     20  O   UNL     1      -3.865  10.312  16.638  0.00  0.00    +0.000 OA
BRANCH  20  22
ATOM     21  C   UNL     1      -3.184  10.093  14.301  0.00  0.00    +0.000 C 
ATOM     22  C   UNL     1      -2.847   9.816  15.757  0.00  0.00    +0.000 C 
ENDBRANCH  20  22
ENDBRANCH  13  20
BRANCH  19  23
ATOM     23  O   UNL     1      -5.781  11.033  18.677  0.00  0.00    +0.000 OA
BRANCH  23  24
ATOM     24  C   UNL     1      -6.615  11.640  19.671  0.00  0.00    +0.000 C 
BRANCH  24  25
ATOM     25  C   UNL     1      -7.282  10.541  20.485  0.00  0.00    +0.000 C 
ATOM     26  O   UNL     1      -7.488   9.410  20.072  0.00  0.00    +0.000 OA
BRANCH  25  27
ATOM     27  O   UNL     1      -7.618  10.929  21.742  0.00  0.00    +0.000 OA
ATOM     28  H   UNL     1      -7.846  10.136  22.275  0.00  0.00    +0.000 HD
ENDBRANCH  25  27
ENDBRANCH  24  25
ENDBRANCH  23  24
ENDBRANCH  19  23
ENDBRANCH   1  15
BRANCH  11  29
ATOM     29  C   UNL     1       0.138  11.458  20.929  0.00  0.00    +0.000 A 
ATOM     30  C   UNL     1      -0.521  11.340  22.166  0.00  0.00    +0.000 A 
ATOM     31  C   UNL     1      -0.638  10.111  22.821  0.00  0.00    +0.000 A 
ATOM     32  C   UNL     1      -0.127   8.960  22.236  0.00  0.00    +0.000 A 
ATOM     33  C   UNL     1       0.494   9.042  20.994  0.00  0.00    +0.000 A 
ATOM     34  C   UNL     1       0.633  10.279  20.352  0.00  0.00    +0.000 A 
ENDBRANCH  11  29
TORSDOF 8
ENDMDL
MODEL 5
REMARK VINA RESULT:      -6.8      1.975      3.372
REMARK  Name = 
REMARK  9 active torsions:
REMARK  status: ('A' for Active; 'I' for Inactive)
REMARK    1  A    between atoms: C_1  and  C_2
REMARK    2  A    between atoms: C_2  and  O_3
REMARK    3  A    between atoms: O_3  and  C_4
REMARK    4  A    between atoms: C_6  and  C_7
REMARK    5  A    between atoms: N_17  and  C_18
REMARK    6  A    between atoms: C_27  and  O_28
REMARK    7  A    between atoms: O_28  and  C_29
REMARK    8  A    between atoms: C_29  and  C_30
REMARK    9  A    between atoms: C_30  and  O_32
REMARK                            x       y       z     vdW  Elec       q    Type
REMARK                         _______ _______ _______ _____ _____    ______ ____
ROOT
ATOM      1  C   UNL     1      -0.799  12.709  19.058  0.00  0.00    +0.000 C 
ATOM      2  N   UNL     1      -0.798  14.097  18.630  0.00  0.00    +0.000 N 
ATOM      3  C   UNL     1       0.208  14.968  18.960  0.00  0.00    +0.000 A 
ATOM      4  C   UNL     1       0.292  16.222  18.339  0.00  0.00    +0.000 A 
ATOM      5  C   UNL     1       1.339  17.099  18.619  0.00  0.00    +0.000 A 
ATOM      6  C   UNL     1       2.335  16.727  19.520  0.00  0.00    +0.000 A 
ATOM      7  C   UNL     1       2.274  15.479  20.130  0.00  0.00    +0.000 A 
ATOM      8  C   UNL     1       1.216  14.603  19.841  0.00  0.00    +0.000 A 
ATOM      9  C   UNL     1       1.110  13.310  20.546  0.00  0.00    +0.000 C 
ATOM     10  O   UNL     1       2.022  13.034  21.325  0.00  0.00    +0.000 OA
ATOM     11  N   UNL     1      -0.023  12.508  20.299  0.00  0.00    +0.000 N 
ATOM     12  H   UNL     1      -1.669  14.487  18.290  0.00  0.00    +0.000 HD
ENDROOT
BRANCH   1  15
ATOM     13  C   UNL     1      -4.461  12.763  20.216  0.00  0.00    +0.000 A 
ATOM     14  C   UNL     1      -3.103  13.045  20.049  0.00  0.00    +0.000 A 
ATOM     15  C   UNL     1      -2.282  12.332  19.149  0.00  0.00    +0.000 A 
ATOM     16  C   UNL     1      -2.885  11.356  18.349  0.00  0.00    +0.000 A 
ATOM     17 BR   UNL     1      -1.924  10.332  17.073  0.00  0.00    +0.000 Br
ATOM     18  C   UNL     1      -4.257  11.103  18.460  0.00  0.00    +0.000 A 
ATOM     19  C   UNL     1      -5.052  11.816  19.370  0.00  0.00    +0.000 A 
BRANCH  13  20
ATOM     20  O   UNL     1      -5.235  13.356  21.179  0.00  0.00    +0.000 OA
BRANCH  20  22
ATOM     21  C   UNL     1      -5.077  15.001  22.979  0.00  0.00    +0.000 C 
ATOM     22  C   UNL     1      -5.026  14.742  21.482  0.00  0.00    +0.000 C 
ENDBRANCH  20  22
ENDBRANCH  13  20
BRANCH  19  23
ATOM     23  O   UNL     1      -6.374  11.447  19.333  0.00  0.00    +0.000 OA
BRANCH  23  24
ATOM     24  C   UNL     1      -7.128  11.898  18.202  0.00  0.00    +0.000 C 
BRANCH  24  25
ATOM     25  C   UNL     1      -7.330  13.402  18.318  0.00  0.00    +0.000 C 
ATOM     26  O   UNL     1      -7.017  14.204  17.451  0.00  0.00    +0.000 OA
BRANCH  25  27
ATOM     27  O   UNL     1      -7.916  13.779  19.482  0.00  0.00    +0.000 OA
ATOM     28  H   UNL     1      -7.260  14.258  20.034  0.00  0.00    +0.000 HD
ENDBRANCH  25  27
ENDBRANCH  24  25
ENDBRANCH  23  24
ENDBRANCH  19  23
ENDBRANCH   1  15
BRANCH  11  29
ATOM     29  C   UNL     1      -0.152  11.273  21.049  0.00  0.00    +0.000 A 
ATOM     30  C   UNL     1      -0.704  11.286  22.343  0.00  0.00    +0.000 A 
ATOM     31  C   UNL     1      -0.837  10.117  23.097  0.00  0.00    +0.000 A 
ATOM     32  C   UNL     1      -0.452   8.896  22.560  0.00  0.00    +0.000 A 
ATOM     33  C   UNL     1       0.059   8.848  21.267  0.00  0.00    +0.000 A 
ATOM     34  C   UNL     1       0.216  10.025  20.524  0.00  0.00    +0.000 A 
ENDBRANCH  11  29
TORSDOF 8
ENDMDL
MODEL 6
REMARK VINA RESULT:      -6.8      1.920      3.440
REMARK  Name = 
REMARK  9 active torsions:
REMARK  status: ('A' for Active; 'I' for Inactive)
REMARK    1  A    between atoms: C_1  and  C_2
REMARK    2  A    between atoms: C_2  and  O_3
REMARK    3  A    between atoms: O_3  and  C_4
REMARK    4  A    between atoms: C_6  and  C_7
REMARK    5  A    between atoms: N_17  and  C_18
REMARK    6  A    between atoms: C_27  and  O_28
REMARK    7  A    between atoms: O_28  and  C_29
REMARK    8  A    between atoms: C_29  and  C_30
REMARK    9  A    between atoms: C_30  and  O_32
REMARK                            x       y       z     vdW  Elec       q    Type
REMARK                         _______ _______ _______ _____ _____    ______ ____
ROOT
ATOM      1  C   UNL     1      -1.064  13.369  19.697  0.00  0.00    +0.000 C 
ATOM      2  N   UNL     1      -1.126  14.819  19.625  0.00  0.00    +0.000 N 
ATOM      3  C   UNL     1      -0.030  15.614  19.841  0.00  0.00    +0.000 A 
ATOM      4  C   UNL     1      -0.075  16.981  19.535  0.00  0.00    +0.000 A 
ATOM      5  C   UNL     1       1.047  17.794  19.692  0.00  0.00    +0.000 A 
ATOM      6  C   UNL     1       2.244  17.247  20.147  0.00  0.00    +0.000 A 
ATOM      7  C   UNL     1       2.308  15.888  20.437  0.00  0.00    +0.000 A 
ATOM      8  C   UNL     1       1.174  15.078  20.275  0.00  0.00    +0.000 A 
ATOM      9  C   UNL     1       1.220  13.652  20.656  0.00  0.00    +0.000 C 
ATOM     10  O   UNL     1       2.307  13.223  21.045  0.00  0.00    +0.000 OA
ATOM     11  N   UNL     1       0.030  12.901  20.572  0.00  0.00    +0.000 N 
ATOM     12  H   UNL     1      -2.040  15.254  19.658  0.00  0.00    +0.000 HD
ENDROOT
BRANCH   1  15
ATOM     13  C   UNL     1      -4.287  13.176  21.779  0.00  0.00    +0.000 A 
ATOM     14  C   UNL     1      -3.021  13.515  21.295  0.00  0.00    +0.000 A 
ATOM     15  C   UNL     1      -2.471  12.942  20.128  0.00  0.00    +0.000 A 
ATOM     16  C   UNL     1      -3.270  12.054  19.400  0.00  0.00    +0.000 A 
ATOM     17 BR   UNL     1      -2.687  11.222  17.796  0.00  0.00    +0.000 Br
ATOM     18  C   UNL     1      -4.565  11.750  19.836  0.00  0.00    +0.000 A 
ATOM     19  C   UNL     1      -5.086  12.322  21.007  0.00  0.00    +0.000 A 
BRANCH  13  20
ATOM     20  O   UNL     1      -4.773  13.623  22.978  0.00  0.00    +0.000 OA
BRANCH  20  22
ATOM     21  C   UNL     1      -3.397  14.528  24.783  0.00  0.00    +0.000 C 
ATOM     22  C   UNL     1      -4.061  13.301  24.181  0.00  0.00    +0.000 C 
ENDBRANCH  20  22
ENDBRANCH  13  20
BRANCH  19  23
ATOM     23  O   UNL     1      -6.372  11.923  21.274  0.00  0.00    +0.000 OA
BRANCH  23  24
ATOM     24  C   UNL     1      -7.154  11.505  20.149  0.00  0.00    +0.000 C 
BRANCH  24  25
ATOM     25  C   UNL     1      -7.577  10.058  20.359  0.00  0.00    +0.000 C 
ATOM     26  O   UNL     1      -7.916   9.592  21.437  0.00  0.00    +0.000 OA
BRANCH  25  27
ATOM     27  O   UNL     1      -7.561   9.320  19.220  0.00  0.00    +0.000 OA
ATOM     28  H   UNL     1      -8.455   8.944  19.066  0.00  0.00    +0.000 HD
ENDBRANCH  25  27
ENDBRANCH  24  25
ENDBRANCH  23  24
ENDBRANCH  19  23
ENDBRANCH   1  15
BRANCH  11  29
ATOM     29  C   UNL     1       0.070  11.520  21.015  0.00  0.00    +0.000 A 
ATOM     30  C   UNL     1      -0.481  11.161  22.259  0.00  0.00    +0.000 A 
ATOM     31  C   UNL     1      -0.453   9.842  22.721  0.00  0.00    +0.000 A 
ATOM     32  C   UNL     1       0.097   8.841  21.932  0.00  0.00    +0.000 A 
ATOM     33  C   UNL     1       0.612   9.161  20.680  0.00  0.00    +0.000 A 
ATOM     34  C   UNL     1       0.607  10.488  20.231  0.00  0.00    +0.000 A 
ENDBRANCH  11  29
TORSDOF 8
ENDMDL
MODEL 7
REMARK VINA RESULT:      -6.8      2.011      2.766
REMARK  Name = 
REMARK  9 active torsions:
REMARK  status: ('A' for Active; 'I' for Inactive)
REMARK    1  A    between atoms: C_1  and  C_2
REMARK    2  A    between atoms: C_2  and  O_3
REMARK    3  A    between atoms: O_3  and  C_4
REMARK    4  A    between atoms: C_6  and  C_7
REMARK    5  A    between atoms: N_17  and  C_18
REMARK    6  A    between atoms: C_27  and  O_28
REMARK    7  A    between atoms: O_28  and  C_29
REMARK    8  A    between atoms: C_29  and  C_30
REMARK    9  A    between atoms: C_30  and  O_32
REMARK                            x       y       z     vdW  Elec       q    Type
REMARK                         _______ _______ _______ _____ _____    ______ ____
ROOT
ATOM      1  C   UNL     1      -1.085  13.309  19.472  0.00  0.00    +0.000 C 
ATOM      2  N   UNL     1      -0.987  14.734  19.204  0.00  0.00    +0.000 N 
ATOM      3  C   UNL     1       0.214  15.394  19.166  0.00  0.00    +0.000 A 
ATOM      4  C   UNL     1       0.285  16.706  18.678  0.00  0.00    +0.000 A 
ATOM      5  C   UNL     1       1.505  17.375  18.577  0.00  0.00    +0.000 A 
ATOM      6  C   UNL     1       2.683  16.732  18.953  0.00  0.00    +0.000 A 
ATOM      7  C   UNL     1       2.629  15.425  19.422  0.00  0.00    +0.000 A 
ATOM      8  C   UNL     1       1.396  14.760  19.519  0.00  0.00    +0.000 A 
ATOM      9  C   UNL     1       1.329  13.399  20.089  0.00  0.00    +0.000 C 
ATOM     10  O   UNL     1       2.404  12.881  20.397  0.00  0.00    +0.000 OA
ATOM     11  N   UNL     1       0.061  12.811  20.262  0.00  0.00    +0.000 N 
ATOM     12  H   UNL     1      -1.830  15.288  19.289  0.00  0.00    +0.000 HD
ENDROOT
BRANCH   1  15
ATOM     13  C   UNL     1      -4.694  12.105  20.002  0.00  0.00    +0.000 A 
ATOM     14  C   UNL     1      -3.411  12.312  19.490  0.00  0.00    +0.000 A 
ATOM     15  C   UNL     1      -2.456  13.132  20.131  0.00  0.00    +0.000 A 
ATOM     16  C   UNL     1      -2.803  13.693  21.365  0.00  0.00    +0.000 A 
ATOM     17 BR   UNL     1      -1.623  14.793  22.364  0.00  0.00    +0.000 Br
ATOM     18  C   UNL     1      -4.063  13.445  21.923  0.00  0.00    +0.000 A 
ATOM     19  C   UNL     1      -5.000  12.637  21.262  0.00  0.00    +0.000 A 
BRANCH  13  20
ATOM     20  O   UNL     1      -5.668  11.422  19.324  0.00  0.00    +0.000 OA
BRANCH  20  22
ATOM     21  C   UNL     1      -6.398  12.523  17.268  0.00  0.00    +0.000 C 
ATOM     22  C   UNL     1      -5.617  11.379  17.892  0.00  0.00    +0.000 C 
ENDBRANCH  20  22
ENDBRANCH  13  20
BRANCH  19  23
ATOM     23  O   UNL     1      -6.173  12.492  21.961  0.00  0.00    +0.000 OA
BRANCH  23  24
ATOM     24  C   UNL     1      -6.295  13.260  23.164  0.00  0.00    +0.000 C 
BRANCH  24  25
ATOM     25  C   UNL     1      -7.396  12.653  24.020  0.00  0.00    +0.000 C 
ATOM     26  O   UNL     1      -7.781  11.497  23.924  0.00  0.00    +0.000 OA
BRANCH  25  27
ATOM     27  O   UNL     1      -7.911  13.517  24.931  0.00  0.00    +0.000 OA
ATOM     28  H   UNL     1      -8.337  13.008  25.655  0.00  0.00    +0.000 HD
ENDBRANCH  25  27
ENDBRANCH  24  25
ENDBRANCH  23  24
ENDBRANCH  19  23
ENDBRANCH   1  15
BRANCH  11  29
ATOM     29  C   UNL     1       0.002  11.503  20.887  0.00  0.00    +0.000 A 
ATOM     30  C   UNL     1      -0.268  11.390  22.263  0.00  0.00    +0.000 A 
ATOM     31  C   UNL     1      -0.325  10.147  22.901  0.00  0.00    +0.000 A 
ATOM     32  C   UNL     1      -0.146   8.982  22.168  0.00  0.00    +0.000 A 
ATOM     33  C   UNL     1       0.082   9.062  20.798  0.00  0.00    +0.000 A 
ATOM     34  C   UNL     1       0.164  10.310  20.166  0.00  0.00    +0.000 A 
ENDBRANCH  11  29
TORSDOF 8
ENDMDL
MODEL 8
REMARK VINA RESULT:      -6.7      2.023      3.299
REMARK  Name = 
REMARK  9 active torsions:
REMARK  status: ('A' for Active; 'I' for Inactive)
REMARK    1  A    between atoms: C_1  and  C_2
REMARK    2  A    between atoms: C_2  and  O_3
REMARK    3  A    between atoms: O_3  and  C_4
REMARK    4  A    between atoms: C_6  and  C_7
REMARK    5  A    between atoms: N_17  and  C_18
REMARK    6  A    between atoms: C_27  and  O_28
REMARK    7  A    between atoms: O_28  and  C_29
REMARK    8  A    between atoms: C_29  and  C_30
REMARK    9  A    between atoms: C_30  and  O_32
REMARK                            x       y       z     vdW  Elec       q    Type
REMARK                         _______ _______ _______ _____ _____    ______ ____
ROOT
ATOM      1  C   UNL     1      -0.849  12.876  19.190  0.00  0.00    +0.000 C 
ATOM      2  N   UNL     1      -0.821  14.270  18.782  0.00  0.00    +0.000 N 
ATOM      3  C   UNL     1       0.240  15.095  19.054  0.00  0.00    +0.000 A 
ATOM      4  C   UNL     1       0.332  16.355  18.446  0.00  0.00    +0.000 A 
ATOM      5  C   UNL     1       1.430  17.185  18.665  0.00  0.00    +0.000 A 
ATOM      6  C   UNL     1       2.470  16.760  19.490  0.00  0.00    +0.000 A 
ATOM      7  C   UNL     1       2.400  15.505  20.085  0.00  0.00    +0.000 A 
ATOM      8  C   UNL     1       1.290  14.677  19.858  0.00  0.00    +0.000 A 
ATOM      9  C   UNL     1       1.180  13.376  20.550  0.00  0.00    +0.000 C 
ATOM     10  O   UNL     1       2.132  13.052  21.260  0.00  0.00    +0.000 OA
ATOM     11  N   UNL     1       0.002  12.624  20.371  0.00  0.00    +0.000 N 
ATOM     12  H   UNL     1      -1.697  14.699  18.509  0.00  0.00    +0.000 HD
ENDROOT
BRANCH   1  15
ATOM     13  C   UNL     1      -4.412  13.038  20.615  0.00  0.00    +0.000 A 
ATOM     14  C   UNL     1      -3.059  13.271  20.357  0.00  0.00    +0.000 A 
ATOM     15  C   UNL     1      -2.335  12.557  19.377  0.00  0.00    +0.000 A 
ATOM     16  C   UNL     1      -3.036  11.633  18.594  0.00  0.00    +0.000 A 
ATOM     17 BR   UNL     1      -2.214  10.616  17.219  0.00  0.00    +0.000 Br
ATOM     18  C   UNL     1      -4.406  11.433  18.797  0.00  0.00    +0.000 A 
ATOM     19  C   UNL     1      -5.103  12.145  19.786  0.00  0.00    +0.000 A 
BRANCH  13  20
ATOM     20  O   UNL     1      -5.088  13.629  21.650  0.00  0.00    +0.000 OA
BRANCH  20  22
ATOM     21  C   UNL     1      -5.793  15.730  22.679  0.00  0.00    +0.000 C 
ATOM     22  C   UNL     1      -5.755  14.877  21.422  0.00  0.00    +0.000 C 
ENDBRANCH  20  22
ENDBRANCH  13  20
BRANCH  19  23
ATOM     23  O   UNL     1      -6.438  11.831  19.834  0.00  0.00    +0.000 OA
BRANCH  23  24
ATOM     24  C   UNL     1      -7.108  11.705  18.574  0.00  0.00    +0.000 C 
BRANCH  24  25
ATOM     25  C   UNL     1      -7.400  13.097  18.035  0.00  0.00    +0.000 C 
ATOM     26  O   UNL     1      -7.914  13.992  18.690  0.00  0.00    +0.000 OA
BRANCH  25  27
ATOM     27  O   UNL     1      -7.017  13.269  16.745  0.00  0.00    +0.000 OA
ATOM     28  H   UNL     1      -7.575  13.963  16.331  0.00  0.00    +0.000 HD
ENDBRANCH  25  27
ENDBRANCH  24  25
ENDBRANCH  23  24
ENDBRANCH  19  23
ENDBRANCH   1  15
BRANCH  11  29
ATOM     29  C   UNL     1      -0.126  11.383  21.111  0.00  0.00    +0.000 A 
ATOM     30  C   UNL     1       0.313  10.173  20.543  0.00  0.00    +0.000 A 
ATOM     31  C   UNL     1       0.200   8.958  21.223  0.00  0.00    +0.000 A 
ATOM     32  C   UNL     1      -0.325   8.927  22.508  0.00  0.00    +0.000 A 
ATOM     33  C   UNL     1      -0.729  10.114  23.111  0.00  0.00    +0.000 A 
ATOM     34  C   UNL     1      -0.639  11.328  22.416  0.00  0.00    +0.000 A 
ENDBRANCH  11  29
TORSDOF 8
ENDMDL
MODEL 9
REMARK VINA RESULT:      -6.7      1.042      1.538
REMARK  Name = 
REMARK  9 active torsions:
REMARK  status: ('A' for Active; 'I' for Inactive)
REMARK    1  A    between atoms: C_1  and  C_2
REMARK    2  A    between atoms: C_2  and  O_3
REMARK    3  A    between atoms: O_3  and  C_4
REMARK    4  A    between atoms: C_6  and  C_7
REMARK    5  A    between atoms: N_17  and  C_18
REMARK    6  A    between atoms: C_27  and  O_28
REMARK    7  A    between atoms: O_28  and  C_29
REMARK    8  A    between atoms: C_29  and  C_30
REMARK    9  A    between atoms: C_30  and  O_32
REMARK                            x       y       z     vdW  Elec       q    Type
REMARK                         _______ _______ _______ _____ _____    ______ ____
ROOT
ATOM      1  C   UNL     1      -0.300  13.011  18.855  0.00  0.00    +0.000 C 
ATOM      2  N   UNL     1      -0.381  14.434  18.574  0.00  0.00    +0.000 N 
ATOM      3  C   UNL     1       0.530  15.334  19.066  0.00  0.00    +0.000 A 
ATOM      4  C   UNL     1       0.554  16.651  18.586  0.00  0.00    +0.000 A 
ATOM      5  C   UNL     1       1.509  17.565  19.031  0.00  0.00    +0.000 A 
ATOM      6  C   UNL     1       2.470  17.169  19.960  0.00  0.00    +0.000 A 
ATOM      7  C   UNL     1       2.469  15.861  20.431  0.00  0.00    +0.000 A 
ATOM      8  C   UNL     1       1.504  14.949  19.976  0.00  0.00    +0.000 A 
ATOM      9  C   UNL     1       1.454  13.582  20.532  0.00  0.00    +0.000 C 
ATOM     10  O   UNL     1       2.333  13.289  21.344  0.00  0.00    +0.000 OA
ATOM     11  N   UNL     1       0.407  12.732  20.122  0.00  0.00    +0.000 N 
ATOM     12  H   UNL     1      -1.256  14.795  18.214  0.00  0.00    +0.000 HD
ENDROOT
BRANCH   1  15
ATOM     13  C   UNL     1      -3.415  11.123  17.636  0.00  0.00    +0.000 A 
ATOM     14  C   UNL     1      -2.114  11.611  17.782  0.00  0.00    +0.000 A 
ATOM     15  C   UNL     1      -1.751  12.522  18.797  0.00  0.00    +0.000 A 
ATOM     16  C   UNL     1      -2.730  12.884  19.729  0.00  0.00    +0.000 A 
ATOM     17 BR   UNL     1      -2.392  14.075  21.168  0.00  0.00    +0.000 Br
ATOM     18  C   UNL     1      -4.023  12.355  19.634  0.00  0.00    +0.000 A 
ATOM     19  C   UNL     1      -4.365  11.461  18.609  0.00  0.00    +0.000 A 
BRANCH  13  20
ATOM     20  O   UNL     1      -3.808  10.346  16.578  0.00  0.00    +0.000 OA
BRANCH  20  22
ATOM     21  C   UNL     1      -3.028  10.083  14.277  0.00  0.00    +0.000 C 
ATOM     22  C   UNL     1      -2.805   9.751  15.743  0.00  0.00    +0.000 C 
ENDBRANCH  20  22
ENDBRANCH  13  20
BRANCH  19  23
ATOM     23  O   UNL     1      -5.668  11.036  18.679  0.00  0.00    +0.000 OA
BRANCH  23  24
ATOM     24  C   UNL     1      -6.631  11.814  17.960  0.00  0.00    +0.000 C 
BRANCH  24  25
ATOM     25  C   UNL     1      -7.479  12.588  18.959  0.00  0.00    +0.000 C 
ATOM     26  O   UNL     1      -7.916  13.712  18.763  0.00  0.00    +0.000 OA
BRANCH  25  27
ATOM     27  O   UNL     1      -7.727  11.900  20.103  0.00  0.00    +0.000 OA
ATOM     28  H   UNL     1      -7.373  12.405  20.867  0.00  0.00    +0.000 HD
ENDBRANCH  25  27
ENDBRANCH  24  25
ENDBRANCH  23  24
ENDBRANCH  19  23
ENDBRANCH   1  15
BRANCH  11  29
ATOM     29  C   UNL     1       0.327  11.417  20.729  0.00  0.00    +0.000 A 
ATOM     30  C   UNL     1      -0.298  11.251  21.978  0.00  0.00    +0.000 A 
ATOM     31  C   UNL     1      -0.386  10.000  22.595  0.00  0.00    +0.000 A 
ATOM     32  C   UNL     1       0.119   8.875  21.959  0.00  0.00    +0.000 A 
ATOM     33  C   UNL     1       0.706   9.003  20.704  0.00  0.00    +0.000 A 
ATOM     34  C   UNL     1       0.817  10.262  20.100  0.00  0.00    +0.000 A 
ENDBRANCH  11  29
TORSDOF 8
ENDMDL
