MODEL 1
REMARK VINA RESULT:      -9.5      0.000      0.000
REMARK  Name = 
REMARK  5 active torsions:
REMARK  status: ('A' for Active; 'I' for Inactive)
REMARK    1  A    between atoms: C_6  and  N_7
REMARK    2  A    between atoms: C_15  and  C_16
REMARK    3  A    between atoms: N_18  and  C_19
REMARK    4  A    between atoms: C_23  and  O_24
REMARK    5  A    between atoms: O_24  and  C_25
REMARK                            x       y       z     vdW  Elec       q    Type
REMARK                         _______ _______ _______ _____ _____    ______ ____
ROOT
ATOM      1  N   UNL     1       2.277   7.290  19.864  0.00  0.00    +0.000 N 
ATOM      2  C   UNL     1       1.582   8.421  19.489  0.00  0.00    +0.000 C 
ATOM      3  O   UNL     1       1.328   8.734  18.324  0.00  0.00    +0.000 OA
ATOM      4  N   UNL     1       1.170   9.255  20.507  0.00  0.00    +0.000 N 
ATOM      5  C   UNL     1       1.343   9.095  21.949  0.00  0.00    +0.000 C 
ATOM      6  C   UNL     1       0.008   9.523  22.531  0.00  0.00    +0.000 C 
ATOM      7  F   UNL     1      -0.858   8.475  22.447  0.00  0.00    +0.000 F 
ATOM      8  C   UNL     1      -0.457  10.623  21.601  0.00  0.00    +0.000 C 
ATOM      9  C   UNL     1       0.067  10.191  20.222  0.00  0.00    +0.000 C 
ATOM     10  H   UNL     1       2.239   6.981  20.822  0.00  0.00    +0.000 HD
ENDROOT
BRANCH   1  16
ATOM     11  N   UNL     1       5.216   6.479  15.631  0.00  0.00    +0.000 N 
ATOM     12  C   UNL     1       5.120   5.344  16.389  0.00  0.00    +0.000 C 
ATOM     13  O   UNL     1       5.747   4.305  16.212  0.00  0.00    +0.000 OA
ATOM     14  N   UNL     1       4.140   5.455  17.387  0.00  0.00    +0.000 N 
ATOM     15  C   UNL     1       3.859   6.602  18.104  0.00  0.00    +0.000 A 
ATOM     16  C   UNL     1       2.827   6.371  18.975  0.00  0.00    +0.000 A 
ATOM     17  C   UNL     1       2.427   5.012  18.790  0.00  0.00    +0.000 A 
ATOM     18  C   UNL     1       1.418   4.195  19.343  0.00  0.00    +0.000 A 
ATOM     19  C   UNL     1       1.264   2.868  18.916  0.00  0.00    +0.000 A 
ATOM     20  C   UNL     1       2.111   2.342  17.948  0.00  0.00    +0.000 A 
ATOM     21  C   UNL     1       3.128   3.119  17.391  0.00  0.00    +0.000 A 
ATOM     22  C   UNL     1       3.274   4.452  17.823  0.00  0.00    +0.000 A 
ATOM     23  H   UNL     1       5.803   6.435  14.810  0.00  0.00    +0.000 HD
ATOM     24  H   UNL     1       4.487   7.183  15.641  0.00  0.00    +0.000 HD
ENDBRANCH   1  16
BRANCH   9  25
ATOM     25  C   UNL     1       0.402  11.463  19.422  0.00  0.00    +0.000 C 
ATOM     26  O   UNL     1      -0.259  11.755  18.416  0.00  0.00    +0.000 OA
ATOM     27  N   UNL     1       1.373  12.284  19.971  0.00  0.00    +0.000 N 
ATOM     28  H   UNL     1       2.100  11.775  20.461  0.00  0.00    +0.000 HD
BRANCH  27  29
ATOM     29  C   UNL     1       1.729  13.528  19.391  0.00  0.00    +0.000 A 
ATOM     30  C   UNL     1       2.845  13.569  18.553  0.00  0.00    +0.000 A 
ATOM     31  C   UNL     1       3.223  14.773  17.954  0.00  0.00    +0.000 A 
ATOM     32  C   UNL     1       2.516  15.936  18.226  0.00  0.00    +0.000 A 
ATOM     33  C   UNL     1       1.401  15.919  19.078  0.00  0.00    +0.000 A 
ATOM     34  C   UNL     1       1.013  14.706  19.658  0.00  0.00    +0.000 A 
BRANCH  33  35
ATOM     35  O   UNL     1       0.852  17.144  19.292  0.00  0.00    +0.000 OA
BRANCH  35  36
ATOM     36  C   UNL     1      -0.055  17.708  18.356  0.00  0.00    +0.000 C 
ATOM     37  F   UNL     1      -0.969  18.539  18.893  0.00  0.00    +0.000 F 
ATOM     38  F   UNL     1       0.639  18.375  17.409  0.00  0.00    +0.000 F 
ATOM     39  F   UNL     1      -0.718  16.696  17.751  0.00  0.00    +0.000 F 
ENDBRANCH  35  36
ENDBRANCH  33  35
ENDBRANCH  27  29
ENDBRANCH   9  25
TORSDOF 5
ENDMDL
MODEL 2
REMARK VINA RESULT:      -9.5      2.311      2.727
REMARK  Name = 
REMARK  5 active torsions:
REMARK  status: ('A' for Active; 'I' for Inactive)
REMARK    1  A    between atoms: C_6  and  N_7
REMARK    2  A    between atoms: C_15  and  C_16
REMARK    3  A    between atoms: N_18  and  C_19
REMARK    4  A    between atoms: C_23  and  O_24
REMARK    5  A    between atoms: O_24  and  C_25
REMARK                            x       y       z     vdW  Elec       q    Type
REMARK                         _______ _______ _______ _____ _____    ______ ____
ROOT
ATOM      1  N   UNL     1       2.274   7.232  19.910  0.00  0.00    +0.000 N 
ATOM      2  C   UNL     1       1.647   8.408  19.555  0.00  0.00    +0.000 C 
ATOM      3  O   UNL     1       1.466   8.785  18.396  0.00  0.00    +0.000 OA
ATOM      4  N   UNL     1       1.218   9.212  20.591  0.00  0.00    +0.000 N 
ATOM      5  C   UNL     1       1.309   8.979  22.030  0.00  0.00    +0.000 C 
ATOM      6  C   UNL     1      -0.035   9.437  22.565  0.00  0.00    +0.000 C 
ATOM      7  F   UNL     1      -0.939   8.433  22.388  0.00  0.00    +0.000 F 
ATOM      8  C   UNL     1      -0.405  10.598  21.667  0.00  0.00    +0.000 C 
ATOM      9  C   UNL     1       0.170  10.208  20.297  0.00  0.00    +0.000 C 
ATOM     10  H   UNL     1       2.174   6.882  20.848  0.00  0.00    +0.000 HD
ENDROOT
BRANCH   1  16
ATOM     11  N   UNL     1       5.208   6.513  15.657  0.00  0.00    +0.000 N 
ATOM     12  C   UNL     1       5.126   5.366  16.399  0.00  0.00    +0.000 C 
ATOM     13  O   UNL     1       5.763   4.336  16.205  0.00  0.00    +0.000 OA
ATOM     14  N   UNL     1       4.148   5.452  17.401  0.00  0.00    +0.000 N 
ATOM     15  C   UNL     1       3.857   6.585  18.135  0.00  0.00    +0.000 A 
ATOM     16  C   UNL     1       2.831   6.332  19.006  0.00  0.00    +0.000 A 
ATOM     17  C   UNL     1       2.444   4.972  18.802  0.00  0.00    +0.000 A 
ATOM     18  C   UNL     1       1.445   4.136  19.346  0.00  0.00    +0.000 A 
ATOM     19  C   UNL     1       1.303   2.815  18.901  0.00  0.00    +0.000 A 
ATOM     20  C   UNL     1       2.153   2.310  17.923  0.00  0.00    +0.000 A 
ATOM     21  C   UNL     1       3.160   3.106  17.374  0.00  0.00    +0.000 A 
ATOM     22  C   UNL     1       3.293   4.434  17.825  0.00  0.00    +0.000 A 
ATOM     23  H   UNL     1       5.793   6.486  14.833  0.00  0.00    +0.000 HD
ATOM     24  H   UNL     1       4.472   7.209  15.679  0.00  0.00    +0.000 HD
ENDBRANCH   1  16
BRANCH   9  25
ATOM     25  C   UNL     1       0.598  11.499  19.576  0.00  0.00    +0.000 C 
ATOM     26  O   UNL     1       0.032  11.842  18.529  0.00  0.00    +0.000 OA
ATOM     27  N   UNL     1       1.535  12.277  20.236  0.00  0.00    +0.000 N 
ATOM     28  H   UNL     1       2.207  11.735  20.768  0.00  0.00    +0.000 HD
BRANCH  27  29
ATOM     29  C   UNL     1       1.964  13.532  19.736  0.00  0.00    +0.000 A 
ATOM     30  C   UNL     1       1.194  14.658  20.034  0.00  0.00    +0.000 A 
ATOM     31  C   UNL     1       1.589  15.915  19.569  0.00  0.00    +0.000 A 
ATOM     32  C   UNL     1       2.722  16.039  18.777  0.00  0.00    +0.000 A 
ATOM     33  C   UNL     1       3.500  14.917  18.452  0.00  0.00    +0.000 A 
ATOM     34  C   UNL     1       3.113  13.663  18.939  0.00  0.00    +0.000 A 
BRANCH  33  35
ATOM     35  O   UNL     1       4.541  15.189  17.622  0.00  0.00    +0.000 OA
BRANCH  35  36
ATOM     36  C   UNL     1       5.874  14.881  18.001  0.00  0.00    +0.000 C 
ATOM     37  F   UNL     1       6.792  15.783  17.602  0.00  0.00    +0.000 F 
ATOM     38  F   UNL     1       5.938  14.759  19.344  0.00  0.00    +0.000 F 
ATOM     39  F   UNL     1       6.201  13.686  17.458  0.00  0.00    +0.000 F 
ENDBRANCH  35  36
ENDBRANCH  33  35
ENDBRANCH  27  29
ENDBRANCH   9  25
TORSDOF 5
ENDMDL
MODEL 3
REMARK VINA RESULT:      -9.2      5.116      9.735
REMARK  Name = 
REMARK  5 active torsions:
REMARK  status: ('A' for Active; 'I' for Inactive)
REMARK    1  A    between atoms: C_6  and  N_7
REMARK    2  A    between atoms: C_15  and  C_16
REMARK    3  A    between atoms: N_18  and  C_19
REMARK    4  A    between atoms: C_23  and  O_24
REMARK    5  A    between atoms: O_24  and  C_25
REMARK                            x       y       z     vdW  Elec       q    Type
REMARK                         _______ _______ _______ _____ _____    ______ ____
ROOT
ATOM      1  N   UNL     1       1.100   7.091  19.892  0.00  0.00    +0.000 N 
ATOM      2  C   UNL     1       2.322   6.460  19.794  0.00  0.00    +0.000 C 
ATOM      3  O   UNL     1       3.411   7.037  19.780  0.00  0.00    +0.000 OA
ATOM      4  N   UNL     1       2.296   5.085  19.685  0.00  0.00    +0.000 N 
ATOM      5  C   UNL     1       1.144   4.187  19.687  0.00  0.00    +0.000 C 
ATOM      6  C   UNL     1       1.586   3.020  20.550  0.00  0.00    +0.000 C 
ATOM      7  F   UNL     1       1.415   3.358  21.859  0.00  0.00    +0.000 F 
ATOM      8  C   UNL     1       3.067   2.898  20.263  0.00  0.00    +0.000 C 
ATOM      9  C   UNL     1       3.523   4.347  20.036  0.00  0.00    +0.000 C 
ATOM     10  H   UNL     1       0.283   6.554  20.135  0.00  0.00    +0.000 HD
ENDROOT
BRANCH   1  16
ATOM     11  N   UNL     1       2.429  11.764  17.992  0.00  0.00    +0.000 N 
ATOM     12  C   UNL     1       1.223  11.819  18.636  0.00  0.00    +0.000 C 
ATOM     13  O   UNL     1       0.459  12.778  18.654  0.00  0.00    +0.000 OA
ATOM     14  N   UNL     1       0.961  10.653  19.371  0.00  0.00    +0.000 N 
ATOM     15  C   UNL     1       1.301   9.372  18.980  0.00  0.00    +0.000 A 
ATOM     16  C   UNL     1       0.927   8.472  19.942  0.00  0.00    +0.000 A 
ATOM     17  C   UNL     1       0.332   9.224  21.001  0.00  0.00    +0.000 A 
ATOM     18  C   UNL     1      -0.205   8.897  22.265  0.00  0.00    +0.000 A 
ATOM     19  C   UNL     1      -0.701   9.901  23.108  0.00  0.00    +0.000 A 
ATOM     20  C   UNL     1      -0.677  11.230  22.703  0.00  0.00    +0.000 A 
ATOM     21  C   UNL     1      -0.165  11.586  21.454  0.00  0.00    +0.000 A 
ATOM     22  C   UNL     1       0.335  10.571  20.614  0.00  0.00    +0.000 A 
ATOM     23  H   UNL     1       2.753  12.613  17.550  0.00  0.00    +0.000 HD
ATOM     24  H   UNL     1       3.130  11.077  18.244  0.00  0.00    +0.000 HD
ENDBRANCH   1  16
BRANCH   9  25
ATOM     25  C   UNL     1       4.664   4.329  19.001  0.00  0.00    +0.000 C 
ATOM     26  O   UNL     1       5.725   3.745  19.257  0.00  0.00    +0.000 OA
ATOM     27  N   UNL     1       4.366   4.882  17.766  0.00  0.00    +0.000 N 
ATOM     28  H   UNL     1       3.729   5.669  17.819  0.00  0.00    +0.000 HD
BRANCH  27  29
ATOM     29  C   UNL     1       5.287   4.865  16.687  0.00  0.00    +0.000 A 
ATOM     30  C   UNL     1       6.196   5.919  16.581  0.00  0.00    +0.000 A 
ATOM     31  C   UNL     1       7.126   5.934  15.538  0.00  0.00    +0.000 A 
ATOM     32  C   UNL     1       7.119   4.926  14.586  0.00  0.00    +0.000 A 
ATOM     33  C   UNL     1       6.202   3.866  14.666  0.00  0.00    +0.000 A 
ATOM     34  C   UNL     1       5.287   3.843  15.724  0.00  0.00    +0.000 A 
BRANCH  33  35
ATOM     35  O   UNL     1       6.280   2.990  13.629  0.00  0.00    +0.000 OA
BRANCH  35  36
ATOM     36  C   UNL     1       5.701   3.300  12.370  0.00  0.00    +0.000 C 
ATOM     37  F   UNL     1       4.510   3.926  12.440  0.00  0.00    +0.000 F 
ATOM     38  F   UNL     1       6.557   4.069  11.664  0.00  0.00    +0.000 F 
ATOM     39  F   UNL     1       5.524   2.143  11.692  0.00  0.00    +0.000 F 
ENDBRANCH  35  36
ENDBRANCH  33  35
ENDBRANCH  27  29
ENDBRANCH   9  25
TORSDOF 5
ENDMDL
MODEL 4
REMARK VINA RESULT:      -9.0      1.438      2.015
REMARK  Name = 
REMARK  5 active torsions:
REMARK  status: ('A' for Active; 'I' for Inactive)
REMARK    1  A    between atoms: C_6  and  N_7
REMARK    2  A    between atoms: C_15  and  C_16
REMARK    3  A    between atoms: N_18  and  C_19
REMARK    4  A    between atoms: C_23  and  O_24
REMARK    5  A    between atoms: O_24  and  C_25
REMARK                            x       y       z     vdW  Elec       q    Type
REMARK                         _______ _______ _______ _____ _____    ______ ____
ROOT
ATOM      1  N   UNL     1       2.248   7.308  19.941  0.00  0.00    +0.000 N 
ATOM      2  C   UNL     1       1.569   8.465  19.623  0.00  0.00    +0.000 C 
ATOM      3  O   UNL     1       1.335   8.849  18.476  0.00  0.00    +0.000 OA
ATOM      4  N   UNL     1       1.148   9.241  20.683  0.00  0.00    +0.000 N 
ATOM      5  C   UNL     1       1.296   8.995  22.115  0.00  0.00    +0.000 C 
ATOM      6  C   UNL     1      -0.044   9.399  22.701  0.00  0.00    +0.000 C 
ATOM      7  F   UNL     1      -0.918   8.366  22.541  0.00  0.00    +0.000 F 
ATOM      8  C   UNL     1      -0.485  10.556  21.830  0.00  0.00    +0.000 C 
ATOM      9  C   UNL     1       0.057  10.202  20.437  0.00  0.00    +0.000 C 
ATOM     10  H   UNL     1       2.193   6.943  20.878  0.00  0.00    +0.000 HD
ENDROOT
BRANCH   1  16
ATOM     11  N   UNL     1       5.133   6.736  15.632  0.00  0.00    +0.000 N 
ATOM     12  C   UNL     1       5.077   5.570  16.347  0.00  0.00    +0.000 C 
ATOM     13  O   UNL     1       5.726   4.554  16.118  0.00  0.00    +0.000 OA
ATOM     14  N   UNL     1       4.112   5.618  17.364  0.00  0.00    +0.000 N 
ATOM     15  C   UNL     1       3.816   6.728  18.130  0.00  0.00    +0.000 A 
ATOM     16  C   UNL     1       2.805   6.438  19.008  0.00  0.00    +0.000 A 
ATOM     17  C   UNL     1       2.435   5.078  18.775  0.00  0.00    +0.000 A 
ATOM     18  C   UNL     1       1.455   4.215  19.312  0.00  0.00    +0.000 A 
ATOM     19  C   UNL     1       1.326   2.903  18.836  0.00  0.00    +0.000 A 
ATOM     20  C   UNL     1       2.169   2.436  17.834  0.00  0.00    +0.000 A 
ATOM     21  C   UNL     1       3.157   3.259  17.291  0.00  0.00    +0.000 A 
ATOM     22  C   UNL     1       3.278   4.577  17.774  0.00  0.00    +0.000 A 
ATOM     23  H   UNL     1       5.706   6.739  14.800  0.00  0.00    +0.000 HD
ATOM     24  H   UNL     1       4.387   7.421  15.682  0.00  0.00    +0.000 HD
ENDBRANCH   1  16
BRANCH   9  25
ATOM     25  C   UNL     1       0.415  11.517  19.719  0.00  0.00    +0.000 C 
ATOM     26  O   UNL     1       0.656  11.514  18.504  0.00  0.00    +0.000 OA
ATOM     27  N   UNL     1       0.318  12.668  20.483  0.00  0.00    +0.000 N 
ATOM     28  H   UNL     1       0.565  12.527  21.456  0.00  0.00    +0.000 HD
BRANCH  27  29
ATOM     29  C   UNL     1       0.537  13.959  19.938  0.00  0.00    +0.000 A 
ATOM     30  C   UNL     1      -0.554  14.635  19.390  0.00  0.00    +0.000 A 
ATOM     31  C   UNL     1      -0.383  15.914  18.853  0.00  0.00    +0.000 A 
ATOM     32  C   UNL     1       0.878  16.493  18.826  0.00  0.00    +0.000 A 
ATOM     33  C   UNL     1       1.990  15.822  19.357  0.00  0.00    +0.000 A 
ATOM     34  C   UNL     1       1.810  14.551  19.914  0.00  0.00    +0.000 A 
BRANCH  33  35
ATOM     35  O   UNL     1       3.163  16.491  19.203  0.00  0.00    +0.000 OA
BRANCH  35  36
ATOM     36  C   UNL     1       3.882  16.427  17.980  0.00  0.00    +0.000 C 
ATOM     37  F   UNL     1       4.025  15.184  17.479  0.00  0.00    +0.000 F 
ATOM     38  F   UNL     1       3.267  17.201  17.060  0.00  0.00    +0.000 F 
ATOM     39  F   UNL     1       5.118  16.934  18.192  0.00  0.00    +0.000 F 
ENDBRANCH  35  36
ENDBRANCH  33  35
ENDBRANCH  27  29
ENDBRANCH   9  25
TORSDOF 5
ENDMDL
MODEL 5
REMARK VINA RESULT:      -9.0      1.056      1.180
REMARK  Name = 
REMARK  5 active torsions:
REMARK  status: ('A' for Active; 'I' for Inactive)
REMARK    1  A    between atoms: C_6  and  N_7
REMARK    2  A    between atoms: C_15  and  C_16
REMARK    3  A    between atoms: N_18  and  C_19
REMARK    4  A    between atoms: C_23  and  O_24
REMARK    5  A    between atoms: O_24  and  C_25
REMARK                            x       y       z     vdW  Elec       q    Type
REMARK                         _______ _______ _______ _____ _____    ______ ____
ROOT
ATOM      1  N   UNL     1       2.260   7.345  19.813  0.00  0.00    +0.000 N 
ATOM      2  C   UNL     1       1.556   8.476  19.456  0.00  0.00    +0.000 C 
ATOM      3  O   UNL     1       1.304   8.809  18.296  0.00  0.00    +0.000 OA
ATOM      4  N   UNL     1       1.130   9.285  20.488  0.00  0.00    +0.000 N 
ATOM      5  C   UNL     1       1.296   9.099  21.927  0.00  0.00    +0.000 C 
ATOM      6  C   UNL     1      -0.047   9.501  22.510  0.00  0.00    +0.000 C 
ATOM      7  F   UNL     1      -0.902   8.447  22.400  0.00  0.00    +0.000 F 
ATOM      8  C   UNL     1      -0.517  10.615  21.599  0.00  0.00    +0.000 C 
ATOM      9  C   UNL     1       0.018  10.216  20.215  0.00  0.00    +0.000 C 
ATOM     10  H   UNL     1       2.219   7.017  20.764  0.00  0.00    +0.000 HD
ENDROOT
BRANCH   1  16
ATOM     11  N   UNL     1       5.203   6.650  15.562  0.00  0.00    +0.000 N 
ATOM     12  C   UNL     1       5.129   5.502  16.303  0.00  0.00    +0.000 C 
ATOM     13  O   UNL     1       5.774   4.477  16.109  0.00  0.00    +0.000 OA
ATOM     14  N   UNL     1       4.149   5.580  17.304  0.00  0.00    +0.000 N 
ATOM     15  C   UNL     1       3.849   6.711  18.039  0.00  0.00    +0.000 A 
ATOM     16  C   UNL     1       2.824   6.449  18.908  0.00  0.00    +0.000 A 
ATOM     17  C   UNL     1       2.448   5.086  18.704  0.00  0.00    +0.000 A 
ATOM     18  C   UNL     1       1.455   4.243  19.246  0.00  0.00    +0.000 A 
ATOM     19  C   UNL     1       1.323   2.920  18.800  0.00  0.00    +0.000 A 
ATOM     20  C   UNL     1       2.178   2.423  17.823  0.00  0.00    +0.000 A 
ATOM     21  C   UNL     1       3.179   3.227  17.275  0.00  0.00    +0.000 A 
ATOM     22  C   UNL     1       3.302   4.556  17.727  0.00  0.00    +0.000 A 
ATOM     23  H   UNL     1       5.788   6.629  14.739  0.00  0.00    +0.000 HD
ATOM     24  H   UNL     1       4.462   7.340  15.584  0.00  0.00    +0.000 HD
ENDBRANCH   1  16
BRANCH   9  25
ATOM     25  C   UNL     1       0.345  11.507  19.442  0.00  0.00    +0.000 C 
ATOM     26  O   UNL     1      -0.406  11.894  18.536  0.00  0.00    +0.000 OA
ATOM     27  N   UNL     1       1.425  12.235  19.911  0.00  0.00    +0.000 N 
ATOM     28  H   UNL     1       2.168  11.656  20.288  0.00  0.00    +0.000 HD
BRANCH  27  29
ATOM     29  C   UNL     1       1.797  13.484  19.353  0.00  0.00    +0.000 A 
ATOM     30  C   UNL     1       2.902  13.523  18.501  0.00  0.00    +0.000 A 
ATOM     31  C   UNL     1       3.293  14.733  17.922  0.00  0.00    +0.000 A 
ATOM     32  C   UNL     1       2.611  15.902  18.228  0.00  0.00    +0.000 A 
ATOM     33  C   UNL     1       1.508  15.887  19.095  0.00  0.00    +0.000 A 
ATOM     34  C   UNL     1       1.105  14.669  19.655  0.00  0.00    +0.000 A 
BRANCH  33  35
ATOM     35  O   UNL     1       0.984  17.116  19.342  0.00  0.00    +0.000 OA
BRANCH  35  36
ATOM     36  C   UNL     1       1.270  17.798  20.555  0.00  0.00    +0.000 C 
ATOM     37  F   UNL     1       1.483  16.993  21.614  0.00  0.00    +0.000 F 
ATOM     38  F   UNL     1       2.353  18.585  20.379  0.00  0.00    +0.000 F 
ATOM     39  F   UNL     1       0.218  18.597  20.845  0.00  0.00    +0.000 F 
ENDBRANCH  35  36
ENDBRANCH  33  35
ENDBRANCH  27  29
ENDBRANCH   9  25
TORSDOF 5
ENDMDL
MODEL 6
REMARK VINA RESULT:      -8.8      1.233      2.348
REMARK  Name = 
REMARK  5 active torsions:
REMARK  status: ('A' for Active; 'I' for Inactive)
REMARK    1  A    between atoms: C_6  and  N_7
REMARK    2  A    between atoms: C_15  and  C_16
REMARK    3  A    between atoms: N_18  and  C_19
REMARK    4  A    between atoms: C_23  and  O_24
REMARK    5  A    between atoms: O_24  and  C_25
REMARK                            x       y       z     vdW  Elec       q    Type
REMARK                         _______ _______ _______ _____ _____    ______ ____
ROOT
ATOM      1  N   UNL     1       2.050   7.087  20.256  0.00  0.00    +0.000 N 
ATOM      2  C   UNL     1       1.472   8.261  19.821  0.00  0.00    +0.000 C 
ATOM      3  O   UNL     1       1.193   8.514  18.648  0.00  0.00    +0.000 OA
ATOM      4  N   UNL     1       1.215   9.213  20.786  0.00  0.00    +0.000 N 
ATOM      5  C   UNL     1       1.446   9.143  22.226  0.00  0.00    +0.000 C 
ATOM      6  C   UNL     1       0.203   9.771  22.831  0.00  0.00    +0.000 C 
ATOM      7  F   UNL     1      -0.783   8.831  22.871  0.00  0.00    +0.000 F 
ATOM      8  C   UNL     1      -0.180  10.845  21.836  0.00  0.00    +0.000 C 
ATOM      9  C   UNL     1       0.214  10.251  20.475  0.00  0.00    +0.000 C 
ATOM     10  H   UNL     1       2.028   6.858  21.236  0.00  0.00    +0.000 HD
ENDROOT
BRANCH   1  16
ATOM     11  N   UNL     1       2.140   1.944  19.383  0.00  0.00    +0.000 N 
ATOM     12  C   UNL     1       2.340   2.645  18.225  0.00  0.00    +0.000 C 
ATOM     13  O   UNL     1       2.386   2.169  17.095  0.00  0.00    +0.000 OA
ATOM     14  N   UNL     1       2.574   4.007  18.463  0.00  0.00    +0.000 N 
ATOM     15  C   UNL     1       1.961   4.761  19.444  0.00  0.00    +0.000 A 
ATOM     16  C   UNL     1       2.440   6.044  19.420  0.00  0.00    +0.000 A 
ATOM     17  C   UNL     1       3.417   6.100  18.379  0.00  0.00    +0.000 A 
ATOM     18  C   UNL     1       4.282   7.101  17.888  0.00  0.00    +0.000 A 
ATOM     19  C   UNL     1       5.171   6.822  16.840  0.00  0.00    +0.000 A 
ATOM     20  C   UNL     1       5.202   5.556  16.268  0.00  0.00    +0.000 A 
ATOM     21  C   UNL     1       4.351   4.547  16.721  0.00  0.00    +0.000 A 
ATOM     22  C   UNL     1       3.463   4.835  17.777  0.00  0.00    +0.000 A 
ATOM     23  H   UNL     1       2.096   0.938  19.310  0.00  0.00    +0.000 HD
ATOM     24  H   UNL     1       2.395   2.332  20.284  0.00  0.00    +0.000 HD
ENDBRANCH   1  16
BRANCH   9  25
ATOM     25  C   UNL     1       0.651  11.410  19.560  0.00  0.00    +0.000 C 
ATOM     26  O   UNL     1       0.147  11.536  18.435  0.00  0.00    +0.000 OA
ATOM     27  N   UNL     1       1.517  12.331  20.124  0.00  0.00    +0.000 N 
ATOM     28  H   UNL     1       2.167  11.921  20.785  0.00  0.00    +0.000 HD
BRANCH  27  29
ATOM     29  C   UNL     1       1.941  13.494  19.432  0.00  0.00    +0.000 A 
ATOM     30  C   UNL     1       3.058  13.395  18.601  0.00  0.00    +0.000 A 
ATOM     31  C   UNL     1       3.502  14.514  17.893  0.00  0.00    +0.000 A 
ATOM     32  C   UNL     1       2.860  15.735  18.050  0.00  0.00    +0.000 A 
ATOM     33  C   UNL     1       1.745  15.860  18.893  0.00  0.00    +0.000 A 
ATOM     34  C   UNL     1       1.290  14.730  19.583  0.00  0.00    +0.000 A 
BRANCH  33  35
ATOM     35  O   UNL     1       1.265  17.127  18.988  0.00  0.00    +0.000 OA
BRANCH  35  36
ATOM     36  C   UNL     1       0.268  17.595  18.092  0.00  0.00    +0.000 C 
ATOM     37  F   UNL     1      -0.629  16.664  17.714  0.00  0.00    +0.000 F 
ATOM     38  F   UNL     1      -0.390  18.630  18.658  0.00  0.00    +0.000 F 
ATOM     39  F   UNL     1       0.885  18.054  16.979  0.00  0.00    +0.000 F 
ENDBRANCH  35  36
ENDBRANCH  33  35
ENDBRANCH  27  29
ENDBRANCH   9  25
TORSDOF 5
ENDMDL
MODEL 7
REMARK VINA RESULT:      -8.8      5.384      9.887
REMARK  Name = 
REMARK  5 active torsions:
REMARK  status: ('A' for Active; 'I' for Inactive)
REMARK    1  A    between atoms: C_6  and  N_7
REMARK    2  A    between atoms: C_15  and  C_16
REMARK    3  A    between atoms: N_18  and  C_19
REMARK    4  A    between atoms: C_23  and  O_24
REMARK    5  A    between atoms: O_24  and  C_25
REMARK                            x       y       z     vdW  Elec       q    Type
REMARK                         _______ _______ _______ _____ _____    ______ ____
ROOT
ATOM      1  N   UNL     1       0.871   6.676  20.465  0.00  0.00    +0.000 N 
ATOM      2  C   UNL     1       2.104   6.090  20.266  0.00  0.00    +0.000 C 
ATOM      3  O   UNL     1       3.180   6.689  20.310  0.00  0.00    +0.000 OA
ATOM      4  N   UNL     1       2.104   4.741  19.979  0.00  0.00    +0.000 N 
ATOM      5  C   UNL     1       0.971   3.825  19.881  0.00  0.00    +0.000 C 
ATOM      6  C   UNL     1       1.452   2.565  20.578  0.00  0.00    +0.000 C 
ATOM      7  F   UNL     1       1.298   2.726  21.922  0.00  0.00    +0.000 F 
ATOM      8  C   UNL     1       2.930   2.515  20.254  0.00  0.00    +0.000 C 
ATOM      9  C   UNL     1       3.352   3.991  20.211  0.00  0.00    +0.000 C 
ATOM     10  H   UNL     1       0.071   6.093  20.649  0.00  0.00    +0.000 HD
ENDROOT
BRANCH   1  16
ATOM     11  N   UNL     1      -1.609  10.353  23.211  0.00  0.00    +0.000 N 
ATOM     12  C   UNL     1      -0.474  10.851  22.633  0.00  0.00    +0.000 C 
ATOM     13  O   UNL     1       0.008  11.961  22.832  0.00  0.00    +0.000 OA
ATOM     14  N   UNL     1       0.072   9.967  21.690  0.00  0.00    +0.000 N 
ATOM     15  C   UNL     1       0.092   8.591  21.806  0.00  0.00    +0.000 A 
ATOM     16  C   UNL     1       0.671   8.034  20.697  0.00  0.00    +0.000 A 
ATOM     17  C   UNL     1       1.024   9.113  19.830  0.00  0.00    +0.000 A 
ATOM     18  C   UNL     1       1.603   9.200  18.545  0.00  0.00    +0.000 A 
ATOM     19  C   UNL     1       1.798  10.447  17.936  0.00  0.00    +0.000 A 
ATOM     20  C   UNL     1       1.431  11.614  18.597  0.00  0.00    +0.000 A 
ATOM     21  C   UNL     1       0.869  11.563  19.874  0.00  0.00    +0.000 A 
ATOM     22  C   UNL     1       0.673  10.306  20.477  0.00  0.00    +0.000 A 
ATOM     23  H   UNL     1      -2.137  10.979  23.802  0.00  0.00    +0.000 HD
ATOM     24  H   UNL     1      -2.108   9.570  22.804  0.00  0.00    +0.000 HD
ENDBRANCH   1  16
BRANCH   9  25
ATOM     25  C   UNL     1       4.473   4.135  19.164  0.00  0.00    +0.000 C 
ATOM     26  O   UNL     1       5.592   3.649  19.383  0.00  0.00    +0.000 OA
ATOM     27  N   UNL     1       4.104   4.709  17.959  0.00  0.00    +0.000 N 
ATOM     28  H   UNL     1       3.392   5.425  18.055  0.00  0.00    +0.000 HD
BRANCH  27  29
ATOM     29  C   UNL     1       5.005   4.833  16.872  0.00  0.00    +0.000 A 
ATOM     30  C   UNL     1       5.708   6.031  16.731  0.00  0.00    +0.000 A 
ATOM     31  C   UNL     1       6.613   6.189  15.679  0.00  0.00    +0.000 A 
ATOM     32  C   UNL     1       6.783   5.173  14.750  0.00  0.00    +0.000 A 
ATOM     33  C   UNL     1       6.074   3.966  14.864  0.00  0.00    +0.000 A 
ATOM     34  C   UNL     1       5.185   3.804  15.933  0.00  0.00    +0.000 A 
BRANCH  33  35
ATOM     35  O   UNL     1       6.303   3.094  13.847  0.00  0.00    +0.000 OA
BRANCH  35  36
ATOM     36  C   UNL     1       5.754   3.321  12.557  0.00  0.00    +0.000 C 
ATOM     37  F   UNL     1       5.523   2.203  11.842  0.00  0.00    +0.000 F 
ATOM     38  F   UNL     1       4.598   4.008  12.679  0.00  0.00    +0.000 F 
ATOM     39  F   UNL     1       6.623   4.089  11.860  0.00  0.00    +0.000 F 
ENDBRANCH  35  36
ENDBRANCH  33  35
ENDBRANCH  27  29
ENDBRANCH   9  25
TORSDOF 5
ENDMDL
MODEL 8
REMARK VINA RESULT:      -8.8      2.635      3.586
REMARK  Name = 
REMARK  5 active torsions:
REMARK  status: ('A' for Active; 'I' for Inactive)
REMARK    1  A    between atoms: C_6  and  N_7
REMARK    2  A    between atoms: C_15  and  C_16
REMARK    3  A    between atoms: N_18  and  C_19
REMARK    4  A    between atoms: C_23  and  O_24
REMARK    5  A    between atoms: O_24  and  C_25
REMARK                            x       y       z     vdW  Elec       q    Type
REMARK                         _______ _______ _______ _____ _____    ______ ____
ROOT
ATOM      1  N   UNL     1       2.000   7.122  20.308  0.00  0.00    +0.000 N 
ATOM      2  C   UNL     1       1.467   8.318  19.875  0.00  0.00    +0.000 C 
ATOM      3  O   UNL     1       1.237   8.598  18.697  0.00  0.00    +0.000 OA
ATOM      4  N   UNL     1       1.198   9.258  20.847  0.00  0.00    +0.000 N 
ATOM      5  C   UNL     1       1.375   9.157  22.294  0.00  0.00    +0.000 C 
ATOM      6  C   UNL     1       0.126   9.805  22.865  0.00  0.00    +0.000 C 
ATOM      7  F   UNL     1      -0.883   8.889  22.852  0.00  0.00    +0.000 F 
ATOM      8  C   UNL     1      -0.195  10.905  21.877  0.00  0.00    +0.000 C 
ATOM      9  C   UNL     1       0.235  10.326  20.521  0.00  0.00    +0.000 C 
ATOM     10  H   UNL     1       1.937   6.876  21.283  0.00  0.00    +0.000 HD
ENDROOT
BRANCH   1  16
ATOM     11  N   UNL     1       2.136   1.982  19.425  0.00  0.00    +0.000 N 
ATOM     12  C   UNL     1       2.321   2.687  18.267  0.00  0.00    +0.000 C 
ATOM     13  O   UNL     1       2.365   2.214  17.135  0.00  0.00    +0.000 OA
ATOM     14  N   UNL     1       2.544   4.051  18.506  0.00  0.00    +0.000 N 
ATOM     15  C   UNL     1       1.929   4.797  19.492  0.00  0.00    +0.000 A 
ATOM     16  C   UNL     1       2.396   6.085  19.468  0.00  0.00    +0.000 A 
ATOM     17  C   UNL     1       3.365   6.152  18.421  0.00  0.00    +0.000 A 
ATOM     18  C   UNL     1       4.217   7.163  17.926  0.00  0.00    +0.000 A 
ATOM     19  C   UNL     1       5.101   6.895  16.872  0.00  0.00    +0.000 A 
ATOM     20  C   UNL     1       5.142   5.630  16.297  0.00  0.00    +0.000 A 
ATOM     21  C   UNL     1       4.303   4.612  16.754  0.00  0.00    +0.000 A 
ATOM     22  C   UNL     1       3.420   4.889  17.816  0.00  0.00    +0.000 A 
ATOM     23  H   UNL     1       2.101   0.975  19.350  0.00  0.00    +0.000 HD
ATOM     24  H   UNL     1       2.393   2.371  20.325  0.00  0.00    +0.000 HD
ENDBRANCH   1  16
BRANCH   9  25
ATOM     25  C   UNL     1       0.732  11.490  19.643  0.00  0.00    +0.000 C 
ATOM     26  O   UNL     1       0.348  11.590  18.470  0.00  0.00    +0.000 OA
ATOM     27  N   UNL     1       1.505  12.443  20.285  0.00  0.00    +0.000 N 
ATOM     28  H   UNL     1       2.093  12.058  21.017  0.00  0.00    +0.000 HD
BRANCH  27  29
ATOM     29  C   UNL     1       1.967  13.612  19.629  0.00  0.00    +0.000 A 
ATOM     30  C   UNL     1       1.168  14.755  19.682  0.00  0.00    +0.000 A 
ATOM     31  C   UNL     1       1.592  15.931  19.058  0.00  0.00    +0.000 A 
ATOM     32  C   UNL     1       2.785  15.950  18.348  0.00  0.00    +0.000 A 
ATOM     33  C   UNL     1       3.594  14.806  18.268  0.00  0.00    +0.000 A 
ATOM     34  C   UNL     1       3.176  13.637  18.915  0.00  0.00    +0.000 A 
BRANCH  33  35
ATOM     35  O   UNL     1       4.697  14.963  17.491  0.00  0.00    +0.000 OA
BRANCH  35  36
ATOM     36  C   UNL     1       5.998  14.778  18.028  0.00  0.00    +0.000 C 
ATOM     37  F   UNL     1       6.035  14.620  19.365  0.00  0.00    +0.000 F 
ATOM     38  F   UNL     1       6.571  13.703  17.445  0.00  0.00    +0.000 F 
ATOM     39  F   UNL     1       6.740  15.865  17.716  0.00  0.00    +0.000 F 
ENDBRANCH  35  36
ENDBRANCH  33  35
ENDBRANCH  27  29
ENDBRANCH   9  25
TORSDOF 5
ENDMDL
MODEL 9
REMARK VINA RESULT:      -8.7      0.830      1.088
REMARK  Name = 
REMARK  5 active torsions:
REMARK  status: ('A' for Active; 'I' for Inactive)
REMARK    1  A    between atoms: C_6  and  N_7
REMARK    2  A    between atoms: C_15  and  C_16
REMARK    3  A    between atoms: N_18  and  C_19
REMARK    4  A    between atoms: C_23  and  O_24
REMARK    5  A    between atoms: O_24  and  C_25
REMARK                            x       y       z     vdW  Elec       q    Type
REMARK                         _______ _______ _______ _____ _____    ______ ____
ROOT
ATOM      1  N   UNL     1       2.051   7.311  20.477  0.00  0.00    +0.000 N 
ATOM      2  C   UNL     1       1.513   8.518  20.086  0.00  0.00    +0.000 C 
ATOM      3  O   UNL     1       1.359   8.873  18.916  0.00  0.00    +0.000 OA
ATOM      4  N   UNL     1       1.147   9.383  21.097  0.00  0.00    +0.000 N 
ATOM      5  C   UNL     1       1.223   9.188  22.542  0.00  0.00    +0.000 C 
ATOM      6  C   UNL     1      -0.084   9.761  23.063  0.00  0.00    +0.000 C 
ATOM      7  F   UNL     1      -1.059   8.822  22.915  0.00  0.00    +0.000 F 
ATOM      8  C   UNL     1      -0.367  10.918  22.129  0.00  0.00    +0.000 C 
ATOM      9  C   UNL     1       0.176  10.445  20.772  0.00  0.00    +0.000 C 
ATOM     10  H   UNL     1       1.927   6.997  21.426  0.00  0.00    +0.000 HD
ENDROOT
BRANCH   1  16
ATOM     11  N   UNL     1       4.845   6.255  16.200  0.00  0.00    +0.000 N 
ATOM     12  C   UNL     1       4.718   5.146  16.992  0.00  0.00    +0.000 C 
ATOM     13  O   UNL     1       5.294   4.076  16.829  0.00  0.00    +0.000 OA
ATOM     14  N   UNL     1       3.769   5.327  18.009  0.00  0.00    +0.000 N 
ATOM     15  C   UNL     1       3.557   6.505  18.699  0.00  0.00    +0.000 A 
ATOM     16  C   UNL     1       2.538   6.344  19.601  0.00  0.00    +0.000 A 
ATOM     17  C   UNL     1       2.074   5.000  19.464  0.00  0.00    +0.000 A 
ATOM     18  C   UNL     1       1.044   4.243  20.063  0.00  0.00    +0.000 A 
ATOM     19  C   UNL     1       0.821   2.914  19.677  0.00  0.00    +0.000 A 
ATOM     20  C   UNL     1       1.620   2.324  18.705  0.00  0.00    +0.000 A 
ATOM     21  C   UNL     1       2.656   3.040  18.102  0.00  0.00    +0.000 A 
ATOM     22  C   UNL     1       2.871   4.376  18.493  0.00  0.00    +0.000 A 
ATOM     23  H   UNL     1       5.409   6.163  15.366  0.00  0.00    +0.000 HD
ATOM     24  H   UNL     1       4.148   6.991  16.207  0.00  0.00    +0.000 HD
ENDBRANCH   1  16
BRANCH   9  25
ATOM     25  C   UNL     1       0.698  11.678  20.013  0.00  0.00    +0.000 C 
ATOM     26  O   UNL     1       0.356  11.875  18.838  0.00  0.00    +0.000 OA
ATOM     27  N   UNL     1       1.441  12.577  20.760  0.00  0.00    +0.000 N 
ATOM     28  H   UNL     1       2.004  12.136  21.478  0.00  0.00    +0.000 HD
BRANCH  27  29
ATOM     29  C   UNL     1       1.918  13.798  20.220  0.00  0.00    +0.000 A 
ATOM     30  C   UNL     1       3.287  13.917  19.970  0.00  0.00    +0.000 A 
ATOM     31  C   UNL     1       3.796  15.100  19.428  0.00  0.00    +0.000 A 
ATOM     32  C   UNL     1       2.950  16.171  19.178  0.00  0.00    +0.000 A 
ATOM     33  C   UNL     1       1.573  16.077  19.438  0.00  0.00    +0.000 A 
ATOM     34  C   UNL     1       1.064  14.882  19.960  0.00  0.00    +0.000 A 
BRANCH  33  35
ATOM     35  O   UNL     1       0.888  17.226  19.198  0.00  0.00    +0.000 OA
BRANCH  35  36
ATOM     36  C   UNL     1      -0.467  17.189  18.776  0.00  0.00    +0.000 C 
ATOM     37  F   UNL     1      -0.731  16.280  17.817  0.00  0.00    +0.000 F 
ATOM     38  F   UNL     1      -1.260  16.943  19.841  0.00  0.00    +0.000 F 
ATOM     39  F   UNL     1      -0.789  18.410  18.291  0.00  0.00    +0.000 F 
ENDBRANCH  35  36
ENDBRANCH  33  35
ENDBRANCH  27  29
ENDBRANCH   9  25
TORSDOF 5
ENDMDL
