MODEL 1
REMARK VINA RESULT:      -8.0      0.000      0.000
REMARK  Name = 
REMARK  14 active torsions:
REMARK  status: ('A' for Active; 'I' for Inactive)
REMARK    1  A    between atoms: C_1  and  C_2
REMARK    2  A    between atoms: C_4  and  O_5
REMARK    3  A    between atoms: C_6  and  C_7
REMARK    4  A    between atoms: C_7  and  C_8
REMARK    5  A    between atoms: C_7  and  C_9
REMARK    6  A    between atoms: C_11  and  N_12
REMARK    7  A    between atoms: N_12  and  C_13
REMARK    8  A    between atoms: C_13  and  N_15
REMARK    9  A    between atoms: N_15  and  C_16
REMARK   10  A    between atoms: C_18  and  C_19
REMARK   11  A    between atoms: C_19  and  C_20
REMARK   12  A    between atoms: C_19  and  C_21
REMARK   13  A    between atoms: C_22  and  O_23
REMARK   14  A    between atoms: C_25  and  C_26
REMARK                            x       y       z     vdW  Elec       q    Type
REMARK                         _______ _______ _______ _____ _____    ______ ____
ROOT
ATOM      1  C   UNL     1       2.395   4.915  20.105  0.00  0.00    +0.000 C 
ATOM      2  S   UNL     1       0.874   4.283  20.469  0.00  0.00    +0.000 S 
ENDROOT
BRANCH   1   3
ATOM      3  N   UNL     1       2.689   6.239  20.444  0.00  0.00    +0.000 N 
ATOM      4  H   UNL     1       3.272   6.331  21.266  0.00  0.00    +0.000 HD
BRANCH   3  11
ATOM      5  C   UNL     1       3.080   7.405  17.619  0.00  0.00    +0.000 C 
ATOM      6  C   UNL     1       2.223   7.986  18.713  0.00  0.00    +0.000 A 
ATOM      7  C   UNL     1       1.608   9.204  18.372  0.00  0.00    +0.000 A 
ATOM      8  C   UNL     1       0.837   9.889  19.282  0.00  0.00    +0.000 A 
ATOM      9  C   UNL     1       0.555   9.382  20.555  0.00  0.00    +0.000 A 
ATOM     10  C   UNL     1       1.168   8.160  20.884  0.00  0.00    +0.000 A 
ATOM     11  C   UNL     1       2.011   7.436  20.008  0.00  0.00    +0.000 A 
BRANCH   9  12
ATOM     12  C   UNL     1      -0.372  10.149  21.491  0.00  0.00    +0.000 C 
ATOM     13  C   UNL     1      -0.565   9.417  22.826  0.00  0.00    +0.000 C 
ATOM     14  C   UNL     1       0.019  11.601  21.775  0.00  0.00    +0.000 C 
ENDBRANCH   9  12
BRANCH   8  15
ATOM     15  O   UNL     1       0.327  11.123  18.947  0.00  0.00    +0.000 OA
ATOM     16  H   UNL     1       0.279  11.187  17.979  0.00  0.00    +0.000 HD
ENDBRANCH   8  15
ENDBRANCH   3  11
ENDBRANCH   1   3
BRANCH   1  17
ATOM     17  N   UNL     1       3.430   4.102  19.748  0.00  0.00    +0.000 N 
ATOM     18  H   UNL     1       3.253   3.129  19.953  0.00  0.00    +0.000 HD
BRANCH  17  19
ATOM     19  C   UNL     1       4.320   4.321  18.642  0.00  0.00    +0.000 A 
ATOM     20  C   UNL     1       5.525   5.036  18.829  0.00  0.00    +0.000 A 
ATOM     21  C   UNL     1       6.464   5.233  17.800  0.00  0.00    +0.000 A 
ATOM     22  C   UNL     1       6.181   4.621  16.589  0.00  0.00    +0.000 A 
ATOM     23  C   UNL     1       4.973   3.931  16.351  0.00  0.00    +0.000 A 
ATOM     24  C   UNL     1       4.017   3.796  17.379  0.00  0.00    +0.000 A 
ATOM     25  C   UNL     1       2.732   3.105  17.054  0.00  0.00    +0.000 C 
BRANCH  21  26
ATOM     26  C   UNL     1       7.730   6.044  18.006  0.00  0.00    +0.000 C 
ATOM     27  C   UNL     1       7.572   7.495  17.525  0.00  0.00    +0.000 C 
ATOM     28  C   UNL     1       8.283   6.071  19.437  0.00  0.00    +0.000 C 
ENDBRANCH  21  26
BRANCH  22  29
ATOM     29  O   UNL     1       7.029   4.613  15.515  0.00  0.00    +0.000 OA
ATOM     30  H   UNL     1       6.644   5.154  14.811  0.00  0.00    +0.000 HD
ENDBRANCH  22  29
ENDBRANCH  17  19
ENDBRANCH   1  17
TORSDOF 8
ENDMDL
MODEL 2
REMARK VINA RESULT:      -7.6      0.235      7.177
REMARK  Name = 
REMARK  14 active torsions:
REMARK  status: ('A' for Active; 'I' for Inactive)
REMARK    1  A    between atoms: C_1  and  C_2
REMARK    2  A    between atoms: C_4  and  O_5
REMARK    3  A    between atoms: C_6  and  C_7
REMARK    4  A    between atoms: C_7  and  C_8
REMARK    5  A    between atoms: C_7  and  C_9
REMARK    6  A    between atoms: C_11  and  N_12
REMARK    7  A    between atoms: N_12  and  C_13
REMARK    8  A    between atoms: C_13  and  N_15
REMARK    9  A    between atoms: N_15  and  C_16
REMARK   10  A    between atoms: C_18  and  C_19
REMARK   11  A    between atoms: C_19  and  C_20
REMARK   12  A    between atoms: C_19  and  C_21
REMARK   13  A    between atoms: C_22  and  O_23
REMARK   14  A    between atoms: C_25  and  C_26
REMARK                            x       y       z     vdW  Elec       q    Type
REMARK                         _______ _______ _______ _____ _____    ______ ____
ROOT
ATOM      1  C   UNL     1       2.330   5.026  20.375  0.00  0.00    +0.000 C 
ATOM      2  S   UNL     1       0.708   4.574  20.256  0.00  0.00    +0.000 S 
ENDROOT
BRANCH   1   3
ATOM      3  N   UNL     1       3.322   4.143  19.940  0.00  0.00    +0.000 N 
ATOM      4  H   UNL     1       3.595   3.460  20.636  0.00  0.00    +0.000 HD
BRANCH   3  11
ATOM      5  C   UNL     1       2.719   2.888  17.191  0.00  0.00    +0.000 C 
ATOM      6  C   UNL     1       3.944   3.685  17.559  0.00  0.00    +0.000 A 
ATOM      7  C   UNL     1       4.890   3.790  16.524  0.00  0.00    +0.000 A 
ATOM      8  C   UNL     1       6.086   4.440  16.719  0.00  0.00    +0.000 A 
ATOM      9  C   UNL     1       6.394   5.097  17.916  0.00  0.00    +0.000 A 
ATOM     10  C   UNL     1       5.438   4.994  18.941  0.00  0.00    +0.000 A 
ATOM     11  C   UNL     1       4.213   4.296  18.816  0.00  0.00    +0.000 A 
BRANCH   9  12
ATOM     12  C   UNL     1       7.702   5.870  18.045  0.00  0.00    +0.000 C 
ATOM     13  C   UNL     1       7.581   7.291  17.479  0.00  0.00    +0.000 C 
ATOM     14  C   UNL     1       8.295   5.946  19.453  0.00  0.00    +0.000 C 
ENDBRANCH   9  12
BRANCH   8  15
ATOM     15  O   UNL     1       7.029   4.443  15.716  0.00  0.00    +0.000 OA
ATOM     16  H   UNL     1       7.046   5.325  15.310  0.00  0.00    +0.000 HD
ENDBRANCH   8  15
ENDBRANCH   3  11
ENDBRANCH   1   3
BRANCH   1  17
ATOM     17  N   UNL     1       2.686   6.320  20.618  0.00  0.00    +0.000 N 
ATOM     18  H   UNL     1       3.686   6.447  20.671  0.00  0.00    +0.000 HD
BRANCH  17  19
ATOM     19  C   UNL     1       1.963   7.480  20.179  0.00  0.00    +0.000 A 
ATOM     20  C   UNL     1       1.143   8.192  21.084  0.00  0.00    +0.000 A 
ATOM     21  C   UNL     1       0.457   9.369  20.729  0.00  0.00    +0.000 A 
ATOM     22  C   UNL     1       0.684   9.846  19.448  0.00  0.00    +0.000 A 
ATOM     23  C   UNL     1       1.465   9.146  18.503  0.00  0.00    +0.000 A 
ATOM     24  C   UNL     1       2.095   7.936  18.860  0.00  0.00    +0.000 A 
ATOM     25  C   UNL     1       2.863   7.208  17.804  0.00  0.00    +0.000 C 
BRANCH  21  26
ATOM     26  C   UNL     1      -0.456  10.094  21.700  0.00  0.00    +0.000 C 
ATOM     27  C   UNL     1      -0.425   9.465  23.102  0.00  0.00    +0.000 C 
ATOM     28  C   UNL     1      -0.217  11.602  21.846  0.00  0.00    +0.000 C 
ENDBRANCH  21  26
BRANCH  22  29
ATOM     29  O   UNL     1       0.190  11.030  18.970  0.00  0.00    +0.000 OA
ATOM     30  H   UNL     1      -0.609  10.848  18.457  0.00  0.00    +0.000 HD
ENDBRANCH  22  29
ENDBRANCH  17  19
ENDBRANCH   1  17
TORSDOF 8
ENDMDL
MODEL 3
REMARK VINA RESULT:      -7.3      2.747      8.464
REMARK  Name = 
REMARK  14 active torsions:
REMARK  status: ('A' for Active; 'I' for Inactive)
REMARK    1  A    between atoms: C_1  and  C_2
REMARK    2  A    between atoms: C_4  and  O_5
REMARK    3  A    between atoms: C_6  and  C_7
REMARK    4  A    between atoms: C_7  and  C_8
REMARK    5  A    between atoms: C_7  and  C_9
REMARK    6  A    between atoms: C_11  and  N_12
REMARK    7  A    between atoms: N_12  and  C_13
REMARK    8  A    between atoms: C_13  and  N_15
REMARK    9  A    between atoms: N_15  and  C_16
REMARK   10  A    between atoms: C_18  and  C_19
REMARK   11  A    between atoms: C_19  and  C_20
REMARK   12  A    between atoms: C_19  and  C_21
REMARK   13  A    between atoms: C_22  and  O_23
REMARK   14  A    between atoms: C_25  and  C_26
REMARK                            x       y       z     vdW  Elec       q    Type
REMARK                         _______ _______ _______ _____ _____    ______ ____
ROOT
ATOM      1  C   UNL     1       1.839   8.539  19.021  0.00  0.00    +0.000 C 
ATOM      2  S   UNL     1       1.492   8.250  20.647  0.00  0.00    +0.000 S 
ENDROOT
BRANCH   1   3
ATOM      3  N   UNL     1       2.029   7.457  18.156  0.00  0.00    +0.000 N 
ATOM      4  H   UNL     1       1.225   7.250  17.578  0.00  0.00    +0.000 HD
BRANCH   3  11
ATOM      5  C   UNL     1       1.484   4.715  19.453  0.00  0.00    +0.000 C 
ATOM      6  C   UNL     1       2.790   5.180  18.862  0.00  0.00    +0.000 A 
ATOM      7  C   UNL     1       3.837   4.250  18.988  0.00  0.00    +0.000 A 
ATOM      8  C   UNL     1       5.106   4.545  18.548  0.00  0.00    +0.000 A 
ATOM      9  C   UNL     1       5.408   5.739  17.883  0.00  0.00    +0.000 A 
ATOM     10  C   UNL     1       4.352   6.658  17.753  0.00  0.00    +0.000 A 
ATOM     11  C   UNL     1       3.040   6.431  18.231  0.00  0.00    +0.000 A 
BRANCH   9  12
ATOM     12  C   UNL     1       6.815   5.976  17.346  0.00  0.00    +0.000 C 
ATOM     13  C   UNL     1       6.955   5.507  15.891  0.00  0.00    +0.000 C 
ATOM     14  C   UNL     1       7.337   7.409  17.456  0.00  0.00    +0.000 C 
ENDBRANCH   9  12
BRANCH   8  15
ATOM     15  O   UNL     1       6.129   3.651  18.772  0.00  0.00    +0.000 OA
ATOM     16  H   UNL     1       6.857   3.855  18.163  0.00  0.00    +0.000 HD
ENDBRANCH   8  15
ENDBRANCH   3  11
ENDBRANCH   1   3
BRANCH   1  17
ATOM     17  N   UNL     1       1.665   9.775  18.471  0.00  0.00    +0.000 N 
ATOM     18  H   UNL     1       2.198   9.904  17.623  0.00  0.00    +0.000 HD
BRANCH  17  19
ATOM     19  C   UNL     1       0.463  10.557  18.541  0.00  0.00    +0.000 A 
ATOM     20  C   UNL     1      -0.697  10.141  17.847  0.00  0.00    +0.000 A 
ATOM     21  C   UNL     1      -1.920  10.832  17.923  0.00  0.00    +0.000 A 
ATOM     22  C   UNL     1      -1.958  11.918  18.783  0.00  0.00    +0.000 A 
ATOM     23  C   UNL     1      -0.813  12.387  19.465  0.00  0.00    +0.000 A 
ATOM     24  C   UNL     1       0.420  11.716  19.328  0.00  0.00    +0.000 A 
ATOM     25  C   UNL     1       1.610  12.288  20.027  0.00  0.00    +0.000 C 
BRANCH  21  26
ATOM     26  C   UNL     1      -3.142  10.400  17.134  0.00  0.00    +0.000 C 
ATOM     27  C   UNL     1      -2.774   9.901  15.727  0.00  0.00    +0.000 C 
ATOM     28  C   UNL     1      -4.030   9.340  17.800  0.00  0.00    +0.000 C 
ENDBRANCH  21  26
BRANCH  22  29
ATOM     29  O   UNL     1      -3.087  12.638  19.066  0.00  0.00    +0.000 OA
ATOM     30  H   UNL     1      -3.725  12.506  18.351  0.00  0.00    +0.000 HD
ENDBRANCH  22  29
ENDBRANCH  17  19
ENDBRANCH   1  17
TORSDOF 8
ENDMDL
MODEL 4
REMARK VINA RESULT:      -7.2      2.720      3.714
REMARK  Name = 
REMARK  14 active torsions:
REMARK  status: ('A' for Active; 'I' for Inactive)
REMARK    1  A    between atoms: C_1  and  C_2
REMARK    2  A    between atoms: C_4  and  O_5
REMARK    3  A    between atoms: C_6  and  C_7
REMARK    4  A    between atoms: C_7  and  C_8
REMARK    5  A    between atoms: C_7  and  C_9
REMARK    6  A    between atoms: C_11  and  N_12
REMARK    7  A    between atoms: N_12  and  C_13
REMARK    8  A    between atoms: C_13  and  N_15
REMARK    9  A    between atoms: N_15  and  C_16
REMARK   10  A    between atoms: C_18  and  C_19
REMARK   11  A    between atoms: C_19  and  C_20
REMARK   12  A    between atoms: C_19  and  C_21
REMARK   13  A    between atoms: C_22  and  O_23
REMARK   14  A    between atoms: C_25  and  C_26
REMARK                            x       y       z     vdW  Elec       q    Type
REMARK                         _______ _______ _______ _____ _____    ______ ____
ROOT
ATOM      1  C   UNL     1       1.835   8.358  18.777  0.00  0.00    +0.000 C 
ATOM      2  S   UNL     1       1.833   7.774  20.360  0.00  0.00    +0.000 S 
ENDROOT
BRANCH   1   3
ATOM      3  N   UNL     1       1.709   9.732  18.551  0.00  0.00    +0.000 N 
ATOM      4  H   UNL     1       2.583  10.238  18.612  0.00  0.00    +0.000 HD
BRANCH   3  11
ATOM      5  C   UNL     1       1.506  12.294  20.250  0.00  0.00    +0.000 C 
ATOM      6  C   UNL     1       0.411  11.693  19.407  0.00  0.00    +0.000 A 
ATOM      7  C   UNL     1      -0.812  12.382  19.482  0.00  0.00    +0.000 A 
ATOM      8  C   UNL     1      -1.925  11.929  18.814  0.00  0.00    +0.000 A 
ATOM      9  C   UNL     1      -1.886  10.817  17.965  0.00  0.00    +0.000 A 
ATOM     10  C   UNL     1      -0.656  10.139  17.890  0.00  0.00    +0.000 A 
ATOM     11  C   UNL     1       0.508  10.529  18.593  0.00  0.00    +0.000 A 
BRANCH   9  12
ATOM     12  C   UNL     1      -3.133  10.409  17.187  0.00  0.00    +0.000 C 
ATOM     13  C   UNL     1      -2.796  10.005  15.745  0.00  0.00    +0.000 C 
ATOM     14  C   UNL     1      -3.984   9.309  17.823  0.00  0.00    +0.000 C 
ENDBRANCH   9  12
BRANCH   8  15
ATOM     15  O   UNL     1      -3.130  12.573  18.984  0.00  0.00    +0.000 OA
ATOM     16  H   UNL     1      -3.423  12.913  18.123  0.00  0.00    +0.000 HD
ENDBRANCH   8  15
ENDBRANCH   3  11
ENDBRANCH   1   3
BRANCH   1  17
ATOM     17  N   UNL     1       2.231   7.572  17.735  0.00  0.00    +0.000 N 
ATOM     18  H   UNL     1       2.164   8.040  16.842  0.00  0.00    +0.000 HD
BRANCH  17  19
ATOM     19  C   UNL     1       3.246   6.557  17.795  0.00  0.00    +0.000 A 
ATOM     20  C   UNL     1       4.613   6.917  17.781  0.00  0.00    +0.000 A 
ATOM     21  C   UNL     1       5.652   5.975  17.896  0.00  0.00    +0.000 A 
ATOM     22  C   UNL     1       5.265   4.660  18.101  0.00  0.00    +0.000 A 
ATOM     23  C   UNL     1       3.912   4.255  18.084  0.00  0.00    +0.000 A 
ATOM     24  C   UNL     1       2.888   5.207  17.906  0.00  0.00    +0.000 A 
ATOM     25  C   UNL     1       1.478   4.715  17.841  0.00  0.00    +0.000 C 
BRANCH  21  26
ATOM     26  C   UNL     1       7.115   6.374  17.831  0.00  0.00    +0.000 C 
ATOM     27  C   UNL     1       7.294   7.852  17.450  0.00  0.00    +0.000 C 
ATOM     28  C   UNL     1       7.940   6.102  19.095  0.00  0.00    +0.000 C 
ENDBRANCH  21  26
BRANCH  22  29
ATOM     29  O   UNL     1       6.134   3.631  18.344  0.00  0.00    +0.000 OA
ATOM     30  H   UNL     1       5.685   2.795  18.157  0.00  0.00    +0.000 HD
ENDBRANCH  22  29
ENDBRANCH  17  19
ENDBRANCH   1  17
TORSDOF 8
ENDMDL
MODEL 5
REMARK VINA RESULT:      -7.2      2.924      4.795
REMARK  Name = 
REMARK  14 active torsions:
REMARK  status: ('A' for Active; 'I' for Inactive)
REMARK    1  A    between atoms: C_1  and  C_2
REMARK    2  A    between atoms: C_4  and  O_5
REMARK    3  A    between atoms: C_6  and  C_7
REMARK    4  A    between atoms: C_7  and  C_8
REMARK    5  A    between atoms: C_7  and  C_9
REMARK    6  A    between atoms: C_11  and  N_12
REMARK    7  A    between atoms: N_12  and  C_13
REMARK    8  A    between atoms: C_13  and  N_15
REMARK    9  A    between atoms: N_15  and  C_16
REMARK   10  A    between atoms: C_18  and  C_19
REMARK   11  A    between atoms: C_19  and  C_20
REMARK   12  A    between atoms: C_19  and  C_21
REMARK   13  A    between atoms: C_22  and  O_23
REMARK   14  A    between atoms: C_25  and  C_26
REMARK                            x       y       z     vdW  Elec       q    Type
REMARK                         _______ _______ _______ _____ _____    ______ ____
ROOT
ATOM      1  C   UNL     1       1.908   8.310  18.725  0.00  0.00    +0.000 C 
ATOM      2  S   UNL     1       1.777   7.902  20.357  0.00  0.00    +0.000 S 
ENDROOT
BRANCH   1   3
ATOM      3  N   UNL     1       1.749   9.642  18.335  0.00  0.00    +0.000 N 
ATOM      4  H   UNL     1       2.623  10.137  18.208  0.00  0.00    +0.000 HD
BRANCH   3  11
ATOM      5  C   UNL     1       1.631  12.149  20.122  0.00  0.00    +0.000 C 
ATOM      6  C   UNL     1       0.506  11.595  19.286  0.00  0.00    +0.000 A 
ATOM      7  C   UNL     1      -0.702  12.302  19.412  0.00  0.00    +0.000 A 
ATOM      8  C   UNL     1      -1.838  11.891  18.756  0.00  0.00    +0.000 A 
ATOM      9  C   UNL     1      -1.838  10.807  17.869  0.00  0.00    +0.000 A 
ATOM     10  C   UNL     1      -0.623  10.112  17.743  0.00  0.00    +0.000 A 
ATOM     11  C   UNL     1       0.564  10.458  18.432  0.00  0.00    +0.000 A 
BRANCH   9  12
ATOM     12  C   UNL     1      -3.109  10.447  17.108  0.00  0.00    +0.000 C 
ATOM     13  C   UNL     1      -2.811  10.066  15.652  0.00  0.00    +0.000 C 
ATOM     14  C   UNL     1      -3.976   9.356  17.738  0.00  0.00    +0.000 C 
ENDBRANCH   9  12
BRANCH   8  15
ATOM     15  O   UNL     1      -3.027  12.549  18.975  0.00  0.00    +0.000 OA
ATOM     16  H   UNL     1      -2.831  13.430  19.334  0.00  0.00    +0.000 HD
ENDBRANCH   8  15
ENDBRANCH   3  11
ENDBRANCH   1   3
BRANCH   1  17
ATOM     17  N   UNL     1       2.433   7.436  17.819  0.00  0.00    +0.000 N 
ATOM     18  H   UNL     1       2.850   7.899  17.024  0.00  0.00    +0.000 HD
BRANCH  17  19
ATOM     19  C   UNL     1       3.013   6.160  18.132  0.00  0.00    +0.000 A 
ATOM     20  C   UNL     1       2.221   5.140  18.707  0.00  0.00    +0.000 A 
ATOM     21  C   UNL     1       2.716   3.851  18.982  0.00  0.00    +0.000 A 
ATOM     22  C   UNL     1       4.021   3.601  18.589  0.00  0.00    +0.000 A 
ATOM     23  C   UNL     1       4.856   4.602  18.046  0.00  0.00    +0.000 A 
ATOM     24  C   UNL     1       4.359   5.905  17.835  0.00  0.00    +0.000 A 
ATOM     25  C   UNL     1       5.303   6.938  17.311  0.00  0.00    +0.000 C 
BRANCH  21  26
ATOM     26  C   UNL     1       1.865   2.783  19.643  0.00  0.00    +0.000 C 
ATOM     27  C   UNL     1       1.436   3.184  21.064  0.00  0.00    +0.000 C 
ATOM     28  C   UNL     1       0.613   2.350  18.869  0.00  0.00    +0.000 C 
ENDBRANCH  21  26
BRANCH  22  29
ATOM     29  O   UNL     1       4.630   2.378  18.675  0.00  0.00    +0.000 OA
ATOM     30  H   UNL     1       5.338   2.430  19.333  0.00  0.00    +0.000 HD
ENDBRANCH  22  29
ENDBRANCH  17  19
ENDBRANCH   1  17
TORSDOF 8
ENDMDL
MODEL 6
REMARK VINA RESULT:      -7.2      2.999      8.279
REMARK  Name = 
REMARK  14 active torsions:
REMARK  status: ('A' for Active; 'I' for Inactive)
REMARK    1  A    between atoms: C_1  and  C_2
REMARK    2  A    between atoms: C_4  and  O_5
REMARK    3  A    between atoms: C_6  and  C_7
REMARK    4  A    between atoms: C_7  and  C_8
REMARK    5  A    between atoms: C_7  and  C_9
REMARK    6  A    between atoms: C_11  and  N_12
REMARK    7  A    between atoms: N_12  and  C_13
REMARK    8  A    between atoms: C_13  and  N_15
REMARK    9  A    between atoms: N_15  and  C_16
REMARK   10  A    between atoms: C_18  and  C_19
REMARK   11  A    between atoms: C_19  and  C_20
REMARK   12  A    between atoms: C_19  and  C_21
REMARK   13  A    between atoms: C_22  and  O_23
REMARK   14  A    between atoms: C_25  and  C_26
REMARK                            x       y       z     vdW  Elec       q    Type
REMARK                         _______ _______ _______ _____ _____    ______ ____
ROOT
ATOM      1  C   UNL     1       1.825   8.593  18.954  0.00  0.00    +0.000 C 
ATOM      2  S   UNL     1       1.466   8.154  20.543  0.00  0.00    +0.000 S 
ENDROOT
BRANCH   1   3
ATOM      3  N   UNL     1       2.131   7.601  18.019  0.00  0.00    +0.000 N 
ATOM      4  H   UNL     1       1.620   7.687  17.149  0.00  0.00    +0.000 HD
BRANCH   3  11
ATOM      5  C   UNL     1       5.049   7.073  17.181  0.00  0.00    +0.000 C 
ATOM      6  C   UNL     1       4.115   6.086  17.832  0.00  0.00    +0.000 A 
ATOM      7  C   UNL     1       4.666   4.804  18.003  0.00  0.00    +0.000 A 
ATOM      8  C   UNL     1       3.922   3.776  18.533  0.00  0.00    +0.000 A 
ATOM      9  C   UNL     1       2.618   3.963  19.005  0.00  0.00    +0.000 A 
ATOM     10  C   UNL     1       2.079   5.251  18.837  0.00  0.00    +0.000 A 
ATOM     11  C   UNL     1       2.778   6.333  18.253  0.00  0.00    +0.000 A 
BRANCH   9  12
ATOM     12  C   UNL     1       1.871   2.804  19.657  0.00  0.00    +0.000 C 
ATOM     13  C   UNL     1       1.356   3.174  21.054  0.00  0.00    +0.000 C 
ATOM     14  C   UNL     1       0.718   2.213  18.844  0.00  0.00    +0.000 C 
ENDBRANCH   9  12
BRANCH   8  15
ATOM     15  O   UNL     1       4.461   2.511  18.599  0.00  0.00    +0.000 OA
ATOM     16  H   UNL     1       4.738   2.340  19.514  0.00  0.00    +0.000 HD
ENDBRANCH   8  15
ENDBRANCH   3  11
ENDBRANCH   1   3
BRANCH   1  17
ATOM     17  N   UNL     1       1.557   9.848  18.491  0.00  0.00    +0.000 N 
ATOM     18  H   UNL     1       2.072  10.074  17.652  0.00  0.00    +0.000 HD
BRANCH  17  19
ATOM     19  C   UNL     1       0.300  10.532  18.617  0.00  0.00    +0.000 A 
ATOM     20  C   UNL     1      -0.809  10.133  17.836  0.00  0.00    +0.000 A 
ATOM     21  C   UNL     1      -2.080  10.725  17.957  0.00  0.00    +0.000 A 
ATOM     22  C   UNL     1      -2.216  11.686  18.945  0.00  0.00    +0.000 A 
ATOM     23  C   UNL     1      -1.125  12.139  19.720  0.00  0.00    +0.000 A 
ATOM     24  C   UNL     1       0.155  11.575  19.542  0.00  0.00    +0.000 A 
ATOM     25  C   UNL     1       1.283  12.131  20.349  0.00  0.00    +0.000 C 
BRANCH  21  26
ATOM     26  C   UNL     1      -3.247  10.316  17.077  0.00  0.00    +0.000 C 
ATOM     27  C   UNL     1      -4.098  11.523  16.649  0.00  0.00    +0.000 C 
ATOM     28  C   UNL     1      -2.890   9.512  15.821  0.00  0.00    +0.000 C 
ENDBRANCH  21  26
BRANCH  22  29
ATOM     29  O   UNL     1      -3.400  12.286  19.278  0.00  0.00    +0.000 OA
ATOM     30  H   UNL     1      -3.421  13.170  18.885  0.00  0.00    +0.000 HD
ENDBRANCH  22  29
ENDBRANCH  17  19
ENDBRANCH   1  17
TORSDOF 8
ENDMDL
MODEL 7
REMARK VINA RESULT:      -7.2      2.222      7.833
REMARK  Name = 
REMARK  14 active torsions:
REMARK  status: ('A' for Active; 'I' for Inactive)
REMARK    1  A    between atoms: C_1  and  C_2
REMARK    2  A    between atoms: C_4  and  O_5
REMARK    3  A    between atoms: C_6  and  C_7
REMARK    4  A    between atoms: C_7  and  C_8
REMARK    5  A    between atoms: C_7  and  C_9
REMARK    6  A    between atoms: C_11  and  N_12
REMARK    7  A    between atoms: N_12  and  C_13
REMARK    8  A    between atoms: C_13  and  N_15
REMARK    9  A    between atoms: N_15  and  C_16
REMARK   10  A    between atoms: C_18  and  C_19
REMARK   11  A    between atoms: C_19  and  C_20
REMARK   12  A    between atoms: C_19  and  C_21
REMARK   13  A    between atoms: C_22  and  O_23
REMARK   14  A    between atoms: C_25  and  C_26
REMARK                            x       y       z     vdW  Elec       q    Type
REMARK                         _______ _______ _______ _____ _____    ______ ____
ROOT
ATOM      1  C   UNL     1       3.869   4.018  18.013  0.00  0.00    +0.000 C 
ATOM      2  S   UNL     1       2.283   3.655  17.564  0.00  0.00    +0.000 S 
ENDROOT
BRANCH   1   3
ATOM      3  N   UNL     1       4.929   3.351  17.393  0.00  0.00    +0.000 N 
ATOM      4  H   UNL     1       5.296   2.577  17.932  0.00  0.00    +0.000 HD
BRANCH   3  11
ATOM      5  C   UNL     1       7.435   5.078  17.874  0.00  0.00    +0.000 C 
ATOM      6  C   UNL     1       6.893   4.646  16.537  0.00  0.00    +0.000 A 
ATOM      7  C   UNL     1       7.611   5.150  15.438  0.00  0.00    +0.000 A 
ATOM      8  C   UNL     1       7.211   4.891  14.148  0.00  0.00    +0.000 A 
ATOM      9  C   UNL     1       6.128   4.053  13.856  0.00  0.00    +0.000 A 
ATOM     10  C   UNL     1       5.422   3.547  14.961  0.00  0.00    +0.000 A 
ATOM     11  C   UNL     1       5.756   3.820  16.308  0.00  0.00    +0.000 A 
BRANCH   9  12
ATOM     12  C   UNL     1       5.781   3.738  12.405  0.00  0.00    +0.000 C 
ATOM     13  C   UNL     1       6.669   2.623  11.837  0.00  0.00    +0.000 C 
ATOM     14  C   UNL     1       4.316   3.393  12.130  0.00  0.00    +0.000 C 
ENDBRANCH   9  12
BRANCH   8  15
ATOM     15  O   UNL     1       7.880   5.477  13.098  0.00  0.00    +0.000 OA
ATOM     16  H   UNL     1       7.647   6.420  13.071  0.00  0.00    +0.000 HD
ENDBRANCH   8  15
ENDBRANCH   3  11
ENDBRANCH   1   3
BRANCH   1  17
ATOM     17  N   UNL     1       4.156   5.128  18.753  0.00  0.00    +0.000 N 
ATOM     18  H   UNL     1       5.148   5.291  18.846  0.00  0.00    +0.000 HD
BRANCH  17  19
ATOM     19  C   UNL     1       3.352   6.316  18.821  0.00  0.00    +0.000 A 
ATOM     20  C   UNL     1       2.542   6.563  19.954  0.00  0.00    +0.000 A 
ATOM     21  C   UNL     1       1.778   7.735  20.105  0.00  0.00    +0.000 A 
ATOM     22  C   UNL     1       1.914   8.687  19.107  0.00  0.00    +0.000 A 
ATOM     23  C   UNL     1       2.682   8.463  17.943  0.00  0.00    +0.000 A 
ATOM     24  C   UNL     1       3.393   7.255  17.782  0.00  0.00    +0.000 A 
ATOM     25  C   UNL     1       4.143   7.049  16.506  0.00  0.00    +0.000 C 
BRANCH  21  26
ATOM     26  C   UNL     1       0.878   7.962  21.305  0.00  0.00    +0.000 C 
ATOM     27  C   UNL     1       1.447   9.025  22.260  0.00  0.00    +0.000 C 
ATOM     28  C   UNL     1      -0.578   8.330  20.991  0.00  0.00    +0.000 C 
ENDBRANCH  21  26
BRANCH  22  29
ATOM     29  O   UNL     1       1.335   9.926  19.142  0.00  0.00    +0.000 OA
ATOM     30  H   UNL     1       1.642  10.389  19.934  0.00  0.00    +0.000 HD
ENDBRANCH  22  29
ENDBRANCH  17  19
ENDBRANCH   1  17
TORSDOF 8
ENDMDL
MODEL 8
REMARK VINA RESULT:      -7.1      2.823      4.614
REMARK  Name = 
REMARK  14 active torsions:
REMARK  status: ('A' for Active; 'I' for Inactive)
REMARK    1  A    between atoms: C_1  and  C_2
REMARK    2  A    between atoms: C_4  and  O_5
REMARK    3  A    between atoms: C_6  and  C_7
REMARK    4  A    between atoms: C_7  and  C_8
REMARK    5  A    between atoms: C_7  and  C_9
REMARK    6  A    between atoms: C_11  and  N_12
REMARK    7  A    between atoms: N_12  and  C_13
REMARK    8  A    between atoms: C_13  and  N_15
REMARK    9  A    between atoms: N_15  and  C_16
REMARK   10  A    between atoms: C_18  and  C_19
REMARK   11  A    between atoms: C_19  and  C_20
REMARK   12  A    between atoms: C_19  and  C_21
REMARK   13  A    between atoms: C_22  and  O_23
REMARK   14  A    between atoms: C_25  and  C_26
REMARK                            x       y       z     vdW  Elec       q    Type
REMARK                         _______ _______ _______ _____ _____    ______ ____
ROOT
ATOM      1  C   UNL     1       1.879   8.303  18.662  0.00  0.00    +0.000 C 
ATOM      2  S   UNL     1       1.655   8.253  20.334  0.00  0.00    +0.000 S 
ENDROOT
BRANCH   1   3
ATOM      3  N   UNL     1       1.088   9.157  17.888  0.00  0.00    +0.000 N 
ATOM      4  H   UNL     1       1.076   8.923  16.904  0.00  0.00    +0.000 HD
BRANCH   3  11
ATOM      5  C   UNL     1      -1.910   9.865  17.816  0.00  0.00    +0.000 C 
ATOM      6  C   UNL     1      -0.781  10.799  18.166  0.00  0.00    +0.000 A 
ATOM      7  C   UNL     1      -1.190  12.118  18.427  0.00  0.00    +0.000 A 
ATOM      8  C   UNL     1      -0.273  13.104  18.708  0.00  0.00    +0.000 A 
ATOM      9  C   UNL     1       1.095  12.839  18.831  0.00  0.00    +0.000 A 
ATOM     10  C   UNL     1       1.494  11.515  18.578  0.00  0.00    +0.000 A 
ATOM     11  C   UNL     1       0.603  10.471  18.235  0.00  0.00    +0.000 A 
BRANCH   9  12
ATOM     12  C   UNL     1       2.055  13.957  19.224  0.00  0.00    +0.000 C 
ATOM     13  C   UNL     1       2.507  13.831  20.685  0.00  0.00    +0.000 C 
ATOM     14  C   UNL     1       3.289  14.118  18.336  0.00  0.00    +0.000 C 
ENDBRANCH   9  12
BRANCH   8  15
ATOM     15  O   UNL     1      -0.699  14.404  18.864  0.00  0.00    +0.000 OA
ATOM     16  H   UNL     1      -1.641  14.395  19.097  0.00  0.00    +0.000 HD
ENDBRANCH   8  15
ENDBRANCH   3  11
ENDBRANCH   1   3
BRANCH   1  17
ATOM     17  N   UNL     1       2.982   7.751  18.081  0.00  0.00    +0.000 N 
ATOM     18  H   UNL     1       3.783   8.366  18.097  0.00  0.00    +0.000 HD
BRANCH  17  19
ATOM     19  C   UNL     1       3.310   6.353  18.076  0.00  0.00    +0.000 A 
ATOM     20  C   UNL     1       2.491   5.427  18.764  0.00  0.00    +0.000 A 
ATOM     21  C   UNL     1       2.726   4.040  18.748  0.00  0.00    +0.000 A 
ATOM     22  C   UNL     1       3.776   3.607  17.953  0.00  0.00    +0.000 A 
ATOM     23  C   UNL     1       4.639   4.500  17.281  0.00  0.00    +0.000 A 
ATOM     24  C   UNL     1       4.422   5.891  17.359  0.00  0.00    +0.000 A 
ATOM     25  C   UNL     1       5.400   6.791  16.675  0.00  0.00    +0.000 C 
BRANCH  21  26
ATOM     26  C   UNL     1       1.865   3.066  19.530  0.00  0.00    +0.000 C 
ATOM     27  C   UNL     1       1.244   3.717  20.777  0.00  0.00    +0.000 C 
ATOM     28  C   UNL     1       0.744   2.379  18.740  0.00  0.00    +0.000 C 
ENDBRANCH  21  26
BRANCH  22  29
ATOM     29  O   UNL     1       4.080   2.291  17.731  0.00  0.00    +0.000 OA
ATOM     30  H   UNL     1       3.396   1.742  18.138  0.00  0.00    +0.000 HD
ENDBRANCH  22  29
ENDBRANCH  17  19
ENDBRANCH   1  17
TORSDOF 8
ENDMDL
MODEL 9
REMARK VINA RESULT:      -7.1      3.236      8.506
REMARK  Name = 
REMARK  14 active torsions:
REMARK  status: ('A' for Active; 'I' for Inactive)
REMARK    1  A    between atoms: C_1  and  C_2
REMARK    2  A    between atoms: C_4  and  O_5
REMARK    3  A    between atoms: C_6  and  C_7
REMARK    4  A    between atoms: C_7  and  C_8
REMARK    5  A    between atoms: C_7  and  C_9
REMARK    6  A    between atoms: C_11  and  N_12
REMARK    7  A    between atoms: N_12  and  C_13
REMARK    8  A    between atoms: C_13  and  N_15
REMARK    9  A    between atoms: N_15  and  C_16
REMARK   10  A    between atoms: C_18  and  C_19
REMARK   11  A    between atoms: C_19  and  C_20
REMARK   12  A    between atoms: C_19  and  C_21
REMARK   13  A    between atoms: C_22  and  O_23
REMARK   14  A    between atoms: C_25  and  C_26
REMARK                            x       y       z     vdW  Elec       q    Type
REMARK                         _______ _______ _______ _____ _____    ______ ____
ROOT
ATOM      1  C   UNL     1       0.807   8.925  20.976  0.00  0.00    +0.000 C 
ATOM      2  S   UNL     1      -0.425   8.321  21.957  0.00  0.00    +0.000 S 
ENDROOT
BRANCH   1   3
ATOM      3  N   UNL     1       1.972   8.175  20.795  0.00  0.00    +0.000 N 
ATOM      4  H   UNL     1       2.811   8.639  21.119  0.00  0.00    +0.000 HD
BRANCH   3  11
ATOM      5  C   UNL     1       2.485   8.491  17.773  0.00  0.00    +0.000 C 
ATOM      6  C   UNL     1       2.371   7.192  18.528  0.00  0.00    +0.000 A 
ATOM      7  C   UNL     1       2.465   6.048  17.716  0.00  0.00    +0.000 A 
ATOM      8  C   UNL     1       2.326   4.787  18.246  0.00  0.00    +0.000 A 
ATOM      9  C   UNL     1       2.167   4.566  19.619  0.00  0.00    +0.000 A 
ATOM     10  C   UNL     1       2.083   5.716  20.424  0.00  0.00    +0.000 A 
ATOM     11  C   UNL     1       2.168   7.038  19.928  0.00  0.00    +0.000 A 
BRANCH   9  12
ATOM     12  C   UNL     1       2.099   3.142  20.158  0.00  0.00    +0.000 C 
ATOM     13  C   UNL     1       3.498   2.555  20.392  0.00  0.00    +0.000 C 
ATOM     14  C   UNL     1       1.262   2.947  21.423  0.00  0.00    +0.000 C 
ENDBRANCH   9  12
BRANCH   8  15
ATOM     15  O   UNL     1       2.329   3.694  17.409  0.00  0.00    +0.000 OA
ATOM     16  H   UNL     1       1.602   3.104  17.668  0.00  0.00    +0.000 HD
ENDBRANCH   8  15
ENDBRANCH   3  11
ENDBRANCH   1   3
BRANCH   1  17
ATOM     17  N   UNL     1       0.590   9.981  20.139  0.00  0.00    +0.000 N 
ATOM     18  H   UNL     1       1.015   9.856  19.232  0.00  0.00    +0.000 HD
BRANCH  17  19
ATOM     19  C   UNL     1      -0.580  10.813  20.135  0.00  0.00    +0.000 A 
ATOM     20  C   UNL     1      -0.919  11.570  21.281  0.00  0.00    +0.000 A 
ATOM     21  C   UNL     1      -2.019  12.447  21.318  0.00  0.00    +0.000 A 
ATOM     22  C   UNL     1      -2.725  12.594  20.135  0.00  0.00    +0.000 A 
ATOM     23  C   UNL     1      -2.441  11.831  18.981  0.00  0.00    +0.000 A 
ATOM     24  C   UNL     1      -1.372  10.911  18.983  0.00  0.00    +0.000 A 
ATOM     25  C   UNL     1      -1.153  10.089  17.754  0.00  0.00    +0.000 C 
BRANCH  21  26
ATOM     26  C   UNL     1      -2.396  13.215  22.571  0.00  0.00    +0.000 C 
ATOM     27  C   UNL     1      -3.225  12.361  23.544  0.00  0.00    +0.000 C 
ATOM     28  C   UNL     1      -1.231  13.837  23.352  0.00  0.00    +0.000 C 
ENDBRANCH  21  26
BRANCH  22  29
ATOM     29  O   UNL     1      -3.750  13.483  19.956  0.00  0.00    +0.000 OA
ATOM     30  H   UNL     1      -4.007  13.476  19.023  0.00  0.00    +0.000 HD
ENDBRANCH  22  29
ENDBRANCH  17  19
ENDBRANCH   1  17
TORSDOF 8
ENDMDL
