MODEL 1
REMARK VINA RESULT:      -6.9      0.000      0.000
REMARK  Name = 
REMARK  6 active torsions:
REMARK  status: ('A' for Active; 'I' for Inactive)
REMARK    1  A    between atoms: C_1  and  C_2
REMARK    2  A    between atoms: C_12  and  C_13
REMARK    3  A    between atoms: N_15  and  C_16
REMARK    4  A    between atoms: C_19  and  S_20
REMARK    5  A    between atoms: S_20  and  N_21
REMARK    6  A    between atoms: C_29  and  C_30
REMARK                            x       y       z     vdW  Elec       q    Type
REMARK                         _______ _______ _______ _____ _____    ______ ____
ROOT
ATOM      1  C   UNL     1      -2.114  15.033  24.257  0.00  0.00    +0.000 C 
ATOM      2  C   UNL     1      -0.991  14.809  23.299  0.00  0.00    +0.000 A 
ATOM      3  S   UNL     1       0.209  16.000  23.088  0.00  0.00    +0.000 S 
ATOM      4  C   UNL     1       1.038  15.061  21.937  0.00  0.00    +0.000 A 
ATOM      5  N   UNL     1       2.153  15.542  21.365  0.00  0.00    +0.000 NA
ATOM      6  C   UNL     1       2.664  14.697  20.472  0.00  0.00    +0.000 A 
ATOM      7  N   UNL     1       2.193  13.492  20.125  0.00  0.00    +0.000 NA
ATOM      8  C   UNL     1       1.076  13.018  20.733  0.00  0.00    +0.000 A 
ATOM      9  N   UNL     1       0.556  11.776  20.343  0.00  0.00    +0.000 N 
ATOM     10  C   UNL     1       0.877  11.411  18.963  0.00  0.00    +0.000 C 
ATOM     11  C   UNL     1      -0.021  10.234  18.572  0.00  0.00    +0.000 C 
ATOM     12  C   UNL     1       0.138   9.052  19.536  0.00  0.00    +0.000 C 
ATOM     13  C   UNL     1      -0.023   9.513  20.999  0.00  0.00    +0.000 C 
ATOM     14  C   UNL     1       0.880  10.719  21.310  0.00  0.00    +0.000 C 
ATOM     15  C   UNL     1       0.433  13.835  21.697  0.00  0.00    +0.000 A 
ATOM     16  C   UNL     1      -0.778  13.696  22.499  0.00  0.00    +0.000 A 
ATOM     17  C   UNL     1      -1.718  12.534  22.505  0.00  0.00    +0.000 C 
ENDROOT
BRANCH  12  18
ATOM     18  C   UNL     1       1.479   8.339  19.407  0.00  0.00    +0.000 C 
ATOM     19  O   UNL     1       2.096   7.996  20.413  0.00  0.00    +0.000 OA
ATOM     20  N   UNL     1       1.895   8.095  18.113  0.00  0.00    +0.000 N 
ATOM     21  H   UNL     1       1.417   8.562  17.353  0.00  0.00    +0.000 HD
BRANCH  20  22
ATOM     22  C   UNL     1       3.023   7.318  17.775  0.00  0.00    +0.000 A 
ATOM     23  C   UNL     1       4.221   7.897  17.336  0.00  0.00    +0.000 A 
ATOM     24  C   UNL     1       5.321   7.114  17.014  0.00  0.00    +0.000 A 
ATOM     25  C   UNL     1       5.236   5.734  17.158  0.00  0.00    +0.000 A 
ATOM     26  C   UNL     1       4.050   5.130  17.587  0.00  0.00    +0.000 A 
ATOM     27  C   UNL     1       2.947   5.929  17.910  0.00  0.00    +0.000 A 
BRANCH  25  28
ATOM     28  S   UNL     1       6.672   4.774  16.841  0.00  0.00    +0.000 S 
ATOM     29  O   UNL     1       7.451   5.404  15.801  0.00  0.00    +0.000 OA
ATOM     30  O   UNL     1       7.248   4.328  18.088  0.00  0.00    +0.000 OA
BRANCH  28  31
ATOM     31  N   UNL     1       5.975   3.410  16.137  0.00  0.00    +0.000 NA
ATOM     32  H   UNL     1       6.174   2.587  16.699  0.00  0.00    +0.000 HD
ATOM     33  H   UNL     1       4.993   3.578  15.940  0.00  0.00    +0.000 HD
ENDBRANCH  28  31
ENDBRANCH  25  28
ENDBRANCH  20  22
ENDBRANCH  12  18
TORSDOF 4
ENDMDL
MODEL 2
REMARK VINA RESULT:      -6.9      1.307      1.611
REMARK  Name = 
REMARK  6 active torsions:
REMARK  status: ('A' for Active; 'I' for Inactive)
REMARK    1  A    between atoms: C_1  and  C_2
REMARK    2  A    between atoms: C_12  and  C_13
REMARK    3  A    between atoms: N_15  and  C_16
REMARK    4  A    between atoms: C_19  and  S_20
REMARK    5  A    between atoms: S_20  and  N_21
REMARK    6  A    between atoms: C_29  and  C_30
REMARK                            x       y       z     vdW  Elec       q    Type
REMARK                         _______ _______ _______ _____ _____    ______ ____
ROOT
ATOM      1  C   UNL     1      -3.505  15.520  24.207  0.00  0.00    +0.000 C 
ATOM      2  C   UNL     1      -2.155  15.301  23.609  0.00  0.00    +0.000 A 
ATOM      3  S   UNL     1      -0.880  16.380  23.950  0.00  0.00    +0.000 S 
ATOM      4  C   UNL     1       0.209  15.511  22.974  0.00  0.00    +0.000 A 
ATOM      5  N   UNL     1       1.474  15.942  22.842  0.00  0.00    +0.000 NA
ATOM      6  C   UNL     1       2.187  15.166  22.028  0.00  0.00    +0.000 A 
ATOM      7  N   UNL     1       1.777  14.069  21.379  0.00  0.00    +0.000 NA
ATOM      8  C   UNL     1       0.500  13.641  21.544  0.00  0.00    +0.000 A 
ATOM      9  N   UNL     1       0.054  12.517  20.835  0.00  0.00    +0.000 N 
ATOM     10  C   UNL     1       0.768  12.296  19.576  0.00  0.00    +0.000 C 
ATOM     11  C   UNL     1      -0.032  11.276  18.761  0.00  0.00    +0.000 C 
ATOM     12  C   UNL     1      -0.252   9.973  19.539  0.00  0.00    +0.000 C 
ATOM     13  C   UNL     1      -0.834  10.261  20.938  0.00  0.00    +0.000 C 
ATOM     14  C   UNL     1      -0.003  11.320  21.684  0.00  0.00    +0.000 C 
ATOM     15  C   UNL     1      -0.363  14.393  22.382  0.00  0.00    +0.000 A 
ATOM     16  C   UNL     1      -1.769  14.281  22.753  0.00  0.00    +0.000 A 
ATOM     17  C   UNL     1      -2.732  13.231  22.300  0.00  0.00    +0.000 C 
ENDROOT
BRANCH  12  18
ATOM     18  C   UNL     1       1.017   9.146  19.715  0.00  0.00    +0.000 C 
ATOM     19  O   UNL     1       1.548   9.056  20.819  0.00  0.00    +0.000 OA
ATOM     20  N   UNL     1       1.467   8.510  18.575  0.00  0.00    +0.000 N 
ATOM     21  H   UNL     1       1.075   8.778  17.681  0.00  0.00    +0.000 HD
BRANCH  20  22
ATOM     22  C   UNL     1       2.529   7.581  18.551  0.00  0.00    +0.000 A 
ATOM     23  C   UNL     1       2.630   6.544  19.489  0.00  0.00    +0.000 A 
ATOM     24  C   UNL     1       3.680   5.637  19.444  0.00  0.00    +0.000 A 
ATOM     25  C   UNL     1       4.628   5.747  18.434  0.00  0.00    +0.000 A 
ATOM     26  C   UNL     1       4.554   6.776  17.490  0.00  0.00    +0.000 A 
ATOM     27  C   UNL     1       3.491   7.685  17.544  0.00  0.00    +0.000 A 
BRANCH  25  28
ATOM     28  S   UNL     1       5.889   4.527  18.339  0.00  0.00    +0.000 S 
ATOM     29  O   UNL     1       6.210   4.275  16.954  0.00  0.00    +0.000 OA
ATOM     30  O   UNL     1       6.897   4.787  19.340  0.00  0.00    +0.000 OA
BRANCH  28  31
ATOM     31  N   UNL     1       5.041   3.173  18.874  0.00  0.00    +0.000 NA
ATOM     32  H   UNL     1       5.413   2.333  18.439  0.00  0.00    +0.000 HD
ATOM     33  H   UNL     1       5.003   3.159  19.889  0.00  0.00    +0.000 HD
ENDBRANCH  28  31
ENDBRANCH  25  28
ENDBRANCH  20  22
ENDBRANCH  12  18
TORSDOF 4
ENDMDL
MODEL 3
REMARK VINA RESULT:      -6.9      5.718      9.207
REMARK  Name = 
REMARK  6 active torsions:
REMARK  status: ('A' for Active; 'I' for Inactive)
REMARK    1  A    between atoms: C_1  and  C_2
REMARK    2  A    between atoms: C_12  and  C_13
REMARK    3  A    between atoms: N_15  and  C_16
REMARK    4  A    between atoms: C_19  and  S_20
REMARK    5  A    between atoms: S_20  and  N_21
REMARK    6  A    between atoms: C_29  and  C_30
REMARK                            x       y       z     vdW  Elec       q    Type
REMARK                         _______ _______ _______ _____ _____    ______ ____
ROOT
ATOM      1  C   UNL     1       1.856   1.004  19.209  0.00  0.00    +0.000 C 
ATOM      2  C   UNL     1       1.974   2.479  19.409  0.00  0.00    +0.000 A 
ATOM      3  S   UNL     1       0.808   3.318  20.325  0.00  0.00    +0.000 S 
ATOM      4  C   UNL     1       1.593   4.808  20.090  0.00  0.00    +0.000 A 
ATOM      5  N   UNL     1       1.072   5.925  20.621  0.00  0.00    +0.000 NA
ATOM      6  C   UNL     1       1.792   7.006  20.325  0.00  0.00    +0.000 A 
ATOM      7  N   UNL     1       2.914   7.065  19.596  0.00  0.00    +0.000 NA
ATOM      8  C   UNL     1       3.434   5.919  19.088  0.00  0.00    +0.000 A 
ATOM      9  N   UNL     1       4.585   5.981  18.290  0.00  0.00    +0.000 N 
ATOM     10  C   UNL     1       4.750   7.258  17.595  0.00  0.00    +0.000 C 
ATOM     11  C   UNL     1       5.823   7.067  16.520  0.00  0.00    +0.000 C 
ATOM     12  C   UNL     1       7.141   6.556  17.115  0.00  0.00    +0.000 C 
ATOM     13  C   UNL     1       6.899   5.313  17.995  0.00  0.00    +0.000 C 
ATOM     14  C   UNL     1       5.785   5.565  19.027  0.00  0.00    +0.000 C 
ATOM     15  C   UNL     1       2.748   4.701  19.327  0.00  0.00    +0.000 A 
ATOM     16  C   UNL     1       2.962   3.318  18.915  0.00  0.00    +0.000 A 
ATOM     17  C   UNL     1       4.078   2.801  18.065  0.00  0.00    +0.000 C 
ENDROOT
BRANCH  12  18
ATOM     18  C   UNL     1       7.874   7.596  17.954  0.00  0.00    +0.000 C 
ATOM     19  O   UNL     1       8.586   7.244  18.892  0.00  0.00    +0.000 OA
ATOM     20  N   UNL     1       7.697   8.907  17.554  0.00  0.00    +0.000 N 
ATOM     21  H   UNL     1       6.963   9.117  16.890  0.00  0.00    +0.000 HD
BRANCH  20  22
ATOM     22  C   UNL     1       8.402  10.003  18.095  0.00  0.00    +0.000 A 
ATOM     23  C   UNL     1       9.231   9.874  19.217  0.00  0.00    +0.000 A 
ATOM     24  C   UNL     1       9.919  10.966  19.729  0.00  0.00    +0.000 A 
ATOM     25  C   UNL     1       9.802  12.198  19.098  0.00  0.00    +0.000 A 
ATOM     26  C   UNL     1       8.976  12.356  17.980  0.00  0.00    +0.000 A 
ATOM     27  C   UNL     1       8.286  11.248  17.472  0.00  0.00    +0.000 A 
BRANCH  25  28
ATOM     28  S   UNL     1      10.761  13.539  19.704  0.00  0.00    +0.000 S 
ATOM     29  O   UNL     1      10.631  14.666  18.810  0.00  0.00    +0.000 OA
ATOM     30  O   UNL     1      10.594  13.653  21.134  0.00  0.00    +0.000 OA
BRANCH  28  31
ATOM     31  N   UNL     1      12.315  12.933  19.464  0.00  0.00    +0.000 NA
ATOM     32  H   UNL     1      12.975  13.412  20.070  0.00  0.00    +0.000 HD
ATOM     33  H   UNL     1      12.313  11.920  19.535  0.00  0.00    +0.000 HD
ENDBRANCH  28  31
ENDBRANCH  25  28
ENDBRANCH  20  22
ENDBRANCH  12  18
TORSDOF 4
ENDMDL
MODEL 4
REMARK VINA RESULT:      -6.8      0.831      1.268
REMARK  Name = 
REMARK  6 active torsions:
REMARK  status: ('A' for Active; 'I' for Inactive)
REMARK    1  A    between atoms: C_1  and  C_2
REMARK    2  A    between atoms: C_12  and  C_13
REMARK    3  A    between atoms: N_15  and  C_16
REMARK    4  A    between atoms: C_19  and  S_20
REMARK    5  A    between atoms: S_20  and  N_21
REMARK    6  A    between atoms: C_29  and  C_30
REMARK                            x       y       z     vdW  Elec       q    Type
REMARK                         _______ _______ _______ _____ _____    ______ ____
ROOT
ATOM      1  C   UNL     1      -1.830  15.604  24.317  0.00  0.00    +0.000 C 
ATOM      2  C   UNL     1      -0.775  15.253  23.322  0.00  0.00    +0.000 A 
ATOM      3  S   UNL     1       0.429  16.387  22.910  0.00  0.00    +0.000 S 
ATOM      4  C   UNL     1       1.166  15.312  21.817  0.00  0.00    +0.000 A 
ATOM      5  N   UNL     1       2.250  15.703  21.129  0.00  0.00    +0.000 NA
ATOM      6  C   UNL     1       2.689  14.757  20.301  0.00  0.00    +0.000 A 
ATOM      7  N   UNL     1       2.177  13.533  20.115  0.00  0.00    +0.000 NA
ATOM      8  C   UNL     1       1.093  13.153  20.838  0.00  0.00    +0.000 A 
ATOM      9  N   UNL     1       0.528  11.890  20.617  0.00  0.00    +0.000 N 
ATOM     10  C   UNL     1       0.753  11.374  19.266  0.00  0.00    +0.000 C 
ATOM     11  C   UNL     1      -0.188  10.184  19.059  0.00  0.00    +0.000 C 
ATOM     12  C   UNL     1       0.013   9.106  20.132  0.00  0.00    +0.000 C 
ATOM     13  C   UNL     1      -0.046   9.722  21.545  0.00  0.00    +0.000 C 
ATOM     14  C   UNL     1       0.896  10.933  21.668  0.00  0.00    +0.000 C 
ATOM     15  C   UNL     1       0.527  14.082  21.748  0.00  0.00    +0.000 A 
ATOM     16  C   UNL     1      -0.632  14.057  22.633  0.00  0.00    +0.000 A 
ATOM     17  C   UNL     1      -1.590  12.925  22.821  0.00  0.00    +0.000 C 
ENDROOT
BRANCH  12  18
ATOM     18  C   UNL     1       1.331   8.352  19.998  0.00  0.00    +0.000 C 
ATOM     19  O   UNL     1       1.925   7.962  21.000  0.00  0.00    +0.000 OA
ATOM     20  N   UNL     1       1.752   8.128  18.702  0.00  0.00    +0.000 N 
ATOM     21  H   UNL     1       1.298   8.631  17.950  0.00  0.00    +0.000 HD
BRANCH  20  22
ATOM     22  C   UNL     1       2.858   7.323  18.354  0.00  0.00    +0.000 A 
ATOM     23  C   UNL     1       3.119   6.103  18.993  0.00  0.00    +0.000 A 
ATOM     24  C   UNL     1       4.210   5.324  18.632  0.00  0.00    +0.000 A 
ATOM     25  C   UNL     1       5.036   5.752  17.600  0.00  0.00    +0.000 A 
ATOM     26  C   UNL     1       4.802   6.968  16.951  0.00  0.00    +0.000 A 
ATOM     27  C   UNL     1       3.699   7.746  17.323  0.00  0.00    +0.000 A 
BRANCH  25  28
ATOM     28  S   UNL     1       6.349   4.700  17.094  0.00  0.00    +0.000 S 
ATOM     29  O   UNL     1       7.153   4.350  18.241  0.00  0.00    +0.000 OA
ATOM     30  O   UNL     1       5.857   3.719  16.156  0.00  0.00    +0.000 OA
BRANCH  28  31
ATOM     31  N   UNL     1       7.274   5.782  16.192  0.00  0.00    +0.000 NA
ATOM     32  H   UNL     1       8.238   5.772  16.514  0.00  0.00    +0.000 HD
ATOM     33  H   UNL     1       7.144   5.615  15.199  0.00  0.00    +0.000 HD
ENDBRANCH  28  31
ENDBRANCH  25  28
ENDBRANCH  20  22
ENDBRANCH  12  18
TORSDOF 4
ENDMDL
MODEL 5
REMARK VINA RESULT:      -6.7      1.274      1.561
REMARK  Name = 
REMARK  6 active torsions:
REMARK  status: ('A' for Active; 'I' for Inactive)
REMARK    1  A    between atoms: C_1  and  C_2
REMARK    2  A    between atoms: C_12  and  C_13
REMARK    3  A    between atoms: N_15  and  C_16
REMARK    4  A    between atoms: C_19  and  S_20
REMARK    5  A    between atoms: S_20  and  N_21
REMARK    6  A    between atoms: C_29  and  C_30
REMARK                            x       y       z     vdW  Elec       q    Type
REMARK                         _______ _______ _______ _____ _____    ______ ____
ROOT
ATOM      1  C   UNL     1      -1.311  15.382  24.550  0.00  0.00    +0.000 C 
ATOM      2  C   UNL     1      -0.640  15.255  23.223  0.00  0.00    +0.000 A 
ATOM      3  S   UNL     1       0.088  16.613  22.495  0.00  0.00    +0.000 S 
ATOM      4  C   UNL     1       0.575  15.713  21.138  0.00  0.00    +0.000 A 
ATOM      5  N   UNL     1       1.239  16.318  20.140  0.00  0.00    +0.000 NA
ATOM      6  C   UNL     1       1.524  15.482  19.145  0.00  0.00    +0.000 A 
ATOM      7  N   UNL     1       1.229  14.178  19.064  0.00  0.00    +0.000 NA
ATOM      8  C   UNL     1       0.576  13.582  20.094  0.00  0.00    +0.000 A 
ATOM      9  N   UNL     1       0.228  12.228  19.996  0.00  0.00    +0.000 N 
ATOM     10  C   UNL     1       0.046  11.766  18.619  0.00  0.00    +0.000 C 
ATOM     11  C   UNL     1      -0.654  10.406  18.674  0.00  0.00    +0.000 C 
ATOM     12  C   UNL     1       0.127   9.398  19.525  0.00  0.00    +0.000 C 
ATOM     13  C   UNL     1       0.463   9.992  20.907  0.00  0.00    +0.000 C 
ATOM     14  C   UNL     1       1.129  11.373  20.777  0.00  0.00    +0.000 C 
ATOM     15  C   UNL     1       0.207  14.376  21.210  0.00  0.00    +0.000 A 
ATOM     16  C   UNL     1      -0.525  14.113  22.444  0.00  0.00    +0.000 A 
ATOM     17  C   UNL     1      -1.109  12.807  22.876  0.00  0.00    +0.000 C 
ENDROOT
BRANCH  12  18
ATOM     18  C   UNL     1       1.427   8.933  18.879  0.00  0.00    +0.000 C 
ATOM     19  O   UNL     1       2.151   9.739  18.299  0.00  0.00    +0.000 OA
ATOM     20  N   UNL     1       1.715   7.591  19.034  0.00  0.00    +0.000 N 
ATOM     21  H   UNL     1       0.986   6.974  19.368  0.00  0.00    +0.000 HD
BRANCH  20  22
ATOM     22  C   UNL     1       2.933   6.991  18.648  0.00  0.00    +0.000 A 
ATOM     23  C   UNL     1       3.518   5.956  19.389  0.00  0.00    +0.000 A 
ATOM     24  C   UNL     1       4.715   5.376  18.988  0.00  0.00    +0.000 A 
ATOM     25  C   UNL     1       5.322   5.815  17.818  0.00  0.00    +0.000 A 
ATOM     26  C   UNL     1       4.763   6.851  17.065  0.00  0.00    +0.000 A 
ATOM     27  C   UNL     1       3.556   7.429  17.477  0.00  0.00    +0.000 A 
BRANCH  25  28
ATOM     28  S   UNL     1       6.781   4.997  17.280  0.00  0.00    +0.000 S 
ATOM     29  O   UNL     1       7.615   4.703  18.421  0.00  0.00    +0.000 OA
ATOM     30  O   UNL     1       6.448   4.009  16.281  0.00  0.00    +0.000 OA
BRANCH  28  31
ATOM     31  N   UNL     1       7.546   6.252  16.456  0.00  0.00    +0.000 NA
ATOM     32  H   UNL     1       6.863   6.943  16.158  0.00  0.00    +0.000 HD
ATOM     33  H   UNL     1       8.321   6.613  17.005  0.00  0.00    +0.000 HD
ENDBRANCH  28  31
ENDBRANCH  25  28
ENDBRANCH  20  22
ENDBRANCH  12  18
TORSDOF 4
ENDMDL
MODEL 6
REMARK VINA RESULT:      -6.7      3.382      4.674
REMARK  Name = 
REMARK  6 active torsions:
REMARK  status: ('A' for Active; 'I' for Inactive)
REMARK    1  A    between atoms: C_1  and  C_2
REMARK    2  A    between atoms: C_12  and  C_13
REMARK    3  A    between atoms: N_15  and  C_16
REMARK    4  A    between atoms: C_19  and  S_20
REMARK    5  A    between atoms: S_20  and  N_21
REMARK    6  A    between atoms: C_29  and  C_30
REMARK                            x       y       z     vdW  Elec       q    Type
REMARK                         _______ _______ _______ _____ _____    ______ ____
ROOT
ATOM      1  C   UNL     1      -6.197  16.931  21.626  0.00  0.00    +0.000 C 
ATOM      2  C   UNL     1      -5.573  15.705  22.204  0.00  0.00    +0.000 A 
ATOM      3  S   UNL     1      -6.250  14.963  23.581  0.00  0.00    +0.000 S 
ATOM      4  C   UNL     1      -5.058  13.750  23.600  0.00  0.00    +0.000 A 
ATOM      5  N   UNL     1      -5.081  12.810  24.557  0.00  0.00    +0.000 NA
ATOM      6  C   UNL     1      -4.069  11.952  24.445  0.00  0.00    +0.000 A 
ATOM      7  N   UNL     1      -3.100  11.949  23.520  0.00  0.00    +0.000 NA
ATOM      8  C   UNL     1      -3.110  12.898  22.549  0.00  0.00    +0.000 A 
ATOM      9  N   UNL     1      -2.075  12.924  21.604  0.00  0.00    +0.000 N 
ATOM     10  C   UNL     1      -0.818  12.356  22.092  0.00  0.00    +0.000 C 
ATOM     11  C   UNL     1       0.286  12.757  21.111  0.00  0.00    +0.000 C 
ATOM     12  C   UNL     1      -0.034  12.310  19.680  0.00  0.00    +0.000 C 
ATOM     13  C   UNL     1      -1.447  12.769  19.265  0.00  0.00    +0.000 C 
ATOM     14  C   UNL     1      -2.498  12.364  20.314  0.00  0.00    +0.000 C 
ATOM     15  C   UNL     1      -4.136  13.876  22.570  0.00  0.00    +0.000 A 
ATOM     16  C   UNL     1      -4.439  15.046  21.752  0.00  0.00    +0.000 A 
ATOM     17  C   UNL     1      -3.668  15.533  20.569  0.00  0.00    +0.000 C 
ENDROOT
BRANCH  12  18
ATOM     18  C   UNL     1       0.052  10.801  19.480  0.00  0.00    +0.000 C 
ATOM     19  O   UNL     1      -0.878  10.193  18.955  0.00  0.00    +0.000 OA
ATOM     20  N   UNL     1       1.234  10.219  19.893  0.00  0.00    +0.000 N 
ATOM     21  H   UNL     1       1.867  10.760  20.469  0.00  0.00    +0.000 HD
BRANCH  20  22
ATOM     22  C   UNL     1       1.578   8.870  19.661  0.00  0.00    +0.000 A 
ATOM     23  C   UNL     1       2.084   8.433  18.430  0.00  0.00    +0.000 A 
ATOM     24  C   UNL     1       2.421   7.102  18.225  0.00  0.00    +0.000 A 
ATOM     25  C   UNL     1       2.279   6.198  19.271  0.00  0.00    +0.000 A 
ATOM     26  C   UNL     1       1.770   6.607  20.508  0.00  0.00    +0.000 A 
ATOM     27  C   UNL     1       1.434   7.951  20.704  0.00  0.00    +0.000 A 
BRANCH  25  28
ATOM     28  S   UNL     1       2.807   4.542  19.018  0.00  0.00    +0.000 S 
ATOM     29  O   UNL     1       3.777   4.505  17.948  0.00  0.00    +0.000 OA
ATOM     30  O   UNL     1       3.025   3.897  20.292  0.00  0.00    +0.000 OA
BRANCH  28  31
ATOM     31  N   UNL     1       1.397   3.866  18.390  0.00  0.00    +0.000 NA
ATOM     32  H   UNL     1       0.686   4.583  18.277  0.00  0.00    +0.000 HD
ATOM     33  H   UNL     1       1.607   3.324  17.557  0.00  0.00    +0.000 HD
ENDBRANCH  28  31
ENDBRANCH  25  28
ENDBRANCH  20  22
ENDBRANCH  12  18
TORSDOF 4
ENDMDL
MODEL 7
REMARK VINA RESULT:      -6.7      1.944      2.291
REMARK  Name = 
REMARK  6 active torsions:
REMARK  status: ('A' for Active; 'I' for Inactive)
REMARK    1  A    between atoms: C_1  and  C_2
REMARK    2  A    between atoms: C_12  and  C_13
REMARK    3  A    between atoms: N_15  and  C_16
REMARK    4  A    between atoms: C_19  and  S_20
REMARK    5  A    between atoms: S_20  and  N_21
REMARK    6  A    between atoms: C_29  and  C_30
REMARK                            x       y       z     vdW  Elec       q    Type
REMARK                         _______ _______ _______ _____ _____    ______ ____
ROOT
ATOM      1  C   UNL     1      -2.254  17.454  22.099  0.00  0.00    +0.000 C 
ATOM      2  C   UNL     1      -1.137  16.841  21.322  0.00  0.00    +0.000 A 
ATOM      3  S   UNL     1       0.164  17.801  20.784  0.00  0.00    +0.000 S 
ATOM      4  C   UNL     1       0.930  16.474  20.047  0.00  0.00    +0.000 A 
ATOM      5  N   UNL     1       2.092  16.652  19.400  0.00  0.00    +0.000 NA
ATOM      6  C   UNL     1       2.546  15.522  18.860  0.00  0.00    +0.000 A 
ATOM      7  N   UNL     1       1.980  14.309  18.909  0.00  0.00    +0.000 NA
ATOM      8  C   UNL     1       0.815  14.149  19.587  0.00  0.00    +0.000 A 
ATOM      9  N   UNL     1       0.198  12.891  19.606  0.00  0.00    +0.000 N 
ATOM     10  C   UNL     1       0.512  12.065  18.439  0.00  0.00    +0.000 C 
ATOM     11  C   UNL     1      -0.477  10.896  18.418  0.00  0.00    +0.000 C 
ATOM     12  C   UNL     1      -0.436  10.093  19.724  0.00  0.00    +0.000 C 
ATOM     13  C   UNL     1      -0.584  11.024  20.944  0.00  0.00    +0.000 C 
ATOM     14  C   UNL     1       0.413  12.195  20.881  0.00  0.00    +0.000 C 
ATOM     15  C   UNL     1       0.227  15.286  20.198  0.00  0.00    +0.000 A 
ATOM     16  C   UNL     1      -1.006  15.513  20.944  0.00  0.00    +0.000 A 
ATOM     17  C   UNL     1      -2.042  14.493  21.290  0.00  0.00    +0.000 C 
ENDROOT
BRANCH  12  18
ATOM     18  C   UNL     1       0.840   9.279  19.900  0.00  0.00    +0.000 C 
ATOM     19  O   UNL     1       1.448   9.306  20.968  0.00  0.00    +0.000 OA
ATOM     20  N   UNL     1       1.209   8.519  18.808  0.00  0.00    +0.000 N 
ATOM     21  H   UNL     1       0.755   8.692  17.920  0.00  0.00    +0.000 HD
BRANCH  20  22
ATOM     22  C   UNL     1       2.265   7.583  18.812  0.00  0.00    +0.000 A 
ATOM     23  C   UNL     1       2.338   6.549  19.755  0.00  0.00    +0.000 A 
ATOM     24  C   UNL     1       3.383   5.635  19.738  0.00  0.00    +0.000 A 
ATOM     25  C   UNL     1       4.356   5.736  18.750  0.00  0.00    +0.000 A 
ATOM     26  C   UNL     1       4.310   6.763  17.802  0.00  0.00    +0.000 A 
ATOM     27  C   UNL     1       3.252   7.679  17.828  0.00  0.00    +0.000 A 
BRANCH  25  28
ATOM     28  S   UNL     1       5.611   4.509  18.689  0.00  0.00    +0.000 S 
ATOM     29  O   UNL     1       5.173   3.338  19.412  0.00  0.00    +0.000 OA
ATOM     30  O   UNL     1       6.167   4.443  17.358  0.00  0.00    +0.000 OA
BRANCH  28  31
ATOM     31  N   UNL     1       6.791   5.234  19.650  0.00  0.00    +0.000 NA
ATOM     32  H   UNL     1       7.028   6.150  19.281  0.00  0.00    +0.000 HD
ATOM     33  H   UNL     1       6.510   5.216  20.626  0.00  0.00    +0.000 HD
ENDBRANCH  28  31
ENDBRANCH  25  28
ENDBRANCH  20  22
ENDBRANCH  12  18
TORSDOF 4
ENDMDL
MODEL 8
REMARK VINA RESULT:      -6.6      3.490      4.700
REMARK  Name = 
REMARK  6 active torsions:
REMARK  status: ('A' for Active; 'I' for Inactive)
REMARK    1  A    between atoms: C_1  and  C_2
REMARK    2  A    between atoms: C_12  and  C_13
REMARK    3  A    between atoms: N_15  and  C_16
REMARK    4  A    between atoms: C_19  and  S_20
REMARK    5  A    between atoms: S_20  and  N_21
REMARK    6  A    between atoms: C_29  and  C_30
REMARK                            x       y       z     vdW  Elec       q    Type
REMARK                         _______ _______ _______ _____ _____    ______ ____
ROOT
ATOM      1  C   UNL     1      -7.916  13.431  19.777  0.00  0.00    +0.000 C 
ATOM      2  C   UNL     1      -6.750  13.180  20.673  0.00  0.00    +0.000 A 
ATOM      3  S   UNL     1      -6.974  13.038  22.356  0.00  0.00    +0.000 S 
ATOM      4  C   UNL     1      -5.314  12.788  22.627  0.00  0.00    +0.000 A 
ATOM      5  N   UNL     1      -4.863  12.614  23.880  0.00  0.00    +0.000 NA
ATOM      6  C   UNL     1      -3.541  12.456  23.921  0.00  0.00    +0.000 A 
ATOM      7  N   UNL     1      -2.686  12.453  22.890  0.00  0.00    +0.000 NA
ATOM      8  C   UNL     1      -3.168  12.611  21.631  0.00  0.00    +0.000 A 
ATOM      9  N   UNL     1      -2.274  12.651  20.553  0.00  0.00    +0.000 N 
ATOM     10  C   UNL     1      -0.938  13.127  20.915  0.00  0.00    +0.000 C 
ATOM     11  C   UNL     1      -0.190  13.445  19.617  0.00  0.00    +0.000 C 
ATOM     12  C   UNL     1      -0.139  12.234  18.678  0.00  0.00    +0.000 C 
ATOM     13  C   UNL     1      -1.548  11.644  18.468  0.00  0.00    +0.000 C 
ATOM     14  C   UNL     1      -2.253  11.384  19.811  0.00  0.00    +0.000 C 
ATOM     15  C   UNL     1      -4.563  12.799  21.459  0.00  0.00    +0.000 A 
ATOM     16  C   UNL     1      -5.419  13.045  20.304  0.00  0.00    +0.000 A 
ATOM     17  C   UNL     1      -4.986  13.155  18.878  0.00  0.00    +0.000 C 
ENDROOT
BRANCH  12  18
ATOM     18  C   UNL     1       0.774  11.118  19.173  0.00  0.00    +0.000 C 
ATOM     19  O   UNL     1       1.155  11.103  20.341  0.00  0.00    +0.000 OA
ATOM     20  N   UNL     1       1.087  10.154  18.234  0.00  0.00    +0.000 N 
ATOM     21  H   UNL     1       0.878  10.337  17.261  0.00  0.00    +0.000 HD
BRANCH  20  22
ATOM     22  C   UNL     1       1.788   8.964  18.523  0.00  0.00    +0.000 A 
ATOM     23  C   UNL     1       1.584   8.250  19.712  0.00  0.00    +0.000 A 
ATOM     24  C   UNL     1       2.280   7.078  19.973  0.00  0.00    +0.000 A 
ATOM     25  C   UNL     1       3.172   6.594  19.023  0.00  0.00    +0.000 A 
ATOM     26  C   UNL     1       3.399   7.290  17.832  0.00  0.00    +0.000 A 
ATOM     27  C   UNL     1       2.691   8.471  17.579  0.00  0.00    +0.000 A 
BRANCH  25  28
ATOM     28  S   UNL     1       3.964   5.057  19.333  0.00  0.00    +0.000 S 
ATOM     29  O   UNL     1       5.354   5.288  19.653  0.00  0.00    +0.000 OA
ATOM     30  O   UNL     1       3.107   4.217  20.137  0.00  0.00    +0.000 OA
BRANCH  28  31
ATOM     31  N   UNL     1       3.949   4.390  17.785  0.00  0.00    +0.000 NA
ATOM     32  H   UNL     1       4.823   4.593  17.308  0.00  0.00    +0.000 HD
ATOM     33  H   UNL     1       3.692   3.408  17.827  0.00  0.00    +0.000 HD
ENDBRANCH  28  31
ENDBRANCH  25  28
ENDBRANCH  20  22
ENDBRANCH  12  18
TORSDOF 4
ENDMDL
MODEL 9
REMARK VINA RESULT:      -6.6      5.787      9.307
REMARK  Name = 
REMARK  6 active torsions:
REMARK  status: ('A' for Active; 'I' for Inactive)
REMARK    1  A    between atoms: C_1  and  C_2
REMARK    2  A    between atoms: C_12  and  C_13
REMARK    3  A    between atoms: N_15  and  C_16
REMARK    4  A    between atoms: C_19  and  S_20
REMARK    5  A    between atoms: S_20  and  N_21
REMARK    6  A    between atoms: C_29  and  C_30
REMARK                            x       y       z     vdW  Elec       q    Type
REMARK                         _______ _______ _______ _____ _____    ______ ____
ROOT
ATOM      1  C   UNL     1       2.078   0.737  19.271  0.00  0.00    +0.000 C 
ATOM      2  C   UNL     1       2.149   2.215  19.462  0.00  0.00    +0.000 A 
ATOM      3  S   UNL     1       0.960   3.021  20.379  0.00  0.00    +0.000 S 
ATOM      4  C   UNL     1       1.694   4.535  20.131  0.00  0.00    +0.000 A 
ATOM      5  N   UNL     1       1.139   5.638  20.658  0.00  0.00    +0.000 NA
ATOM      6  C   UNL     1       1.821   6.739  20.352  0.00  0.00    +0.000 A 
ATOM      7  N   UNL     1       2.937   6.831  19.617  0.00  0.00    +0.000 NA
ATOM      8  C   UNL     1       3.492   5.700  19.112  0.00  0.00    +0.000 A 
ATOM      9  N   UNL     1       4.636   5.795  18.308  0.00  0.00    +0.000 N 
ATOM     10  C   UNL     1       4.756   7.073  17.605  0.00  0.00    +0.000 C 
ATOM     11  C   UNL     1       5.829   6.911  16.525  0.00  0.00    +0.000 C 
ATOM     12  C   UNL     1       7.166   6.447  17.117  0.00  0.00    +0.000 C 
ATOM     13  C   UNL     1       6.969   5.202  18.005  0.00  0.00    +0.000 C 
ATOM     14  C   UNL     1       5.853   5.423  19.041  0.00  0.00    +0.000 C 
ATOM     15  C   UNL     1       2.848   4.461  19.363  0.00  0.00    +0.000 A 
ATOM     16  C   UNL     1       3.106   3.084  18.958  0.00  0.00    +0.000 A 
ATOM     17  C   UNL     1       4.233   2.599  18.105  0.00  0.00    +0.000 C 
ENDROOT
BRANCH  12  18
ATOM     18  C   UNL     1       7.868   7.516  17.946  0.00  0.00    +0.000 C 
ATOM     19  O   UNL     1       8.560   7.195  18.909  0.00  0.00    +0.000 OA
ATOM     20  N   UNL     1       7.689   8.813  17.508  0.00  0.00    +0.000 N 
ATOM     21  H   UNL     1       6.969   8.999  16.821  0.00  0.00    +0.000 HD
BRANCH  20  22
ATOM     22  C   UNL     1       8.370   9.931  18.036  0.00  0.00    +0.000 A 
ATOM     23  C   UNL     1       8.301  11.195  17.436  0.00  0.00    +0.000 A 
ATOM     24  C   UNL     1       8.975  12.282  17.976  0.00  0.00    +0.000 A 
ATOM     25  C   UNL     1       9.705  12.114  19.147  0.00  0.00    +0.000 A 
ATOM     26  C   UNL     1       9.795  10.862  19.762  0.00  0.00    +0.000 A 
ATOM     27  C   UNL     1       9.112   9.772  19.209  0.00  0.00    +0.000 A 
BRANCH  25  28
ATOM     28  S   UNL     1      10.464  13.526  19.865  0.00  0.00    +0.000 S 
ATOM     29  O   UNL     1      11.897  13.347  19.877  0.00  0.00    +0.000 OA
ATOM     30  O   UNL     1       9.832  14.726  19.371  0.00  0.00    +0.000 OA
BRANCH  28  31
ATOM     31  N   UNL     1       9.962  13.360  21.465  0.00  0.00    +0.000 NA
ATOM     32  H   UNL     1       9.036  13.762  21.584  0.00  0.00    +0.000 HD
ATOM     33  H   UNL     1      10.061  12.395  21.767  0.00  0.00    +0.000 HD
ENDBRANCH  28  31
ENDBRANCH  25  28
ENDBRANCH  20  22
ENDBRANCH  12  18
TORSDOF 4
ENDMDL
