MODEL 1
REMARK VINA RESULT:      -6.5      0.000      0.000
REMARK  Name = 
REMARK  10 active torsions:
REMARK  status: ('A' for Active; 'I' for Inactive)
REMARK    1  A    between atoms: C_2  and  C_3
REMARK    2  A    between atoms: C_3  and  O_4
REMARK    3  A    between atoms: O_4  and  N_5
REMARK    4  A    between atoms: C_6  and  C_7
REMARK    5  A    between atoms: C_6  and  C_26
REMARK    6  A    between atoms: N_9  and  C_10
REMARK    7  A    between atoms: C_14  and  S_15
REMARK    8  A    between atoms: S_15  and  C_16
REMARK    9  A    between atoms: C_19  and  C_20
REMARK   10  A    between atoms: C_20  and  O_22
REMARK                            x       y       z     vdW  Elec       q    Type
REMARK                         _______ _______ _______ _____ _____    ______ ____
ROOT
ATOM      1  C   UNL     1       2.481   7.918  17.948  0.00  0.00    +0.000 C 
ATOM      2  O   UNL     1       3.050   8.178  16.898  0.00  0.00    +0.000 OA
ATOM      3  N   UNL     1       1.437   8.665  18.446  0.00  0.00    +0.000 N 
ATOM      4  H   UNL     1       0.945   8.301  19.263  0.00  0.00    +0.000 HD
ENDROOT
BRANCH   3   5
ATOM      5  C   UNL     1       0.904   9.866  17.782  0.00  0.00    +0.000 C 
ATOM      6  C   UNL     1      -0.580  10.115  18.175  0.00  0.00    +0.000 C 
ATOM      7  N   UNL     1      -0.380  10.685  19.488  0.00  0.00    +0.000 NA
ATOM      8  C   UNL     1      -1.364  11.350  20.316  0.00  0.00    +0.000 C 
ATOM      9  C   UNL     1      -0.493  12.360  21.003  0.00  0.00    +0.000 C 
ATOM     10  C   UNL     1       0.714  12.446  20.402  0.00  0.00    +0.000 C 
ATOM     11  N   UNL     1       0.735  11.496  19.418  0.00  0.00    +0.000 N 
ATOM     12  C   UNL     1       1.585  11.098  18.401  0.00  0.00    +0.000 C 
ATOM     13  O   UNL     1       2.707  11.532  18.193  0.00  0.00    +0.000 OA
BRANCH   9  14
ATOM     14  S   UNL     1      -0.975  13.037  22.494  0.00  0.00    +0.000 S 
ATOM     15  C   UNL     1      -2.630  13.606  22.227  0.00  0.00    +0.000 C 
ATOM     16  O   UNL     1      -1.090  11.938  23.442  0.00  0.00    +0.000 OA
ATOM     17  O   UNL     1      -0.129  14.158  22.841  0.00  0.00    +0.000 OA
ENDBRANCH   9  14
BRANCH  10  18
ATOM     18  C   UNL     1       1.827  13.354  20.741  0.00  0.00    +0.000 C 
ATOM     19  O   UNL     1       2.823  12.969  21.337  0.00  0.00    +0.000 OA
BRANCH  18  20
ATOM     20  O   UNL     1       1.680  14.655  20.393  0.00  0.00    +0.000 OA
ATOM     21  H   UNL     1       2.418  15.090  19.916  0.00  0.00    +0.000 HD
ENDBRANCH  18  20
ENDBRANCH  10  18
ENDBRANCH   3   5
BRANCH   1  23
ATOM     22  N   UNL     1       2.205   6.474  19.915  0.00  0.00    +0.000 NA
ATOM     23  C   UNL     1       2.851   6.662  18.779  0.00  0.00    +0.000 C 
BRANCH  23  24
ATOM     24  C   UNL     1       3.893   5.761  18.262  0.00  0.00    +0.000 A 
ATOM     25  C   UNL     1       3.718   4.803  17.275  0.00  0.00    +0.000 A 
ATOM     26  S   UNL     1       5.166   3.942  16.996  0.00  0.00    +0.000 S 
ATOM     27  C   UNL     1       5.950   4.909  18.173  0.00  0.00    +0.000 A 
ATOM     28  N   UNL     1       7.243   4.713  18.469  0.00  0.00    +0.000 N 
ATOM     29  N   UNL     1       5.204   5.825  18.741  0.00  0.00    +0.000 NA
ATOM     30  H   UNL     1       7.814   4.175  17.830  0.00  0.00    +0.000 HD
ATOM     31  H   UNL     1       7.722   5.464  18.952  0.00  0.00    +0.000 HD
ENDBRANCH  23  24
BRANCH  22  32
ATOM     32  O   UNL     1       2.703   5.349  20.610  0.00  0.00    +0.000 OA
BRANCH  32  33
ATOM     33  C   UNL     1       1.671   4.467  21.070  0.00  0.00    +0.000 C 
BRANCH  33  35
ATOM     34  C   UNL     1       0.951   2.807  18.903  0.00  0.00    +0.000 C 
ATOM     35  C   UNL     1       1.284   3.573  19.904  0.00  0.00    +0.000 C 
ENDBRANCH  33  35
ENDBRANCH  32  33
ENDBRANCH  22  32
ENDBRANCH   1  23
TORSDOF 9
ENDMDL
MODEL 2
REMARK VINA RESULT:      -6.3      2.575      8.620
REMARK  Name = 
REMARK  10 active torsions:
REMARK  status: ('A' for Active; 'I' for Inactive)
REMARK    1  A    between atoms: C_2  and  C_3
REMARK    2  A    between atoms: C_3  and  O_4
REMARK    3  A    between atoms: O_4  and  N_5
REMARK    4  A    between atoms: C_6  and  C_7
REMARK    5  A    between atoms: C_6  and  C_26
REMARK    6  A    between atoms: N_9  and  C_10
REMARK    7  A    between atoms: C_14  and  S_15
REMARK    8  A    between atoms: S_15  and  C_16
REMARK    9  A    between atoms: C_19  and  C_20
REMARK   10  A    between atoms: C_20  and  O_22
REMARK                            x       y       z     vdW  Elec       q    Type
REMARK                         _______ _______ _______ _____ _____    ______ ____
ROOT
ATOM      1  C   UNL     1       0.870   9.382  18.836  0.00  0.00    +0.000 C 
ATOM      2  O   UNL     1       0.331   9.777  17.812  0.00  0.00    +0.000 OA
ATOM      3  N   UNL     1       1.634   8.238  18.895  0.00  0.00    +0.000 N 
ATOM      4  H   UNL     1       2.145   8.057  19.760  0.00  0.00    +0.000 HD
ENDROOT
BRANCH   3   5
ATOM      5  C   UNL     1       1.871   7.357  17.740  0.00  0.00    +0.000 C 
ATOM      6  C   UNL     1       3.149   7.783  16.961  0.00  0.00    +0.000 C 
ATOM      7  N   UNL     1       4.154   7.232  17.842  0.00  0.00    +0.000 NA
ATOM      8  C   UNL     1       5.569   7.084  17.577  0.00  0.00    +0.000 C 
ATOM      9  C   UNL     1       5.852   5.826  18.344  0.00  0.00    +0.000 C 
ATOM     10  C   UNL     1       4.705   5.209  18.700  0.00  0.00    +0.000 C 
ATOM     11  N   UNL     1       3.677   6.020  18.300  0.00  0.00    +0.000 N 
ATOM     12  C   UNL     1       2.295   5.977  18.270  0.00  0.00    +0.000 C 
ATOM     13  O   UNL     1       1.595   5.097  18.744  0.00  0.00    +0.000 OA
BRANCH   9  14
ATOM     14  S   UNL     1       7.439   5.478  18.867  0.00  0.00    +0.000 S 
ATOM     15  C   UNL     1       8.351   6.972  18.596  0.00  0.00    +0.000 C 
ATOM     16  O   UNL     1       7.383   5.315  20.312  0.00  0.00    +0.000 OA
ATOM     17  O   UNL     1       8.013   4.412  18.075  0.00  0.00    +0.000 OA
ENDBRANCH   9  14
BRANCH  10  18
ATOM     18  C   UNL     1       4.555   3.925  19.413  0.00  0.00    +0.000 C 
ATOM     19  O   UNL     1       3.837   3.806  20.395  0.00  0.00    +0.000 OA
BRANCH  18  20
ATOM     20  O   UNL     1       5.285   2.882  18.950  0.00  0.00    +0.000 OA
ATOM     21  H   UNL     1       4.936   2.380  18.184  0.00  0.00    +0.000 HD
ENDBRANCH  18  20
ENDBRANCH  10  18
ENDBRANCH   3   5
BRANCH   1  23
ATOM     22  N   UNL     1       0.877   9.521  21.287  0.00  0.00    +0.000 NA
ATOM     23  C   UNL     1       0.791  10.194  20.155  0.00  0.00    +0.000 C 
BRANCH  23  24
ATOM     24  C   UNL     1       0.625  11.653  20.072  0.00  0.00    +0.000 A 
ATOM     25  C   UNL     1       1.648  12.588  20.110  0.00  0.00    +0.000 A 
ATOM     26  S   UNL     1       1.027  14.177  20.026  0.00  0.00    +0.000 S 
ATOM     27  C   UNL     1      -0.557  13.535  19.911  0.00  0.00    +0.000 A 
ATOM     28  N   UNL     1      -1.620  14.348  19.818  0.00  0.00    +0.000 N 
ATOM     29  N   UNL     1      -0.640  12.227  19.922  0.00  0.00    +0.000 NA
ATOM     30  H   UNL     1      -1.473  15.316  19.565  0.00  0.00    +0.000 HD
ATOM     31  H   UNL     1      -2.483  13.938  19.483  0.00  0.00    +0.000 HD
ENDBRANCH  23  24
BRANCH  22  32
ATOM     32  O   UNL     1       0.699  10.368  22.405  0.00  0.00    +0.000 OA
BRANCH  32  33
ATOM     33  C   UNL     1      -0.391   9.971  23.247  0.00  0.00    +0.000 C 
BRANCH  33  35
ATOM     34  C   UNL     1      -2.341  12.008  23.119  0.00  0.00    +0.000 C 
ATOM     35  C   UNL     1      -1.441  11.067  23.179  0.00  0.00    +0.000 C 
ENDBRANCH  33  35
ENDBRANCH  32  33
ENDBRANCH  22  32
ENDBRANCH   1  23
TORSDOF 9
ENDMDL
MODEL 3
REMARK VINA RESULT:      -6.2      2.475      3.895
REMARK  Name = 
REMARK  10 active torsions:
REMARK  status: ('A' for Active; 'I' for Inactive)
REMARK    1  A    between atoms: C_2  and  C_3
REMARK    2  A    between atoms: C_3  and  O_4
REMARK    3  A    between atoms: O_4  and  N_5
REMARK    4  A    between atoms: C_6  and  C_7
REMARK    5  A    between atoms: C_6  and  C_26
REMARK    6  A    between atoms: N_9  and  C_10
REMARK    7  A    between atoms: C_14  and  S_15
REMARK    8  A    between atoms: S_15  and  C_16
REMARK    9  A    between atoms: C_19  and  C_20
REMARK   10  A    between atoms: C_20  and  O_22
REMARK                            x       y       z     vdW  Elec       q    Type
REMARK                         _______ _______ _______ _____ _____    ______ ____
ROOT
ATOM      1  C   UNL     1       1.930   6.993  19.932  0.00  0.00    +0.000 C 
ATOM      2  O   UNL     1       1.544   6.236  20.811  0.00  0.00    +0.000 OA
ATOM      3  N   UNL     1       1.579   8.324  19.874  0.00  0.00    +0.000 N 
ATOM      4  H   UNL     1       2.049   8.904  19.178  0.00  0.00    +0.000 HD
ENDROOT
BRANCH   3   5
ATOM      5  C   UNL     1       0.689   8.974  20.848  0.00  0.00    +0.000 C 
ATOM      6  C   UNL     1       1.424  10.117  21.607  0.00  0.00    +0.000 C 
ATOM      7  N   UNL     1       1.384  11.138  20.585  0.00  0.00    +0.000 NA
ATOM      8  C   UNL     1       1.705  12.542  20.733  0.00  0.00    +0.000 C 
ATOM      9  C   UNL     1       0.741  13.139  19.752  0.00  0.00    +0.000 C 
ATOM     10  C   UNL     1      -0.184  12.232  19.369  0.00  0.00    +0.000 C 
ATOM     11  N   UNL     1       0.155  11.046  19.962  0.00  0.00    +0.000 N 
ATOM     12  C   UNL     1      -0.372   9.772  20.070  0.00  0.00    +0.000 C 
ATOM     13  O   UNL     1      -1.368   9.357  19.501  0.00  0.00    +0.000 OA
BRANCH   9  14
ATOM     14  S   UNL     1       1.043  14.679  19.080  0.00  0.00    +0.000 S 
ATOM     15  C   UNL     1       1.690  15.645  20.415  0.00  0.00    +0.000 C 
ATOM     16  O   UNL     1       2.146  14.524  18.143  0.00  0.00    +0.000 OA
ATOM     17  O   UNL     1      -0.186  15.276  18.603  0.00  0.00    +0.000 OA
ENDBRANCH   9  14
BRANCH  10  18
ATOM     18  C   UNL     1      -1.330  12.440  18.463  0.00  0.00    +0.000 C 
ATOM     19  O   UNL     1      -2.488  12.332  18.842  0.00  0.00    +0.000 OA
BRANCH  18  20
ATOM     20  O   UNL     1      -1.042  12.723  17.170  0.00  0.00    +0.000 OA
ATOM     21  H   UNL     1      -1.655  13.310  16.679  0.00  0.00    +0.000 HD
ENDBRANCH  18  20
ENDBRANCH  10  18
ENDBRANCH   3   5
BRANCH   1  23
ATOM     22  N   UNL     1       3.500   7.452  18.101  0.00  0.00    +0.000 NA
ATOM     23  C   UNL     1       2.921   6.521  18.836  0.00  0.00    +0.000 C 
BRANCH  23  24
ATOM     24  C   UNL     1       3.155   5.078  18.677  0.00  0.00    +0.000 A 
ATOM     25  C   UNL     1       2.461   4.234  17.825  0.00  0.00    +0.000 A 
ATOM     26  S   UNL     1       3.014   2.625  17.974  0.00  0.00    +0.000 S 
ATOM     27  C   UNL     1       4.163   3.144  19.135  0.00  0.00    +0.000 A 
ATOM     28  N   UNL     1       4.996   2.266  19.714  0.00  0.00    +0.000 N 
ATOM     29  N   UNL     1       4.159   4.427  19.400  0.00  0.00    +0.000 NA
ATOM     30  H   UNL     1       5.117   1.356  19.289  0.00  0.00    +0.000 HD
ATOM     31  H   UNL     1       5.817   2.645  20.170  0.00  0.00    +0.000 HD
ENDBRANCH  23  24
BRANCH  22  32
ATOM     32  O   UNL     1       4.303   6.882  17.087  0.00  0.00    +0.000 OA
BRANCH  32  33
ATOM     33  C   UNL     1       5.692   7.214  17.214  0.00  0.00    +0.000 C 
BRANCH  33  35
ATOM     34  C   UNL     1       7.146   4.794  17.184  0.00  0.00    +0.000 C 
ATOM     35  C   UNL     1       6.474   5.911  17.197  0.00  0.00    +0.000 C 
ENDBRANCH  33  35
ENDBRANCH  32  33
ENDBRANCH  22  32
ENDBRANCH   1  23
TORSDOF 9
ENDMDL
MODEL 4
REMARK VINA RESULT:      -6.1      6.351      9.012
REMARK  Name = 
REMARK  10 active torsions:
REMARK  status: ('A' for Active; 'I' for Inactive)
REMARK    1  A    between atoms: C_2  and  C_3
REMARK    2  A    between atoms: C_3  and  O_4
REMARK    3  A    between atoms: O_4  and  N_5
REMARK    4  A    between atoms: C_6  and  C_7
REMARK    5  A    between atoms: C_6  and  C_26
REMARK    6  A    between atoms: N_9  and  C_10
REMARK    7  A    between atoms: C_14  and  S_15
REMARK    8  A    between atoms: S_15  and  C_16
REMARK    9  A    between atoms: C_19  and  C_20
REMARK   10  A    between atoms: C_20  and  O_22
REMARK                            x       y       z     vdW  Elec       q    Type
REMARK                         _______ _______ _______ _____ _____    ______ ____
ROOT
ATOM      1  C   UNL     1       0.326  16.198  21.276  0.00  0.00    +0.000 C 
ATOM      2  O   UNL     1       0.938  16.867  22.095  0.00  0.00    +0.000 OA
ATOM      3  N   UNL     1      -1.017  15.912  21.385  0.00  0.00    +0.000 N 
ATOM      4  H   UNL     1      -1.467  15.454  20.591  0.00  0.00    +0.000 HD
ENDROOT
BRANCH   3   5
ATOM      5  C   UNL     1      -1.856  16.365  22.506  0.00  0.00    +0.000 C 
ATOM      6  C   UNL     1      -3.281  16.759  22.018  0.00  0.00    +0.000 C 
ATOM      7  N   UNL     1      -3.847  15.439  21.863  0.00  0.00    +0.000 NA
ATOM      8  C   UNL     1      -5.238  15.099  21.646  0.00  0.00    +0.000 C 
ATOM      9  C   UNL     1      -5.309  13.793  22.379  0.00  0.00    +0.000 C 
ATOM     10  C   UNL     1      -4.214  13.610  23.149  0.00  0.00    +0.000 C 
ATOM     11  N   UNL     1      -3.378  14.665  22.907  0.00  0.00    +0.000 N 
ATOM     12  C   UNL     1      -2.174  15.145  23.388  0.00  0.00    +0.000 C 
ATOM     13  O   UNL     1      -1.456  14.591  24.205  0.00  0.00    +0.000 OA
BRANCH   9  14
ATOM     14  S   UNL     1      -6.525  12.658  21.995  0.00  0.00    +0.000 S 
ATOM     15  C   UNL     1      -7.822  13.607  21.251  0.00  0.00    +0.000 C 
ATOM     16  O   UNL     1      -6.000  11.817  20.930  0.00  0.00    +0.000 OA
ATOM     17  O   UNL     1      -7.022  12.020  23.195  0.00  0.00    +0.000 OA
ENDBRANCH   9  14
BRANCH  10  18
ATOM     18  C   UNL     1      -3.930  12.483  24.059  0.00  0.00    +0.000 C 
ATOM     19  O   UNL     1      -3.102  11.624  23.792  0.00  0.00    +0.000 OA
BRANCH  18  20
ATOM     20  O   UNL     1      -4.661  12.420  25.198  0.00  0.00    +0.000 OA
ATOM     21  H   UNL     1      -5.637  12.465  25.122  0.00  0.00    +0.000 HD
ENDBRANCH  18  20
ENDBRANCH  10  18
ENDBRANCH   3   5
BRANCH   1  23
ATOM     22  N   UNL     1       1.879  16.465  19.393  0.00  0.00    +0.000 NA
ATOM     23  C   UNL     1       1.013  15.669  19.989  0.00  0.00    +0.000 C 
BRANCH  23  24
ATOM     24  C   UNL     1       0.661  14.323  19.510  0.00  0.00    +0.000 A 
ATOM     25  C   UNL     1       1.314  13.147  19.847  0.00  0.00    +0.000 A 
ATOM     26  S   UNL     1       0.619  11.811  19.043  0.00  0.00    +0.000 S 
ATOM     27  C   UNL     1      -0.527  12.860  18.321  0.00  0.00    +0.000 A 
ATOM     28  N   UNL     1      -1.456  12.385  17.478  0.00  0.00    +0.000 N 
ATOM     29  N   UNL     1      -0.423  14.124  18.652  0.00  0.00    +0.000 NA
ATOM     30  H   UNL     1      -1.637  11.389  17.465  0.00  0.00    +0.000 HD
ATOM     31  H   UNL     1      -2.258  12.975  17.299  0.00  0.00    +0.000 HD
ENDBRANCH  23  24
BRANCH  22  32
ATOM     32  O   UNL     1       2.358  15.898  18.190  0.00  0.00    +0.000 OA
BRANCH  32  33
ATOM     33  C   UNL     1       2.831  16.875  17.254  0.00  0.00    +0.000 C 
BRANCH  33  35
ATOM     34  C   UNL     1       0.668  18.587  16.652  0.00  0.00    +0.000 C 
ATOM     35  C   UNL     1       1.666  17.796  16.931  0.00  0.00    +0.000 C 
ENDBRANCH  33  35
ENDBRANCH  32  33
ENDBRANCH  22  32
ENDBRANCH   1  23
TORSDOF 9
ENDMDL
MODEL 5
REMARK VINA RESULT:      -6.0      3.355      6.071
REMARK  Name = 
REMARK  10 active torsions:
REMARK  status: ('A' for Active; 'I' for Inactive)
REMARK    1  A    between atoms: C_2  and  C_3
REMARK    2  A    between atoms: C_3  and  O_4
REMARK    3  A    between atoms: O_4  and  N_5
REMARK    4  A    between atoms: C_6  and  C_7
REMARK    5  A    between atoms: C_6  and  C_26
REMARK    6  A    between atoms: N_9  and  C_10
REMARK    7  A    between atoms: C_14  and  S_15
REMARK    8  A    between atoms: S_15  and  C_16
REMARK    9  A    between atoms: C_19  and  C_20
REMARK   10  A    between atoms: C_20  and  O_22
REMARK                            x       y       z     vdW  Elec       q    Type
REMARK                         _______ _______ _______ _____ _____    ______ ____
ROOT
ATOM      1  C   UNL     1       0.413  11.968  20.278  0.00  0.00    +0.000 C 
ATOM      2  O   UNL     1       1.440  11.889  20.935  0.00  0.00    +0.000 OA
ATOM      3  N   UNL     1      -0.442  13.046  20.340  0.00  0.00    +0.000 N 
ATOM      4  H   UNL     1      -1.208  13.079  19.664  0.00  0.00    +0.000 HD
ENDROOT
BRANCH   3   5
ATOM      5  C   UNL     1      -0.224  14.209  21.214  0.00  0.00    +0.000 C 
ATOM      6  C   UNL     1      -1.022  15.447  20.712  0.00  0.00    +0.000 C 
ATOM      7  N   UNL     1      -2.337  15.084  21.187  0.00  0.00    +0.000 NA
ATOM      8  C   UNL     1      -3.514  15.926  21.244  0.00  0.00    +0.000 C 
ATOM      9  C   UNL     1      -4.174  15.376  22.474  0.00  0.00    +0.000 C 
ATOM     10  C   UNL     1      -3.327  14.580  23.162  0.00  0.00    +0.000 C 
ATOM     11  N   UNL     1      -2.178  14.491  22.424  0.00  0.00    +0.000 N 
ATOM     12  C   UNL     1      -0.919  13.935  22.558  0.00  0.00    +0.000 C 
ATOM     13  O   UNL     1      -0.542  13.226  23.478  0.00  0.00    +0.000 OA
BRANCH   9  14
ATOM     14  S   UNL     1      -5.852  15.580  22.712  0.00  0.00    +0.000 S 
ATOM     15  C   UNL     1      -5.991  16.664  24.104  0.00  0.00    +0.000 C 
ATOM     16  O   UNL     1      -6.352  16.340  21.576  0.00  0.00    +0.000 OA
ATOM     17  O   UNL     1      -6.479  14.313  23.022  0.00  0.00    +0.000 OA
ENDBRANCH   9  14
BRANCH  10  18
ATOM     18  C   UNL     1      -3.576  13.896  24.446  0.00  0.00    +0.000 C 
ATOM     19  O   UNL     1      -3.908  12.720  24.504  0.00  0.00    +0.000 OA
BRANCH  18  20
ATOM     20  O   UNL     1      -3.455  14.644  25.569  0.00  0.00    +0.000 OA
ATOM     21  H   UNL     1      -4.001  15.454  25.643  0.00  0.00    +0.000 HD
ENDBRANCH  18  20
ENDBRANCH  10  18
ENDBRANCH   3   5
BRANCH   1  23
ATOM     22  N   UNL     1      -1.140  11.000  18.639  0.00  0.00    +0.000 NA
ATOM     23  C   UNL     1       0.022  10.872  19.252  0.00  0.00    +0.000 C 
BRANCH  23  24
ATOM     24  C   UNL     1       0.959   9.761  19.023  0.00  0.00    +0.000 A 
ATOM     25  C   UNL     1       1.740   9.580  17.892  0.00  0.00    +0.000 A 
ATOM     26  S   UNL     1       2.656   8.143  18.006  0.00  0.00    +0.000 S 
ATOM     27  C   UNL     1       1.992   7.861  19.560  0.00  0.00    +0.000 A 
ATOM     28  N   UNL     1       2.334   6.771  20.263  0.00  0.00    +0.000 N 
ATOM     29  N   UNL     1       1.150   8.768  19.988  0.00  0.00    +0.000 NA
ATOM     30  H   UNL     1       3.161   6.255  19.991  0.00  0.00    +0.000 HD
ATOM     31  H   UNL     1       2.139   6.786  21.256  0.00  0.00    +0.000 HD
ENDBRANCH  23  24
BRANCH  22  32
ATOM     32  O   UNL     1      -1.408   9.891  17.805  0.00  0.00    +0.000 OA
BRANCH  32  33
ATOM     33  C   UNL     1      -2.790   9.778  17.444  0.00  0.00    +0.000 C 
BRANCH  33  35
ATOM     34  C   UNL     1      -2.963  10.105  14.645  0.00  0.00    +0.000 C 
ATOM     35  C   UNL     1      -2.882   9.954  15.937  0.00  0.00    +0.000 C 
ENDBRANCH  33  35
ENDBRANCH  32  33
ENDBRANCH  22  32
ENDBRANCH   1  23
TORSDOF 9
ENDMDL
MODEL 6
REMARK VINA RESULT:      -6.0      1.027      1.238
REMARK  Name = 
REMARK  10 active torsions:
REMARK  status: ('A' for Active; 'I' for Inactive)
REMARK    1  A    between atoms: C_2  and  C_3
REMARK    2  A    between atoms: C_3  and  O_4
REMARK    3  A    between atoms: O_4  and  N_5
REMARK    4  A    between atoms: C_6  and  C_7
REMARK    5  A    between atoms: C_6  and  C_26
REMARK    6  A    between atoms: N_9  and  C_10
REMARK    7  A    between atoms: C_14  and  S_15
REMARK    8  A    between atoms: S_15  and  C_16
REMARK    9  A    between atoms: C_19  and  C_20
REMARK   10  A    between atoms: C_20  and  O_22
REMARK                            x       y       z     vdW  Elec       q    Type
REMARK                         _______ _______ _______ _____ _____    ______ ____
ROOT
ATOM      1  C   UNL     1       2.372   8.013  18.090  0.00  0.00    +0.000 C 
ATOM      2  O   UNL     1       3.000   8.251  17.069  0.00  0.00    +0.000 OA
ATOM      3  N   UNL     1       1.307   8.775  18.517  0.00  0.00    +0.000 N 
ATOM      4  H   UNL     1       0.767   8.427  19.311  0.00  0.00    +0.000 HD
ENDROOT
BRANCH   3   5
ATOM      5  C   UNL     1       0.821   9.967  17.803  0.00  0.00    +0.000 C 
ATOM      6  C   UNL     1      -0.688  10.218  18.090  0.00  0.00    +0.000 C 
ATOM      7  N   UNL     1      -0.581  10.802  19.407  0.00  0.00    +0.000 NA
ATOM      8  C   UNL     1      -1.620  11.475  20.157  0.00  0.00    +0.000 C 
ATOM      9  C   UNL     1      -0.800  12.493  20.892  0.00  0.00    +0.000 C 
ATOM     10  C   UNL     1       0.445  12.575  20.376  0.00  0.00    +0.000 C 
ATOM     11  N   UNL     1       0.536  11.614  19.406  0.00  0.00    +0.000 N 
ATOM     12  C   UNL     1       1.455  11.207  18.456  0.00  0.00    +0.000 C 
ATOM     13  O   UNL     1       2.588  11.640  18.322  0.00  0.00    +0.000 OA
BRANCH   9  14
ATOM     14  S   UNL     1      -1.386  13.185  22.339  0.00  0.00    +0.000 S 
ATOM     15  C   UNL     1      -2.887  12.314  22.691  0.00  0.00    +0.000 C 
ATOM     16  O   UNL     1      -0.460  12.806  23.396  0.00  0.00    +0.000 OA
ATOM     17  O   UNL     1      -1.677  14.589  22.148  0.00  0.00    +0.000 OA
ENDBRANCH   9  14
BRANCH  10  18
ATOM     18  C   UNL     1       1.531  13.488  20.782  0.00  0.00    +0.000 C 
ATOM     19  O   UNL     1       1.429  14.703  20.686  0.00  0.00    +0.000 OA
BRANCH  18  20
ATOM     20  O   UNL     1       2.673  12.916  21.235  0.00  0.00    +0.000 OA
ATOM     21  H   UNL     1       3.057  13.255  22.071  0.00  0.00    +0.000 HD
ENDBRANCH  18  20
ENDBRANCH  10  18
ENDBRANCH   3   5
BRANCH   1  23
ATOM     22  N   UNL     1       1.889   6.527  19.985  0.00  0.00    +0.000 NA
ATOM     23  C   UNL     1       2.686   6.768  18.961  0.00  0.00    +0.000 C 
BRANCH  23  24
ATOM     24  C   UNL     1       3.845   5.937  18.603  0.00  0.00    +0.000 A 
ATOM     25  C   UNL     1       5.088   5.972  19.216  0.00  0.00    +0.000 A 
ATOM     26  S   UNL     1       6.168   4.878  18.471  0.00  0.00    +0.000 S 
ATOM     27  C   UNL     1       4.918   4.396  17.403  0.00  0.00    +0.000 A 
ATOM     28  N   UNL     1       5.143   3.468  16.461  0.00  0.00    +0.000 N 
ATOM     29  N   UNL     1       3.764   4.990  17.578  0.00  0.00    +0.000 NA
ATOM     30  H   UNL     1       5.962   2.879  16.542  0.00  0.00    +0.000 HD
ATOM     31  H   UNL     1       4.330   3.027  16.048  0.00  0.00    +0.000 HD
ENDBRANCH  23  24
BRANCH  22  32
ATOM     32  O   UNL     1       2.341   5.423  20.742  0.00  0.00    +0.000 OA
BRANCH  32  33
ATOM     33  C   UNL     1       1.364   4.382  20.861  0.00  0.00    +0.000 C 
BRANCH  33  35
ATOM     34  C   UNL     1       2.226   2.226  19.255  0.00  0.00    +0.000 C 
ATOM     35  C   UNL     1       1.828   3.221  19.997  0.00  0.00    +0.000 C 
ENDBRANCH  33  35
ENDBRANCH  32  33
ENDBRANCH  22  32
ENDBRANCH   1  23
TORSDOF 9
ENDMDL
MODEL 7
REMARK VINA RESULT:      -6.0      3.355      6.146
REMARK  Name = 
REMARK  10 active torsions:
REMARK  status: ('A' for Active; 'I' for Inactive)
REMARK    1  A    between atoms: C_2  and  C_3
REMARK    2  A    between atoms: C_3  and  O_4
REMARK    3  A    between atoms: O_4  and  N_5
REMARK    4  A    between atoms: C_6  and  C_7
REMARK    5  A    between atoms: C_6  and  C_26
REMARK    6  A    between atoms: N_9  and  C_10
REMARK    7  A    between atoms: C_14  and  S_15
REMARK    8  A    between atoms: S_15  and  C_16
REMARK    9  A    between atoms: C_19  and  C_20
REMARK   10  A    between atoms: C_20  and  O_22
REMARK                            x       y       z     vdW  Elec       q    Type
REMARK                         _______ _______ _______ _____ _____    ______ ____
ROOT
ATOM      1  C   UNL     1       0.178  11.687  20.374  0.00  0.00    +0.000 C 
ATOM      2  O   UNL     1       1.132  11.583  21.131  0.00  0.00    +0.000 OA
ATOM      3  N   UNL     1      -0.703  12.745  20.410  0.00  0.00    +0.000 N 
ATOM      4  H   UNL     1      -1.393  12.809  19.660  0.00  0.00    +0.000 HD
ENDROOT
BRANCH   3   5
ATOM      5  C   UNL     1      -0.606  13.853  21.374  0.00  0.00    +0.000 C 
ATOM      6  C   UNL     1      -1.406  15.095  20.885  0.00  0.00    +0.000 C 
ATOM      7  N   UNL     1      -2.742  14.657  21.218  0.00  0.00    +0.000 NA
ATOM      8  C   UNL     1      -3.952  15.452  21.226  0.00  0.00    +0.000 C 
ATOM      9  C   UNL     1      -4.692  14.799  22.355  0.00  0.00    +0.000 C 
ATOM     10  C   UNL     1      -3.876  13.986  23.062  0.00  0.00    +0.000 C 
ATOM     11  N   UNL     1      -2.666  13.987  22.424  0.00  0.00    +0.000 N 
ATOM     12  C   UNL     1      -1.402  13.465  22.631  0.00  0.00    +0.000 C 
ATOM     13  O   UNL     1      -1.078  12.709  23.533  0.00  0.00    +0.000 OA
BRANCH   9  14
ATOM     14  S   UNL     1      -6.391  14.929  22.457  0.00  0.00    +0.000 S 
ATOM     15  C   UNL     1      -6.836  16.119  21.224  0.00  0.00    +0.000 C 
ATOM     16  O   UNL     1      -6.942  13.665  21.994  0.00  0.00    +0.000 OA
ATOM     17  O   UNL     1      -6.785  15.416  23.762  0.00  0.00    +0.000 OA
ENDBRANCH   9  14
BRANCH  10  18
ATOM     18  C   UNL     1      -4.206  13.209  24.272  0.00  0.00    +0.000 C 
ATOM     19  O   UNL     1      -4.864  12.178  24.225  0.00  0.00    +0.000 OA
BRANCH  18  20
ATOM     20  O   UNL     1      -3.778  13.711  25.455  0.00  0.00    +0.000 OA
ATOM     21  H   UNL     1      -3.642  14.679  25.522  0.00  0.00    +0.000 HD
ENDBRANCH  18  20
ENDBRANCH  10  18
ENDBRANCH   3   5
BRANCH   1  23
ATOM     22  N   UNL     1      -1.190  10.776  18.549  0.00  0.00    +0.000 NA
ATOM     23  C   UNL     1      -0.075  10.653  19.246  0.00  0.00    +0.000 C 
BRANCH  23  24
ATOM     24  C   UNL     1       0.929   9.603  19.018  0.00  0.00    +0.000 A 
ATOM     25  C   UNL     1       1.729   9.478  17.893  0.00  0.00    +0.000 A 
ATOM     26  S   UNL     1       2.732   8.099  18.007  0.00  0.00    +0.000 S 
ATOM     27  C   UNL     1       2.073   7.767  19.553  0.00  0.00    +0.000 A 
ATOM     28  N   UNL     1       2.475   6.696  20.252  0.00  0.00    +0.000 N 
ATOM     29  N   UNL     1       1.173   8.618  19.979  0.00  0.00    +0.000 NA
ATOM     30  H   UNL     1       3.335   6.233  19.985  0.00  0.00    +0.000 HD
ATOM     31  H   UNL     1       2.271   6.693  21.244  0.00  0.00    +0.000 HD
ENDBRANCH  23  24
BRANCH  22  32
ATOM     32  O   UNL     1      -1.337   9.721  17.621  0.00  0.00    +0.000 OA
BRANCH  32  33
ATOM     33  C   UNL     1      -2.310   9.994  16.605  0.00  0.00    +0.000 C 
BRANCH  33  35
ATOM     34  C   UNL     1      -4.652  10.895  17.899  0.00  0.00    +0.000 C 
ATOM     35  C   UNL     1      -3.570  10.479  17.302  0.00  0.00    +0.000 C 
ENDBRANCH  33  35
ENDBRANCH  32  33
ENDBRANCH  22  32
ENDBRANCH   1  23
TORSDOF 9
ENDMDL
MODEL 8
REMARK VINA RESULT:      -6.0      6.662      8.503
REMARK  Name = 
REMARK  10 active torsions:
REMARK  status: ('A' for Active; 'I' for Inactive)
REMARK    1  A    between atoms: C_2  and  C_3
REMARK    2  A    between atoms: C_3  and  O_4
REMARK    3  A    between atoms: O_4  and  N_5
REMARK    4  A    between atoms: C_6  and  C_7
REMARK    5  A    between atoms: C_6  and  C_26
REMARK    6  A    between atoms: N_9  and  C_10
REMARK    7  A    between atoms: C_14  and  S_15
REMARK    8  A    between atoms: S_15  and  C_16
REMARK    9  A    between atoms: C_19  and  C_20
REMARK   10  A    between atoms: C_20  and  O_22
REMARK                            x       y       z     vdW  Elec       q    Type
REMARK                         _______ _______ _______ _____ _____    ______ ____
ROOT
ATOM      1  C   UNL     1      -2.153  11.608  18.703  0.00  0.00    +0.000 C 
ATOM      2  O   UNL     1      -1.260  10.855  19.062  0.00  0.00    +0.000 OA
ATOM      3  N   UNL     1      -2.366  12.849  19.263  0.00  0.00    +0.000 N 
ATOM      4  H   UNL     1      -3.055  13.456  18.816  0.00  0.00    +0.000 HD
ENDROOT
BRANCH   3   5
ATOM      5  C   UNL     1      -1.556  13.395  20.364  0.00  0.00    +0.000 C 
ATOM      6  C   UNL     1      -1.755  14.932  20.499  0.00  0.00    +0.000 C 
ATOM      7  N   UNL     1      -3.036  14.943  21.168  0.00  0.00    +0.000 NA
ATOM      8  C   UNL     1      -3.692  16.074  21.791  0.00  0.00    +0.000 C 
ATOM      9  C   UNL     1      -4.399  15.381  22.918  0.00  0.00    +0.000 C 
ATOM     10  C   UNL     1      -3.938  14.122  23.078  0.00  0.00    +0.000 C 
ATOM     11  N   UNL     1      -3.035  13.900  22.073  0.00  0.00    +0.000 N 
ATOM     12  C   UNL     1      -2.158  12.902  21.691  0.00  0.00    +0.000 C 
ATOM     13  O   UNL     1      -2.050  11.804  22.213  0.00  0.00    +0.000 OA
BRANCH   9  14
ATOM     14  S   UNL     1      -5.769  16.098  23.642  0.00  0.00    +0.000 S 
ATOM     15  C   UNL     1      -6.334  17.297  22.468  0.00  0.00    +0.000 C 
ATOM     16  O   UNL     1      -6.807  15.079  23.686  0.00  0.00    +0.000 OA
ATOM     17  O   UNL     1      -5.403  16.763  24.874  0.00  0.00    +0.000 OA
ENDBRANCH   9  14
BRANCH  10  18
ATOM     18  C   UNL     1      -4.335  13.139  24.105  0.00  0.00    +0.000 C 
ATOM     19  O   UNL     1      -3.709  12.998  25.146  0.00  0.00    +0.000 OA
BRANCH  18  20
ATOM     20  O   UNL     1      -5.411  12.366  23.825  0.00  0.00    +0.000 OA
ATOM     21  H   UNL     1      -5.628  12.202  22.883  0.00  0.00    +0.000 HD
ENDBRANCH  18  20
ENDBRANCH  10  18
ENDBRANCH   3   5
BRANCH   1  23
ATOM     22  N   UNL     1      -2.519  10.883  16.386  0.00  0.00    +0.000 NA
ATOM     23  C   UNL     1      -3.088  11.248  17.519  0.00  0.00    +0.000 C 
BRANCH  23  24
ATOM     24  C   UNL     1      -4.542  11.333  17.723  0.00  0.00    +0.000 A 
ATOM     25  C   UNL     1      -5.360  12.370  17.299  0.00  0.00    +0.000 A 
ATOM     26  S   UNL     1      -6.979  12.103  17.774  0.00  0.00    +0.000 S 
ATOM     27  C   UNL     1      -6.510  10.616  18.484  0.00  0.00    +0.000 A 
ATOM     28  N   UNL     1      -7.412   9.837  19.100  0.00  0.00    +0.000 N 
ATOM     29  N   UNL     1      -5.240  10.314  18.377  0.00  0.00    +0.000 NA
ATOM     30  H   UNL     1      -8.395  10.001  18.929  0.00  0.00    +0.000 HD
ATOM     31  H   UNL     1      -7.153   8.871  19.255  0.00  0.00    +0.000 HD
ENDBRANCH  23  24
BRANCH  22  32
ATOM     32  O   UNL     1      -3.479  10.672  15.371  0.00  0.00    +0.000 OA
BRANCH  32  33
ATOM     33  C   UNL     1      -2.942  10.025  14.211  0.00  0.00    +0.000 C 
BRANCH  33  35
ATOM     34  C   UNL     1      -5.059   9.693  12.372  0.00  0.00    +0.000 C 
ATOM     35  C   UNL     1      -4.081   9.847  13.221  0.00  0.00    +0.000 C 
ENDBRANCH  33  35
ENDBRANCH  32  33
ENDBRANCH  22  32
ENDBRANCH   1  23
TORSDOF 9
ENDMDL
MODEL 9
REMARK VINA RESULT:      -5.9      5.937      7.874
REMARK  Name = 
REMARK  10 active torsions:
REMARK  status: ('A' for Active; 'I' for Inactive)
REMARK    1  A    between atoms: C_2  and  C_3
REMARK    2  A    between atoms: C_3  and  O_4
REMARK    3  A    between atoms: O_4  and  N_5
REMARK    4  A    between atoms: C_6  and  C_7
REMARK    5  A    between atoms: C_6  and  C_26
REMARK    6  A    between atoms: N_9  and  C_10
REMARK    7  A    between atoms: C_14  and  S_15
REMARK    8  A    between atoms: S_15  and  C_16
REMARK    9  A    between atoms: C_19  and  C_20
REMARK   10  A    between atoms: C_20  and  O_22
REMARK                            x       y       z     vdW  Elec       q    Type
REMARK                         _______ _______ _______ _____ _____    ______ ____
ROOT
ATOM      1  C   UNL     1      -1.719  10.570  17.188  0.00  0.00    +0.000 C 
ATOM      2  O   UNL     1      -0.941   9.634  17.290  0.00  0.00    +0.000 OA
ATOM      3  N   UNL     1      -1.493  11.806  17.752  0.00  0.00    +0.000 N 
ATOM      4  H   UNL     1      -2.137  12.560  17.509  0.00  0.00    +0.000 HD
ENDROOT
BRANCH   3   5
ATOM      5  C   UNL     1      -0.301  12.130  18.552  0.00  0.00    +0.000 C 
ATOM      6  C   UNL     1      -0.203  13.659  18.822  0.00  0.00    +0.000 C 
ATOM      7  N   UNL     1      -1.187  13.774  19.874  0.00  0.00    +0.000 NA
ATOM      8  C   UNL     1      -1.427  14.914  20.733  0.00  0.00    +0.000 C 
ATOM      9  C   UNL     1      -1.839  14.214  21.994  0.00  0.00    +0.000 C 
ATOM     10  C   UNL     1      -1.555  12.895  21.929  0.00  0.00    +0.000 C 
ATOM     11  N   UNL     1      -1.064  12.656  20.675  0.00  0.00    +0.000 N 
ATOM     12  C   UNL     1      -0.520  11.593  19.977  0.00  0.00    +0.000 C 
ATOM     13  O   UNL     1      -0.426  10.444  20.379  0.00  0.00    +0.000 OA
BRANCH   9  14
ATOM     14  S   UNL     1      -2.779  15.031  23.161  0.00  0.00    +0.000 S 
ATOM     15  C   UNL     1      -1.865  14.888  24.670  0.00  0.00    +0.000 C 
ATOM     16  O   UNL     1      -2.746  16.445  22.819  0.00  0.00    +0.000 OA
ATOM     17  O   UNL     1      -4.068  14.391  23.314  0.00  0.00    +0.000 OA
ENDBRANCH   9  14
BRANCH  10  18
ATOM     18  C   UNL     1      -1.755  11.877  22.979  0.00  0.00    +0.000 C 
ATOM     19  O   UNL     1      -2.856  11.648  23.462  0.00  0.00    +0.000 OA
BRANCH  18  20
ATOM     20  O   UNL     1      -0.651  11.228  23.418  0.00  0.00    +0.000 OA
ATOM     21  H   UNL     1       0.204  11.707  23.397  0.00  0.00    +0.000 HD
ENDBRANCH  18  20
ENDBRANCH  10  18
ENDBRANCH   3   5
BRANCH   1  23
ATOM     22  N   UNL     1      -2.900   9.950  15.127  0.00  0.00    +0.000 NA
ATOM     23  C   UNL     1      -3.013  10.457  16.340  0.00  0.00    +0.000 C 
BRANCH  23  24
ATOM     24  C   UNL     1      -4.280  10.918  16.929  0.00  0.00    +0.000 A 
ATOM     25  C   UNL     1      -5.010  10.253  17.901  0.00  0.00    +0.000 A 
ATOM     26  S   UNL     1      -6.441  11.105  18.280  0.00  0.00    +0.000 S 
ATOM     27  C   UNL     1      -5.995  12.322  17.159  0.00  0.00    +0.000 A 
ATOM     28  N   UNL     1      -6.784  13.386  16.954  0.00  0.00    +0.000 N 
ATOM     29  N   UNL     1      -4.855  12.131  16.541  0.00  0.00    +0.000 NA
ATOM     30  H   UNL     1      -7.506  13.596  17.631  0.00  0.00    +0.000 HD
ATOM     31  H   UNL     1      -6.363  14.191  16.506  0.00  0.00    +0.000 HD
ENDBRANCH  23  24
BRANCH  22  32
ATOM     32  O   UNL     1      -4.132   9.990  14.435  0.00  0.00    +0.000 OA
BRANCH  32  33
ATOM     33  C   UNL     1      -3.982   9.937  13.011  0.00  0.00    +0.000 C 
BRANCH  33  35
ATOM     34  C   UNL     1      -6.440   9.060  11.933  0.00  0.00    +0.000 C 
ATOM     35  C   UNL     1      -5.305   9.464  12.431  0.00  0.00    +0.000 C 
ENDBRANCH  33  35
ENDBRANCH  32  33
ENDBRANCH  22  32
ENDBRANCH   1  23
TORSDOF 9
ENDMDL
