MODEL 1
REMARK VINA RESULT:      -8.3      0.000      0.000
REMARK  Name = 
REMARK  3 active torsions:
REMARK  status: ('A' for Active; 'I' for Inactive)
REMARK    1  A    between atoms: C_2  and  C_4
REMARK    2  A    between atoms: C_15  and  C_16
REMARK    3  A    between atoms: C_16  and  C_17
REMARK                            x       y       z     vdW  Elec       q    Type
REMARK                         _______ _______ _______ _____ _____    ______ ____
ROOT
ATOM      1  C   UNL     1       3.272   3.302  19.686  0.00  0.00    +0.000 A 
ATOM      2  C   UNL     1       2.630   3.318  20.932  0.00  0.00    +0.000 A 
ATOM      3  C   UNL     1       1.970   4.471  21.378  0.00  0.00    +0.000 A 
ATOM      4  C   UNL     1       1.936   5.620  20.584  0.00  0.00    +0.000 A 
ATOM      5  C   UNL     1       2.551   5.606  19.340  0.00  0.00    +0.000 A 
ATOM      6  C   UNL     1       3.235   4.460  18.913  0.00  0.00    +0.000 A 
ATOM      7  C   UNL     1       3.793   4.703  17.546  0.00  0.00    +0.000 C 
ATOM      8  C   UNL     1       3.619   6.226  17.402  0.00  0.00    +0.000 C 
ATOM      9  N   UNL     1       2.603   6.640  18.381  0.00  0.00    +0.000 N 
ATOM     10  C   UNL     1       2.257   7.989  18.437  0.00  0.00    +0.000 A 
ATOM     11  C   UNL     1       1.022   8.385  18.961  0.00  0.00    +0.000 A 
ATOM     12  C   UNL     1       0.649   9.738  18.966  0.00  0.00    +0.000 A 
ATOM     13  C   UNL     1       1.550  10.666  18.449  0.00  0.00    +0.000 A 
ATOM     14  C   UNL     1       2.754  10.205  17.951  0.00  0.00    +0.000 A 
ATOM     15  N   UNL     1       3.109   8.904  17.916  0.00  0.00    +0.000 NA
ENDROOT
BRANCH   1  17
ATOM     16  N   UNL     1       5.109   1.725  19.882  0.00  0.00    +0.000 N 
ATOM     17  C   UNL     1       3.980   2.085  19.205  0.00  0.00    +0.000 C 
ATOM     18  O   UNL     1       3.569   1.411  18.270  0.00  0.00    +0.000 OA
ATOM     19  H   UNL     1       5.524   0.838  19.618  0.00  0.00    +0.000 HD
ATOM     20  H   UNL     1       5.344   2.103  20.789  0.00  0.00    +0.000 HD
ENDBRANCH   1  17
BRANCH  12  21
ATOM     21  C   UNL     1      -0.692  10.179  19.505  0.00  0.00    +0.000 C 
BRANCH  21  22
ATOM     22  C   UNL     1      -1.722  10.477  18.436  0.00  0.00    +0.000 A 
ATOM     23  C   UNL     1      -2.797  11.341  18.708  0.00  0.00    +0.000 A 
ATOM     24  C   UNL     1      -3.783  11.618  17.752  0.00  0.00    +0.000 A 
ATOM     25  C   UNL     1      -3.637  11.001  16.514  0.00  0.00    +0.000 A 
ATOM     26  O   UNL     1      -4.484  11.139  15.456  0.00  0.00    +0.000 OA
ATOM     27  C   UNL     1      -3.980  10.387  14.444  0.00  0.00    +0.000 A 
ATOM     28  C   UNL     1      -2.815   9.765  14.837  0.00  0.00    +0.000 A 
ATOM     29  C   UNL     1      -2.588  10.151  16.185  0.00  0.00    +0.000 A 
ATOM     30  C   UNL     1      -1.613   9.877  17.163  0.00  0.00    +0.000 A 
ENDBRANCH  21  22
ENDBRANCH  12  21
TORSDOF 3
ENDMDL
MODEL 2
REMARK VINA RESULT:      -8.3      3.905      9.461
REMARK  Name = 
REMARK  3 active torsions:
REMARK  status: ('A' for Active; 'I' for Inactive)
REMARK    1  A    between atoms: C_2  and  C_4
REMARK    2  A    between atoms: C_15  and  C_16
REMARK    3  A    between atoms: C_16  and  C_17
REMARK                            x       y       z     vdW  Elec       q    Type
REMARK                         _______ _______ _______ _____ _____    ______ ____
ROOT
ATOM      1  C   UNL     1       0.870  15.112  19.037  0.00  0.00    +0.000 A 
ATOM      2  C   UNL     1       2.090  15.200  18.353  0.00  0.00    +0.000 A 
ATOM      3  C   UNL     1       2.857  14.051  18.116  0.00  0.00    +0.000 A 
ATOM      4  C   UNL     1       2.415  12.800  18.554  0.00  0.00    +0.000 A 
ATOM      5  C   UNL     1       1.198  12.701  19.213  0.00  0.00    +0.000 A 
ATOM      6  C   UNL     1       0.450  13.858  19.473  0.00  0.00    +0.000 A 
ATOM      7  C   UNL     1      -0.812  13.477  20.181  0.00  0.00    +0.000 C 
ATOM      8  C   UNL     1      -0.523  12.017  20.573  0.00  0.00    +0.000 C 
ATOM      9  N   UNL     1       0.561  11.541  19.701  0.00  0.00    +0.000 N 
ATOM     10  C   UNL     1       0.999  10.227  19.856  0.00  0.00    +0.000 A 
ATOM     11  C   UNL     1       1.649   9.566  18.808  0.00  0.00    +0.000 A 
ATOM     12  C   UNL     1       2.040   8.224  18.943  0.00  0.00    +0.000 A 
ATOM     13  C   UNL     1       1.774   7.585  20.152  0.00  0.00    +0.000 A 
ATOM     14  C   UNL     1       1.132   8.299  21.145  0.00  0.00    +0.000 A 
ATOM     15  N   UNL     1       0.728   9.580  21.014  0.00  0.00    +0.000 NA
ENDROOT
BRANCH   1  17
ATOM     16  N   UNL     1      -0.872  16.660  18.350  0.00  0.00    +0.000 N 
ATOM     17  C   UNL     1       0.050  16.326  19.299  0.00  0.00    +0.000 C 
ATOM     18  O   UNL     1       0.163  16.987  20.322  0.00  0.00    +0.000 OA
ATOM     19  H   UNL     1      -1.499  17.422  18.585  0.00  0.00    +0.000 HD
ATOM     20  H   UNL     1      -1.161  16.021  17.624  0.00  0.00    +0.000 HD
ENDBRANCH   1  17
BRANCH  12  21
ATOM     21  C   UNL     1       2.719   7.489  17.812  0.00  0.00    +0.000 C 
BRANCH  21  22
ATOM     22  C   UNL     1       3.158   6.082  18.162  0.00  0.00    +0.000 A 
ATOM     23  C   UNL     1       4.378   5.866  18.827  0.00  0.00    +0.000 A 
ATOM     24  C   UNL     1       4.828   4.578  19.144  0.00  0.00    +0.000 A 
ATOM     25  C   UNL     1       3.999   3.522  18.774  0.00  0.00    +0.000 A 
ATOM     26  O   UNL     1       4.256   2.202  18.989  0.00  0.00    +0.000 OA
ATOM     27  C   UNL     1       3.200   1.508  18.492  0.00  0.00    +0.000 A 
ATOM     28  C   UNL     1       2.264   2.366  17.959  0.00  0.00    +0.000 A 
ATOM     29  C   UNL     1       2.779   3.679  18.129  0.00  0.00    +0.000 A 
ATOM     30  C   UNL     1       2.348   4.982  17.810  0.00  0.00    +0.000 A 
ENDBRANCH  21  22
ENDBRANCH  12  21
TORSDOF 3
ENDMDL
MODEL 3
REMARK VINA RESULT:      -7.9      4.801      9.955
REMARK  Name = 
REMARK  3 active torsions:
REMARK  status: ('A' for Active; 'I' for Inactive)
REMARK    1  A    between atoms: C_2  and  C_4
REMARK    2  A    between atoms: C_15  and  C_16
REMARK    3  A    between atoms: C_16  and  C_17
REMARK                            x       y       z     vdW  Elec       q    Type
REMARK                         _______ _______ _______ _____ _____    ______ ____
ROOT
ATOM      1  C   UNL     1      -5.190  14.071  23.185  0.00  0.00    +0.000 A 
ATOM      2  C   UNL     1      -4.223  13.691  24.126  0.00  0.00    +0.000 A 
ATOM      3  C   UNL     1      -3.112  12.929  23.737  0.00  0.00    +0.000 A 
ATOM      4  C   UNL     1      -2.950  12.542  22.404  0.00  0.00    +0.000 A 
ATOM      5  C   UNL     1      -3.891  12.933  21.463  0.00  0.00    +0.000 A 
ATOM      6  C   UNL     1      -5.015  13.669  21.864  0.00  0.00    +0.000 A 
ATOM      7  C   UNL     1      -5.860  13.965  20.665  0.00  0.00    +0.000 C 
ATOM      8  C   UNL     1      -5.244  13.030  19.608  0.00  0.00    +0.000 C 
ATOM      9  N   UNL     1      -3.895  12.678  20.075  0.00  0.00    +0.000 N 
ATOM     10  C   UNL     1      -3.122  11.839  19.274  0.00  0.00    +0.000 A 
ATOM     11  C   UNL     1      -1.727  11.840  19.384  0.00  0.00    +0.000 A 
ATOM     12  C   UNL     1      -0.943  11.039  18.539  0.00  0.00    +0.000 A 
ATOM     13  C   UNL     1      -1.599  10.238  17.605  0.00  0.00    +0.000 A 
ATOM     14  C   UNL     1      -2.979  10.285  17.554  0.00  0.00    +0.000 A 
ATOM     15  N   UNL     1      -3.738  11.073  18.343  0.00  0.00    +0.000 NA
ENDROOT
BRANCH   1  17
ATOM     16  N   UNL     1      -6.250  16.231  23.520  0.00  0.00    +0.000 N 
ATOM     17  C   UNL     1      -6.376  14.874  23.588  0.00  0.00    +0.000 C 
ATOM     18  O   UNL     1      -7.430  14.360  23.938  0.00  0.00    +0.000 OA
ATOM     19  H   UNL     1      -7.094  16.767  23.691  0.00  0.00    +0.000 HD
ATOM     20  H   UNL     1      -5.499  16.683  23.018  0.00  0.00    +0.000 HD
ENDBRANCH   1  17
BRANCH  12  21
ATOM     21  C   UNL     1       0.565  11.047  18.627  0.00  0.00    +0.000 C 
BRANCH  21  22
ATOM     22  C   UNL     1       1.173   9.702  18.965  0.00  0.00    +0.000 A 
ATOM     23  C   UNL     1       0.953   9.122  20.227  0.00  0.00    +0.000 A 
ATOM     24  C   UNL     1       1.522   7.892  20.584  0.00  0.00    +0.000 A 
ATOM     25  C   UNL     1       2.308   7.269  19.620  0.00  0.00    +0.000 A 
ATOM     26  O   UNL     1       2.946   6.075  19.770  0.00  0.00    +0.000 OA
ATOM     27  C   UNL     1       3.589   5.821  18.601  0.00  0.00    +0.000 A 
ATOM     28  C   UNL     1       3.371   6.837  17.697  0.00  0.00    +0.000 A 
ATOM     29  C   UNL     1       2.546   7.789  18.354  0.00  0.00    +0.000 A 
ATOM     30  C   UNL     1       1.974   9.031  18.018  0.00  0.00    +0.000 A 
ENDBRANCH  21  22
ENDBRANCH  12  21
TORSDOF 3
ENDMDL
MODEL 4
REMARK VINA RESULT:      -7.8      3.867      9.462
REMARK  Name = 
REMARK  3 active torsions:
REMARK  status: ('A' for Active; 'I' for Inactive)
REMARK    1  A    between atoms: C_2  and  C_4
REMARK    2  A    between atoms: C_15  and  C_16
REMARK    3  A    between atoms: C_16  and  C_17
REMARK                            x       y       z     vdW  Elec       q    Type
REMARK                         _______ _______ _______ _____ _____    ______ ____
ROOT
ATOM      1  C   UNL     1       0.524  15.196  19.131  0.00  0.00    +0.000 A 
ATOM      2  C   UNL     1       1.784  15.321  18.529  0.00  0.00    +0.000 A 
ATOM      3  C   UNL     1       2.604  14.198  18.357  0.00  0.00    +0.000 A 
ATOM      4  C   UNL     1       2.176  12.936  18.778  0.00  0.00    +0.000 A 
ATOM      5  C   UNL     1       0.922  12.800  19.355  0.00  0.00    +0.000 A 
ATOM      6  C   UNL     1       0.118  13.932  19.551  0.00  0.00    +0.000 A 
ATOM      7  C   UNL     1      -1.174  13.513  20.176  0.00  0.00    +0.000 C 
ATOM      8  C   UNL     1      -0.863  12.067  20.603  0.00  0.00    +0.000 C 
ATOM      9  N   UNL     1       0.294  11.622  19.812  0.00  0.00    +0.000 N 
ATOM     10  C   UNL     1       0.765  10.326  20.010  0.00  0.00    +0.000 A 
ATOM     11  C   UNL     1       1.507   9.679  19.016  0.00  0.00    +0.000 A 
ATOM     12  C   UNL     1       1.934   8.353  19.191  0.00  0.00    +0.000 A 
ATOM     13  C   UNL     1       1.609   7.715  20.386  0.00  0.00    +0.000 A 
ATOM     14  C   UNL     1       0.877   8.415  21.326  0.00  0.00    +0.000 A 
ATOM     15  N   UNL     1       0.438   9.680  21.154  0.00  0.00    +0.000 NA
ENDROOT
BRANCH   1  17
ATOM     16  N   UNL     1      -0.997  16.856  18.217  0.00  0.00    +0.000 N 
ATOM     17  C   UNL     1      -0.353  16.383  19.323  0.00  0.00    +0.000 C 
ATOM     18  O   UNL     1      -0.524  16.903  20.418  0.00  0.00    +0.000 OA
ATOM     19  H   UNL     1      -1.674  17.595  18.376  0.00  0.00    +0.000 HD
ATOM     20  H   UNL     1      -1.074  16.323  17.363  0.00  0.00    +0.000 HD
ENDBRANCH   1  17
BRANCH  12  21
ATOM     21  C   UNL     1       2.713   7.632  18.116  0.00  0.00    +0.000 C 
BRANCH  21  22
ATOM     22  C   UNL     1       2.701   6.124  18.249  0.00  0.00    +0.000 A 
ATOM     23  C   UNL     1       1.607   5.379  17.772  0.00  0.00    +0.000 A 
ATOM     24  C   UNL     1       1.550   3.986  17.902  0.00  0.00    +0.000 A 
ATOM     25  C   UNL     1       2.638   3.374  18.518  0.00  0.00    +0.000 A 
ATOM     26  O   UNL     1       2.773   2.037  18.739  0.00  0.00    +0.000 OA
ATOM     27  C   UNL     1       3.974   1.857  19.349  0.00  0.00    +0.000 A 
ATOM     28  C   UNL     1       4.615   3.063  19.523  0.00  0.00    +0.000 A 
ATOM     29  C   UNL     1       3.749   4.058  18.993  0.00  0.00    +0.000 A 
ATOM     30  C   UNL     1       3.784   5.460  18.863  0.00  0.00    +0.000 A 
ENDBRANCH  21  22
ENDBRANCH  12  21
TORSDOF 3
ENDMDL
MODEL 5
REMARK VINA RESULT:      -7.8      0.636      1.488
REMARK  Name = 
REMARK  3 active torsions:
REMARK  status: ('A' for Active; 'I' for Inactive)
REMARK    1  A    between atoms: C_2  and  C_4
REMARK    2  A    between atoms: C_15  and  C_16
REMARK    3  A    between atoms: C_16  and  C_17
REMARK                            x       y       z     vdW  Elec       q    Type
REMARK                         _______ _______ _______ _____ _____    ______ ____
ROOT
ATOM      1  C   UNL     1       3.223   3.277  19.654  0.00  0.00    +0.000 A 
ATOM      2  C   UNL     1       2.696   3.321  20.952  0.00  0.00    +0.000 A 
ATOM      3  C   UNL     1       2.102   4.493  21.440  0.00  0.00    +0.000 A 
ATOM      4  C   UNL     1       2.022   5.634  20.638  0.00  0.00    +0.000 A 
ATOM      5  C   UNL     1       2.521   5.593  19.344  0.00  0.00    +0.000 A 
ATOM      6  C   UNL     1       3.141   4.427  18.873  0.00  0.00    +0.000 A 
ATOM      7  C   UNL     1       3.579   4.642  17.459  0.00  0.00    +0.000 C 
ATOM      8  C   UNL     1       3.424   6.167  17.311  0.00  0.00    +0.000 C 
ATOM      9  N   UNL     1       2.508   6.614  18.371  0.00  0.00    +0.000 N 
ATOM     10  C   UNL     1       2.197   7.971  18.440  0.00  0.00    +0.000 A 
ATOM     11  C   UNL     1       1.022   8.399  19.067  0.00  0.00    +0.000 A 
ATOM     12  C   UNL     1       0.679   9.760  19.088  0.00  0.00    +0.000 A 
ATOM     13  C   UNL     1       1.549  10.662  18.480  0.00  0.00    +0.000 A 
ATOM     14  C   UNL     1       2.693  10.170  17.883  0.00  0.00    +0.000 A 
ATOM     15  N   UNL     1       3.017   8.861  17.833  0.00  0.00    +0.000 NA
ENDROOT
BRANCH   1  17
ATOM     16  N   UNL     1       4.996   1.619  19.758  0.00  0.00    +0.000 N 
ATOM     17  C   UNL     1       3.861   2.040  19.128  0.00  0.00    +0.000 C 
ATOM     18  O   UNL     1       3.388   1.401  18.197  0.00  0.00    +0.000 OA
ATOM     19  H   UNL     1       5.362   0.721  19.464  0.00  0.00    +0.000 HD
ATOM     20  H   UNL     1       5.279   1.971  20.661  0.00  0.00    +0.000 HD
ENDBRANCH   1  17
BRANCH  12  21
ATOM     21  C   UNL     1      -0.599  10.236  19.739  0.00  0.00    +0.000 C 
BRANCH  21  22
ATOM     22  C   UNL     1      -1.717  10.536  18.762  0.00  0.00    +0.000 A 
ATOM     23  C   UNL     1      -1.656  10.052  17.444  0.00  0.00    +0.000 A 
ATOM     24  C   UNL     1      -2.658  10.332  16.507  0.00  0.00    +0.000 A 
ATOM     25  C   UNL     1      -3.725  11.107  16.952  0.00  0.00    +0.000 A 
ATOM     26  O   UNL     1      -4.794  11.489  16.200  0.00  0.00    +0.000 OA
ATOM     27  C   UNL     1      -5.606  12.218  17.008  0.00  0.00    +0.000 A 
ATOM     28  C   UNL     1      -5.073  12.310  18.274  0.00  0.00    +0.000 A 
ATOM     29  C   UNL     1      -3.844  11.598  18.246  0.00  0.00    +0.000 A 
ATOM     30  C   UNL     1      -2.821  11.315  19.171  0.00  0.00    +0.000 A 
ENDBRANCH  21  22
ENDBRANCH  12  21
TORSDOF 3
ENDMDL
MODEL 6
REMARK VINA RESULT:      -7.8      3.552      8.682
REMARK  Name = 
REMARK  3 active torsions:
REMARK  status: ('A' for Active; 'I' for Inactive)
REMARK    1  A    between atoms: C_2  and  C_4
REMARK    2  A    between atoms: C_15  and  C_16
REMARK    3  A    between atoms: C_16  and  C_17
REMARK                            x       y       z     vdW  Elec       q    Type
REMARK                         _______ _______ _______ _____ _____    ______ ____
ROOT
ATOM      1  C   UNL     1       0.860  10.422  19.713  0.00  0.00    +0.000 A 
ATOM      2  C   UNL     1       1.560  10.841  18.573  0.00  0.00    +0.000 A 
ATOM      3  C   UNL     1       2.358   9.938  17.857  0.00  0.00    +0.000 A 
ATOM      4  C   UNL     1       2.464   8.606  18.266  0.00  0.00    +0.000 A 
ATOM      5  C   UNL     1       1.757   8.178  19.380  0.00  0.00    +0.000 A 
ATOM      6  C   UNL     1       0.984   9.093  20.109  0.00  0.00    +0.000 A 
ATOM      7  C   UNL     1       0.325   8.379  21.247  0.00  0.00    +0.000 C 
ATOM      8  C   UNL     1       1.080   7.038  21.257  0.00  0.00    +0.000 C 
ATOM      9  N   UNL     1       1.701   6.882  19.933  0.00  0.00    +0.000 N 
ATOM     10  C   UNL     1       2.440   5.725  19.688  0.00  0.00    +0.000 A 
ATOM     11  C   UNL     1       2.648   5.279  18.378  0.00  0.00    +0.000 A 
ATOM     12  C   UNL     1       3.342   4.085  18.131  0.00  0.00    +0.000 A 
ATOM     13  C   UNL     1       3.827   3.373  19.227  0.00  0.00    +0.000 A 
ATOM     14  C   UNL     1       3.588   3.874  20.492  0.00  0.00    +0.000 A 
ATOM     15  N   UNL     1       2.897   5.006  20.740  0.00  0.00    +0.000 NA
ENDROOT
BRANCH   1  17
ATOM     16  N   UNL     1      -1.236  11.619  19.994  0.00  0.00    +0.000 N 
ATOM     17  C   UNL     1       0.014  11.372  20.484  0.00  0.00    +0.000 C 
ATOM     18  O   UNL     1       0.392  11.894  21.525  0.00  0.00    +0.000 OA
ATOM     19  H   UNL     1      -1.843  12.181  20.580  0.00  0.00    +0.000 HD
ATOM     20  H   UNL     1      -1.668  11.038  19.289  0.00  0.00    +0.000 HD
ENDBRANCH   1  17
BRANCH  12  21
ATOM     21  C   UNL     1       3.553   3.577  16.724  0.00  0.00    +0.000 C 
BRANCH  21  22
ATOM     22  C   UNL     1       4.798   4.116  16.051  0.00  0.00    +0.000 A 
ATOM     23  C   UNL     1       5.710   4.904  16.774  0.00  0.00    +0.000 A 
ATOM     24  C   UNL     1       6.858   5.441  16.177  0.00  0.00    +0.000 A 
ATOM     25  C   UNL     1       7.054   5.145  14.831  0.00  0.00    +0.000 A 
ATOM     26  O   UNL     1       8.102   5.569  14.072  0.00  0.00    +0.000 OA
ATOM     27  C   UNL     1       7.924   5.053  12.828  0.00  0.00    +0.000 A 
ATOM     28  C   UNL     1       6.773   4.299  12.777  0.00  0.00    +0.000 A 
ATOM     29  C   UNL     1       6.195   4.359  14.074  0.00  0.00    +0.000 A 
ATOM     30  C   UNL     1       5.041   3.837  14.689  0.00  0.00    +0.000 A 
ENDBRANCH  21  22
ENDBRANCH  12  21
TORSDOF 3
ENDMDL
MODEL 7
REMARK VINA RESULT:      -7.7      4.066      9.505
REMARK  Name = 
REMARK  3 active torsions:
REMARK  status: ('A' for Active; 'I' for Inactive)
REMARK    1  A    between atoms: C_2  and  C_4
REMARK    2  A    between atoms: C_15  and  C_16
REMARK    3  A    between atoms: C_16  and  C_17
REMARK                            x       y       z     vdW  Elec       q    Type
REMARK                         _______ _______ _______ _____ _____    ______ ____
ROOT
ATOM      1  C   UNL     1       2.301  16.018  18.276  0.00  0.00    +0.000 A 
ATOM      2  C   UNL     1       3.634  15.793  17.905  0.00  0.00    +0.000 A 
ATOM      3  C   UNL     1       4.156  14.493  17.879  0.00  0.00    +0.000 A 
ATOM      4  C   UNL     1       3.354  13.400  18.217  0.00  0.00    +0.000 A 
ATOM      5  C   UNL     1       2.027  13.611  18.565  0.00  0.00    +0.000 A 
ATOM      6  C   UNL     1       1.520  14.916  18.617  0.00  0.00    +0.000 A 
ATOM      7  C   UNL     1       0.076  14.865  19.006  0.00  0.00    +0.000 C 
ATOM      8  C   UNL     1      -0.070  13.408  19.480  0.00  0.00    +0.000 C 
ATOM      9  N   UNL     1       1.051  12.651  18.903  0.00  0.00    +0.000 N 
ATOM     10  C   UNL     1       1.134  11.288  19.181  0.00  0.00    +0.000 A 
ATOM     11  C   UNL     1       1.842  10.431  18.332  0.00  0.00    +0.000 A 
ATOM     12  C   UNL     1       1.879   9.050  18.578  0.00  0.00    +0.000 A 
ATOM     13  C   UNL     1       1.203   8.568  19.698  0.00  0.00    +0.000 A 
ATOM     14  C   UNL     1       0.527   9.471  20.495  0.00  0.00    +0.000 A 
ATOM     15  N   UNL     1       0.463  10.796  20.250  0.00  0.00    +0.000 NA
ENDROOT
BRANCH   1  17
ATOM     16  N   UNL     1       1.480  17.920  19.545  0.00  0.00    +0.000 N 
ATOM     17  C   UNL     1       1.738  17.394  18.312  0.00  0.00    +0.000 C 
ATOM     18  O   UNL     1       1.538  18.050  17.298  0.00  0.00    +0.000 OA
ATOM     19  H   UNL     1       1.200  18.894  19.565  0.00  0.00    +0.000 HD
ATOM     20  H   UNL     1       1.848  17.518  20.395  0.00  0.00    +0.000 HD
ENDBRANCH   1  17
BRANCH  12  21
ATOM     21  C   UNL     1       2.619   8.108  17.657  0.00  0.00    +0.000 C 
BRANCH  21  22
ATOM     22  C   UNL     1       2.777   6.705  18.202  0.00  0.00    +0.000 A 
ATOM     23  C   UNL     1       3.893   6.372  18.991  0.00  0.00    +0.000 A 
ATOM     24  C   UNL     1       4.086   5.078  19.490  0.00  0.00    +0.000 A 
ATOM     25  C   UNL     1       3.109   4.139  19.172  0.00  0.00    +0.000 A 
ATOM     26  O   UNL     1       3.113   2.832  19.558  0.00  0.00    +0.000 OA
ATOM     27  C   UNL     1       1.985   2.268  19.054  0.00  0.00    +0.000 A 
ATOM     28  C   UNL     1       1.253   3.197  18.348  0.00  0.00    +0.000 A 
ATOM     29  C   UNL     1       1.981   4.415  18.411  0.00  0.00    +0.000 A 
ATOM     30  C   UNL     1       1.810   5.720  17.910  0.00  0.00    +0.000 A 
ENDBRANCH  21  22
ENDBRANCH  12  21
TORSDOF 3
ENDMDL
MODEL 8
REMARK VINA RESULT:      -7.6      2.975      8.879
REMARK  Name = 
REMARK  3 active torsions:
REMARK  status: ('A' for Active; 'I' for Inactive)
REMARK    1  A    between atoms: C_2  and  C_4
REMARK    2  A    between atoms: C_15  and  C_16
REMARK    3  A    between atoms: C_16  and  C_17
REMARK                            x       y       z     vdW  Elec       q    Type
REMARK                         _______ _______ _______ _____ _____    ______ ____
ROOT
ATOM      1  C   UNL     1      -4.882  11.605  17.190  0.00  0.00    +0.000 A 
ATOM      2  C   UNL     1      -4.771  10.967  15.947  0.00  0.00    +0.000 A 
ATOM      3  C   UNL     1      -3.545  10.430  15.530  0.00  0.00    +0.000 A 
ATOM      4  C   UNL     1      -2.416  10.520  16.349  0.00  0.00    +0.000 A 
ATOM      5  C   UNL     1      -2.522  11.132  17.590  0.00  0.00    +0.000 A 
ATOM      6  C   UNL     1      -3.744  11.692  17.988  0.00  0.00    +0.000 A 
ATOM      7  C   UNL     1      -3.592  12.275  19.357  0.00  0.00    +0.000 C 
ATOM      8  C   UNL     1      -2.063  12.264  19.536  0.00  0.00    +0.000 C 
ATOM      9  N   UNL     1      -1.522  11.294  18.571  0.00  0.00    +0.000 N 
ATOM     10  C   UNL     1      -0.143  11.093  18.546  0.00  0.00    +0.000 A 
ATOM     11  C   UNL     1       0.392   9.905  18.036  0.00  0.00    +0.000 A 
ATOM     12  C   UNL     1       1.777   9.676  18.062  0.00  0.00    +0.000 A 
ATOM     13  C   UNL     1       2.593  10.672  18.596  0.00  0.00    +0.000 A 
ATOM     14  C   UNL     1       1.997  11.821  19.078  0.00  0.00    +0.000 A 
ATOM     15  N   UNL     1       0.665  12.037  19.083  0.00  0.00    +0.000 NA
ENDROOT
BRANCH   1  17
ATOM     16  N   UNL     1      -6.375  13.511  17.396  0.00  0.00    +0.000 N 
ATOM     17  C   UNL     1      -6.176  12.183  17.641  0.00  0.00    +0.000 C 
ATOM     18  O   UNL     1      -7.045  11.509  18.179  0.00  0.00    +0.000 OA
ATOM     19  H   UNL     1      -7.299  13.870  17.607  0.00  0.00    +0.000 HD
ATOM     20  H   UNL     1      -5.801  14.036  16.753  0.00  0.00    +0.000 HD
ENDBRANCH   1  17
BRANCH  12  21
ATOM     21  C   UNL     1       2.369   8.389  17.539  0.00  0.00    +0.000 C 
BRANCH  21  22
ATOM     22  C   UNL     1       2.181   7.201  18.460  0.00  0.00    +0.000 A 
ATOM     23  C   UNL     1       2.059   7.392  19.847  0.00  0.00    +0.000 A 
ATOM     24  C   UNL     1       1.910   6.315  20.731  0.00  0.00    +0.000 A 
ATOM     25  C   UNL     1       1.880   5.046  20.162  0.00  0.00    +0.000 A 
ATOM     26  O   UNL     1       1.744   3.876  20.846  0.00  0.00    +0.000 OA
ATOM     27  C   UNL     1       1.749   2.877  19.926  0.00  0.00    +0.000 A 
ATOM     28  C   UNL     1       1.885   3.390  18.655  0.00  0.00    +0.000 A 
ATOM     29  C   UNL     1       1.980   4.800  18.799  0.00  0.00    +0.000 A 
ATOM     30  C   UNL     1       2.140   5.895  17.927  0.00  0.00    +0.000 A 
ENDBRANCH  21  22
ENDBRANCH  12  21
TORSDOF 3
ENDMDL
MODEL 9
REMARK VINA RESULT:      -7.6      3.315      8.899
REMARK  Name = 
REMARK  3 active torsions:
REMARK  status: ('A' for Active; 'I' for Inactive)
REMARK    1  A    between atoms: C_2  and  C_4
REMARK    2  A    between atoms: C_15  and  C_16
REMARK    3  A    between atoms: C_16  and  C_17
REMARK                            x       y       z     vdW  Elec       q    Type
REMARK                         _______ _______ _______ _____ _____    ______ ____
ROOT
ATOM      1  C   UNL     1      -5.094  11.852  19.136  0.00  0.00    +0.000 A 
ATOM      2  C   UNL     1      -5.321  11.037  18.018  0.00  0.00    +0.000 A 
ATOM      3  C   UNL     1      -4.245  10.496  17.302  0.00  0.00    +0.000 A 
ATOM      4  C   UNL     1      -2.930  10.756  17.694  0.00  0.00    +0.000 A 
ATOM      5  C   UNL     1      -2.696  11.544  18.813  0.00  0.00    +0.000 A 
ATOM      6  C   UNL     1      -3.776  12.107  19.507  0.00  0.00    +0.000 A 
ATOM      7  C   UNL     1      -3.256  12.897  20.665  0.00  0.00    +0.000 C 
ATOM      8  C   UNL     1      -1.753  12.976  20.342  0.00  0.00    +0.000 C 
ATOM      9  N   UNL     1      -1.458  11.895  19.389  0.00  0.00    +0.000 N 
ATOM     10  C   UNL     1      -0.144  11.751  18.948  0.00  0.00    +0.000 A 
ATOM     11  C   UNL     1       0.308  10.523  18.452  0.00  0.00    +0.000 A 
ATOM     12  C   UNL     1       1.646  10.359  18.061  0.00  0.00    +0.000 A 
ATOM     13  C   UNL     1       2.497  11.457  18.168  0.00  0.00    +0.000 A 
ATOM     14  C   UNL     1       1.983  12.640  18.663  0.00  0.00    +0.000 A 
ATOM     15  N   UNL     1       0.705  12.799  19.068  0.00  0.00    +0.000 NA
ENDROOT
BRANCH   1  17
ATOM     16  N   UNL     1      -6.753  11.672  20.902  0.00  0.00    +0.000 N 
ATOM     17  C   UNL     1      -6.229  12.436  19.900  0.00  0.00    +0.000 C 
ATOM     18  O   UNL     1      -6.665  13.558  19.676  0.00  0.00    +0.000 OA
ATOM     19  H   UNL     1      -7.451  12.118  21.486  0.00  0.00    +0.000 HD
ATOM     20  H   UNL     1      -6.277  10.861  21.273  0.00  0.00    +0.000 HD
ENDBRANCH   1  17
BRANCH  12  21
ATOM     21  C   UNL     1       2.156   9.033  17.547  0.00  0.00    +0.000 C 
BRANCH  21  22
ATOM     22  C   UNL     1       2.104   7.913  18.565  0.00  0.00    +0.000 A 
ATOM     23  C   UNL     1       1.718   8.178  19.891  0.00  0.00    +0.000 A 
ATOM     24  C   UNL     1       1.684   7.172  20.865  0.00  0.00    +0.000 A 
ATOM     25  C   UNL     1       2.044   5.893  20.450  0.00  0.00    +0.000 A 
ATOM     26  O   UNL     1       2.077   4.785  21.241  0.00  0.00    +0.000 OA
ATOM     27  C   UNL     1       2.465   3.748  20.453  0.00  0.00    +0.000 A 
ATOM     28  C   UNL     1       2.682   4.176  19.162  0.00  0.00    +0.000 A 
ATOM     29  C   UNL     1       2.419   5.573  19.152  0.00  0.00    +0.000 A 
ATOM     30  C   UNL     1       2.457   6.600  18.189  0.00  0.00    +0.000 A 
ENDBRANCH  21  22
ENDBRANCH  12  21
TORSDOF 3
ENDMDL
