MODEL 1
REMARK VINA RESULT:      -8.4      0.000      0.000
REMARK  Name = 
REMARK  10 active torsions:
REMARK  status: ('A' for Active; 'I' for Inactive)
REMARK    1  A    between atoms: C_2  and  C_12
REMARK    2  A    between atoms: N_3  and  C_4
REMARK    3  A    between atoms: C_4  and  C_5
REMARK    4  A    between atoms: C_5  and  C_6
REMARK    5  A    between atoms: C_6  and  N_7
REMARK    6  A    between atoms: N_14  and  C_15
REMARK    7  A    between atoms: C_15  and  C_16
REMARK    8  A    between atoms: C_16  and  C_17
REMARK    9  A    between atoms: C_16  and  N_23
REMARK   10  A    between atoms: N_26  and  C_27
REMARK                            x       y       z     vdW  Elec       q    Type
REMARK                         _______ _______ _______ _____ _____    ______ ____
ROOT
ATOM      1  C   UNL     1       4.099   5.843  18.860  0.00  0.00    +0.000 C 
ENDROOT
BRANCH   1   2
ATOM      2  C   UNL     1       3.574   4.407  18.826  0.00  0.00    +0.000 A 
ATOM      3  C   UNL     1       2.680   3.993  17.827  0.00  0.00    +0.000 A 
ATOM      4  C   UNL     1       2.165   2.699  17.846  0.00  0.00    +0.000 A 
ATOM      5  C   UNL     1       2.574   1.847  18.856  0.00  0.00    +0.000 A 
ATOM      6  N   UNL     1       3.477   2.186  19.800  0.00  0.00    +0.000 NA
ATOM      7  C   UNL     1       3.955   3.452  19.765  0.00  0.00    +0.000 A 
ENDBRANCH   1   2
BRANCH   1   8
ATOM      8  N   UNL     1       5.544   5.960  18.495  0.00  0.00    +0.000 NA
ATOM      9  C   UNL     1       6.127   4.638  18.092  0.00  0.00    +0.000 C 
ATOM     10  C   UNL     1       5.571   4.026  16.772  0.00  0.00    +0.000 C 
ATOM     11  N   UNL     1       5.729   5.008  15.696  0.00  0.00    +0.000 N 
ATOM     12  C   UNL     1       5.211   6.351  15.974  0.00  0.00    +0.000 C 
ATOM     13  C   UNL     1       5.765   6.864  17.324  0.00  0.00    +0.000 C 
BRANCH  11  14
ATOM     14  C   UNL     1       6.210   4.690  14.446  0.00  0.00    +0.000 A 
ATOM     15  C   UNL     1       7.337   5.307  13.890  0.00  0.00    +0.000 A 
ATOM     16  C   UNL     1       7.776   4.985  12.599  0.00  0.00    +0.000 A 
ATOM     17  C   UNL     1       7.093   4.037  11.841  0.00  0.00    +0.000 A 
ATOM     18  C   UNL     1       5.987   3.395  12.380  0.00  0.00    +0.000 A 
ATOM     19  C   UNL     1       5.556   3.724  13.664  0.00  0.00    +0.000 A 
ENDBRANCH  11  14
ENDBRANCH   1   8
BRANCH   1  20
ATOM     20  C   UNL     1       3.169   6.731  17.962  0.00  0.00    +0.000 C 
BRANCH  20  23
ATOM     21  C   UNL     1       1.899   8.842  18.269  0.00  0.00    +0.000 C 
ATOM     22  O   UNL     1       2.200   9.340  17.193  0.00  0.00    +0.000 OA
ATOM     23  N   UNL     1       2.286   7.603  18.721  0.00  0.00    +0.000 N 
ATOM     24  H   UNL     1       1.917   7.294  19.625  0.00  0.00    +0.000 HD
BRANCH  21  26
ATOM     25  O   UNL     1       0.898   9.231  20.406  0.00  0.00    +0.000 OA
ATOM     26  C   UNL     1       1.038   9.640  19.271  0.00  0.00    +0.000 C 
ATOM     27  N   UNL     1       0.494  10.803  18.759  0.00  0.00    +0.000 N 
ATOM     28  H   UNL     1       0.675  11.007  17.780  0.00  0.00    +0.000 HD
BRANCH  27  29
ATOM     29  C   UNL     1      -0.338  11.662  19.570  0.00  0.00    +0.000 C 
BRANCH  29  30
ATOM     30  C   UNL     1      -1.541  12.220  18.811  0.00  0.00    +0.000 C 
BRANCH  30  31
ATOM     31  C   UNL     1      -2.673  11.203  18.701  0.00  0.00    +0.000 C 
BRANCH  31  32
ATOM     32  N   UNL     1      -2.918  10.802  17.331  0.00  0.00    +0.000 N 
ATOM     33  C   UNL     1      -2.234   9.853  16.626  0.00  0.00    +0.000 A 
ATOM     34  C   UNL     1      -2.821   9.848  15.381  0.00  0.00    +0.000 A 
ATOM     35  N   UNL     1      -3.830  10.774  15.315  0.00  0.00    +0.000 NA
ATOM     36  C   UNL     1      -3.864  11.333  16.502  0.00  0.00    +0.000 A 
ENDBRANCH  31  32
ENDBRANCH  30  31
ENDBRANCH  29  30
ENDBRANCH  27  29
ENDBRANCH  21  26
ENDBRANCH  20  23
ENDBRANCH   1  20
TORSDOF 10
ENDMDL
MODEL 2
REMARK VINA RESULT:      -8.2      1.315      1.592
REMARK  Name = 
REMARK  10 active torsions:
REMARK  status: ('A' for Active; 'I' for Inactive)
REMARK    1  A    between atoms: C_2  and  C_12
REMARK    2  A    between atoms: N_3  and  C_4
REMARK    3  A    between atoms: C_4  and  C_5
REMARK    4  A    between atoms: C_5  and  C_6
REMARK    5  A    between atoms: C_6  and  N_7
REMARK    6  A    between atoms: N_14  and  C_15
REMARK    7  A    between atoms: C_15  and  C_16
REMARK    8  A    between atoms: C_16  and  C_17
REMARK    9  A    between atoms: C_16  and  N_23
REMARK   10  A    between atoms: N_26  and  C_27
REMARK                            x       y       z     vdW  Elec       q    Type
REMARK                         _______ _______ _______ _____ _____    ______ ____
ROOT
ATOM      1  C   UNL     1       3.701   5.659  19.220  0.00  0.00    +0.000 C 
ENDROOT
BRANCH   1   2
ATOM      2  C   UNL     1       2.817   4.425  19.399  0.00  0.00    +0.000 A 
ATOM      3  C   UNL     1       1.886   4.060  18.415  0.00  0.00    +0.000 A 
ATOM      4  C   UNL     1       1.047   2.968  18.620  0.00  0.00    +0.000 A 
ATOM      5  C   UNL     1       1.174   2.258  19.801  0.00  0.00    +0.000 A 
ATOM      6  N   UNL     1       2.096   2.539  20.746  0.00  0.00    +0.000 NA
ATOM      7  C   UNL     1       2.893   3.610  20.526  0.00  0.00    +0.000 A 
ENDBRANCH   1   2
BRANCH   1   8
ATOM      8  N   UNL     1       5.147   5.335  19.021  0.00  0.00    +0.000 NA
ATOM      9  C   UNL     1       5.336   3.986  18.393  0.00  0.00    +0.000 C 
ATOM     10  C   UNL     1       4.830   3.845  16.926  0.00  0.00    +0.000 C 
ATOM     11  N   UNL     1       5.460   4.886  16.109  0.00  0.00    +0.000 N 
ATOM     12  C   UNL     1       5.359   6.255  16.628  0.00  0.00    +0.000 C 
ATOM     13  C   UNL     1       5.826   6.299  18.101  0.00  0.00    +0.000 C 
BRANCH  11  14
ATOM     14  C   UNL     1       6.006   4.648  14.869  0.00  0.00    +0.000 A 
ATOM     15  C   UNL     1       7.212   5.223  14.450  0.00  0.00    +0.000 A 
ATOM     16  C   UNL     1       7.719   4.988  13.166  0.00  0.00    +0.000 A 
ATOM     17  C   UNL     1       7.025   4.170  12.276  0.00  0.00    +0.000 A 
ATOM     18  C   UNL     1       5.840   3.570  12.677  0.00  0.00    +0.000 A 
ATOM     19  C   UNL     1       5.342   3.813  13.955  0.00  0.00    +0.000 A 
ENDBRANCH  11  14
ENDBRANCH   1   8
BRANCH   1  20
ATOM     20  C   UNL     1       3.106   6.531  18.060  0.00  0.00    +0.000 C 
BRANCH  20  23
ATOM     21  C   UNL     1       1.982   8.744  17.990  0.00  0.00    +0.000 C 
ATOM     22  O   UNL     1       2.674   9.220  17.101  0.00  0.00    +0.000 OA
ATOM     23  N   UNL     1       2.089   7.472  18.502  0.00  0.00    +0.000 N 
ATOM     24  H   UNL     1       1.408   7.191  19.214  0.00  0.00    +0.000 HD
BRANCH  21  26
ATOM     25  O   UNL     1       0.894   9.740  19.872  0.00  0.00    +0.000 OA
ATOM     26  C   UNL     1       0.896   9.608  18.665  0.00  0.00    +0.000 C 
ATOM     27  N   UNL     1      -0.003  10.184  17.788  0.00  0.00    +0.000 N 
ATOM     28  H   UNL     1       0.106   9.964  16.801  0.00  0.00    +0.000 HD
BRANCH  27  29
ATOM     29  C   UNL     1      -1.082  11.021  18.261  0.00  0.00    +0.000 C 
BRANCH  29  30
ATOM     30  C   UNL     1      -2.370  10.244  18.527  0.00  0.00    +0.000 C 
BRANCH  30  31
ATOM     31  C   UNL     1      -3.275  10.197  17.299  0.00  0.00    +0.000 C 
BRANCH  31  32
ATOM     32  N   UNL     1      -4.548  10.849  17.531  0.00  0.00    +0.000 N 
ATOM     33  C   UNL     1      -5.519  10.449  18.403  0.00  0.00    +0.000 A 
ATOM     34  C   UNL     1      -6.530  11.371  18.251  0.00  0.00    +0.000 A 
ATOM     35  N   UNL     1      -6.198  12.306  17.305  0.00  0.00    +0.000 NA
ATOM     36  C   UNL     1      -4.999  11.965  16.888  0.00  0.00    +0.000 A 
ENDBRANCH  31  32
ENDBRANCH  30  31
ENDBRANCH  29  30
ENDBRANCH  27  29
ENDBRANCH  21  26
ENDBRANCH  20  23
ENDBRANCH   1  20
TORSDOF 10
ENDMDL
MODEL 3
REMARK VINA RESULT:      -8.2      1.587      2.581
REMARK  Name = 
REMARK  10 active torsions:
REMARK  status: ('A' for Active; 'I' for Inactive)
REMARK    1  A    between atoms: C_2  and  C_12
REMARK    2  A    between atoms: N_3  and  C_4
REMARK    3  A    between atoms: C_4  and  C_5
REMARK    4  A    between atoms: C_5  and  C_6
REMARK    5  A    between atoms: C_6  and  N_7
REMARK    6  A    between atoms: N_14  and  C_15
REMARK    7  A    between atoms: C_15  and  C_16
REMARK    8  A    between atoms: C_16  and  C_17
REMARK    9  A    between atoms: C_16  and  N_23
REMARK   10  A    between atoms: N_26  and  C_27
REMARK                            x       y       z     vdW  Elec       q    Type
REMARK                         _______ _______ _______ _____ _____    ______ ____
ROOT
ATOM      1  C   UNL     1       3.862   5.793  19.093  0.00  0.00    +0.000 C 
ENDROOT
BRANCH   1   2
ATOM      2  C   UNL     1       3.012   4.522  19.131  0.00  0.00    +0.000 A 
ATOM      3  C   UNL     1       2.055   4.268  18.137  0.00  0.00    +0.000 A 
ATOM      4  C   UNL     1       1.249   3.137  18.219  0.00  0.00    +0.000 A 
ATOM      5  C   UNL     1       1.433   2.278  19.288  0.00  0.00    +0.000 A 
ATOM      6  N   UNL     1       2.381   2.453  20.233  0.00  0.00    +0.000 NA
ATOM      7  C   UNL     1       3.146   3.566  20.134  0.00  0.00    +0.000 A 
ENDBRANCH   1   2
BRANCH   1   8
ATOM      8  N   UNL     1       5.313   5.533  18.848  0.00  0.00    +0.000 NA
ATOM      9  C   UNL     1       5.549   4.164  18.284  0.00  0.00    +0.000 C 
ATOM     10  C   UNL     1       4.992   3.917  16.850  0.00  0.00    +0.000 C 
ATOM     11  N   UNL     1       5.530   4.942  15.953  0.00  0.00    +0.000 N 
ATOM     12  C   UNL     1       5.377   6.330  16.403  0.00  0.00    +0.000 C 
ATOM     13  C   UNL     1       5.901   6.480  17.849  0.00  0.00    +0.000 C 
BRANCH  11  14
ATOM     14  C   UNL     1       6.037   4.665  14.704  0.00  0.00    +0.000 A 
ATOM     15  C   UNL     1       7.212   5.250  14.217  0.00  0.00    +0.000 A 
ATOM     16  C   UNL     1       7.677   4.974  12.926  0.00  0.00    +0.000 A 
ATOM     17  C   UNL     1       6.974   4.102  12.097  0.00  0.00    +0.000 A 
ATOM     18  C   UNL     1       5.820   3.491  12.567  0.00  0.00    +0.000 A 
ATOM     19  C   UNL     1       5.362   3.775  13.852  0.00  0.00    +0.000 A 
ENDBRANCH  11  14
ENDBRANCH   1   8
BRANCH   1  20
ATOM     20  C   UNL     1       3.233   6.778  18.048  0.00  0.00    +0.000 C 
BRANCH  20  23
ATOM     21  C   UNL     1       1.902   8.873  18.104  0.00  0.00    +0.000 C 
ATOM     22  O   UNL     1       2.443   9.405  17.145  0.00  0.00    +0.000 OA
ATOM     23  N   UNL     1       2.186   7.623  18.600  0.00  0.00    +0.000 N 
ATOM     24  H   UNL     1       1.616   7.285  19.382  0.00  0.00    +0.000 HD
BRANCH  21  26
ATOM     25  O   UNL     1       0.864   9.662  20.109  0.00  0.00    +0.000 OA
ATOM     26  C   UNL     1       0.819   9.637  18.896  0.00  0.00    +0.000 C 
ATOM     27  N   UNL     1      -0.133  10.257  18.110  0.00  0.00    +0.000 N 
ATOM     28  H   UNL     1      -0.060  10.128  17.104  0.00  0.00    +0.000 HD
BRANCH  27  29
ATOM     29  C   UNL     1      -1.217  11.011  18.698  0.00  0.00    +0.000 C 
BRANCH  29  30
ATOM     30  C   UNL     1      -0.948  12.514  18.740  0.00  0.00    +0.000 C 
BRANCH  30  31
ATOM     31  C   UNL     1      -0.370  12.957  20.081  0.00  0.00    +0.000 C 
BRANCH  31  32
ATOM     32  N   UNL     1      -1.227  12.597  21.192  0.00  0.00    +0.000 N 
ATOM     33  C   UNL     1      -0.877  11.850  22.280  0.00  0.00    +0.000 A 
ATOM     34  C   UNL     1      -2.024  11.771  23.037  0.00  0.00    +0.000 A 
ATOM     35  N   UNL     1      -3.055  12.439  22.428  0.00  0.00    +0.000 NA
ATOM     36  C   UNL     1      -2.546  12.925  21.319  0.00  0.00    +0.000 A 
ENDBRANCH  31  32
ENDBRANCH  30  31
ENDBRANCH  29  30
ENDBRANCH  27  29
ENDBRANCH  21  26
ENDBRANCH  20  23
ENDBRANCH   1  20
TORSDOF 10
ENDMDL
MODEL 4
REMARK VINA RESULT:      -8.1      1.756      3.272
REMARK  Name = 
REMARK  10 active torsions:
REMARK  status: ('A' for Active; 'I' for Inactive)
REMARK    1  A    between atoms: C_2  and  C_12
REMARK    2  A    between atoms: N_3  and  C_4
REMARK    3  A    between atoms: C_4  and  C_5
REMARK    4  A    between atoms: C_5  and  C_6
REMARK    5  A    between atoms: C_6  and  N_7
REMARK    6  A    between atoms: N_14  and  C_15
REMARK    7  A    between atoms: C_15  and  C_16
REMARK    8  A    between atoms: C_16  and  C_17
REMARK    9  A    between atoms: C_16  and  N_23
REMARK   10  A    between atoms: N_26  and  C_27
REMARK                            x       y       z     vdW  Elec       q    Type
REMARK                         _______ _______ _______ _____ _____    ______ ____
ROOT
ATOM      1  C   UNL     1       3.676   5.848  19.084  0.00  0.00    +0.000 C 
ENDROOT
BRANCH   1   2
ATOM      2  C   UNL     1       2.697   4.676  19.009  0.00  0.00    +0.000 A 
ATOM      3  C   UNL     1       2.574   3.773  20.076  0.00  0.00    +0.000 A 
ATOM      4  C   UNL     1       1.723   2.677  19.968  0.00  0.00    +0.000 A 
ATOM      5  C   UNL     1       1.001   2.523  18.797  0.00  0.00    +0.000 A 
ATOM      6  N   UNL     1       1.043   3.400  17.772  0.00  0.00    +0.000 NA
ATOM      7  C   UNL     1       1.886   4.451  17.899  0.00  0.00    +0.000 A 
ENDBRANCH   1   2
BRANCH   1   8
ATOM      8  N   UNL     1       5.104   5.446  18.895  0.00  0.00    +0.000 NA
ATOM      9  C   UNL     1       5.225   4.081  18.286  0.00  0.00    +0.000 C 
ATOM     10  C   UNL     1       4.718   3.946  16.819  0.00  0.00    +0.000 C 
ATOM     11  N   UNL     1       5.404   4.942  15.991  0.00  0.00    +0.000 N 
ATOM     12  C   UNL     1       5.372   6.321  16.491  0.00  0.00    +0.000 C 
ATOM     13  C   UNL     1       5.835   6.362  17.965  0.00  0.00    +0.000 C 
BRANCH  11  14
ATOM     14  C   UNL     1       5.941   4.659  14.756  0.00  0.00    +0.000 A 
ATOM     15  C   UNL     1       7.139   5.226  14.304  0.00  0.00    +0.000 A 
ATOM     16  C   UNL     1       7.637   4.944  13.026  0.00  0.00    +0.000 A 
ATOM     17  C   UNL     1       6.943   4.086  12.176  0.00  0.00    +0.000 A 
ATOM     18  C   UNL     1       5.765   3.493  12.611  0.00  0.00    +0.000 A 
ATOM     19  C   UNL     1       5.276   3.782  13.883  0.00  0.00    +0.000 A 
ENDBRANCH  11  14
ENDBRANCH   1   8
BRANCH   1  20
ATOM     20  C   UNL     1       3.212   6.946  18.066  0.00  0.00    +0.000 C 
BRANCH  20  23
ATOM     21  C   UNL     1       1.874   9.038  18.093  0.00  0.00    +0.000 C 
ATOM     22  O   UNL     1       2.506   9.616  17.220  0.00  0.00    +0.000 OA
ATOM     23  N   UNL     1       2.112   7.764  18.553  0.00  0.00    +0.000 N 
ATOM     24  H   UNL     1       1.469   7.389  19.257  0.00  0.00    +0.000 HD
BRANCH  21  26
ATOM     25  O   UNL     1       0.532   9.580  19.997  0.00  0.00    +0.000 OA
ATOM     26  C   UNL     1       0.716   9.763  18.811  0.00  0.00    +0.000 C 
ATOM     27  N   UNL     1      -0.026  10.599  17.999  0.00  0.00    +0.000 N 
ATOM     28  H   UNL     1       0.227  10.634  17.015  0.00  0.00    +0.000 HD
BRANCH  27  29
ATOM     29  C   UNL     1      -1.147  11.349  18.518  0.00  0.00    +0.000 C 
BRANCH  29  30
ATOM     30  C   UNL     1      -0.837  12.832  18.714  0.00  0.00    +0.000 C 
BRANCH  30  31
ATOM     31  C   UNL     1       0.628  13.154  18.435  0.00  0.00    +0.000 C 
BRANCH  31  32
ATOM     32  N   UNL     1       1.305  13.680  19.602  0.00  0.00    +0.000 N 
ATOM     33  C   UNL     1       1.375  14.991  19.979  0.00  0.00    +0.000 A 
ATOM     34  C   UNL     1       2.131  14.986  21.130  0.00  0.00    +0.000 A 
ATOM     35  N   UNL     1       2.526  13.712  21.447  0.00  0.00    +0.000 NA
ATOM     36  C   UNL     1       2.015  12.948  20.509  0.00  0.00    +0.000 A 
ENDBRANCH  31  32
ENDBRANCH  30  31
ENDBRANCH  29  30
ENDBRANCH  27  29
ENDBRANCH  21  26
ENDBRANCH  20  23
ENDBRANCH   1  20
TORSDOF 10
ENDMDL
MODEL 5
REMARK VINA RESULT:      -8.1      5.423     10.656
REMARK  Name = 
REMARK  10 active torsions:
REMARK  status: ('A' for Active; 'I' for Inactive)
REMARK    1  A    between atoms: C_2  and  C_12
REMARK    2  A    between atoms: N_3  and  C_4
REMARK    3  A    between atoms: C_4  and  C_5
REMARK    4  A    between atoms: C_5  and  C_6
REMARK    5  A    between atoms: C_6  and  N_7
REMARK    6  A    between atoms: N_14  and  C_15
REMARK    7  A    between atoms: C_15  and  C_16
REMARK    8  A    between atoms: C_16  and  C_17
REMARK    9  A    between atoms: C_16  and  N_23
REMARK   10  A    between atoms: N_26  and  C_27
REMARK                            x       y       z     vdW  Elec       q    Type
REMARK                         _______ _______ _______ _____ _____    ______ ____
ROOT
ATOM      1  C   UNL     1      -2.151  13.190  22.357  0.00  0.00    +0.000 C 
ENDROOT
BRANCH   1   2
ATOM      2  C   UNL     1      -3.641  12.997  22.636  0.00  0.00    +0.000 A 
ATOM      3  C   UNL     1      -4.152  13.128  23.936  0.00  0.00    +0.000 A 
ATOM      4  C   UNL     1      -5.501  12.890  24.183  0.00  0.00    +0.000 A 
ATOM      5  C   UNL     1      -6.309  12.541  23.116  0.00  0.00    +0.000 A 
ATOM      6  N   UNL     1      -5.872  12.462  21.841  0.00  0.00    +0.000 NA
ATOM      7  C   UNL     1      -4.555  12.690  21.630  0.00  0.00    +0.000 A 
ENDBRANCH   1   2
BRANCH   1   8
ATOM      8  N   UNL     1      -1.662  14.571  22.654  0.00  0.00    +0.000 NA
ATOM      9  C   UNL     1      -0.205  14.730  22.331  0.00  0.00    +0.000 C 
ATOM     10  C   UNL     1       0.167  14.638  20.821  0.00  0.00    +0.000 C 
ATOM     11  N   UNL     1      -0.634  15.615  20.078  0.00  0.00    +0.000 N 
ATOM     12  C   UNL     1      -2.080  15.573  20.322  0.00  0.00    +0.000 C 
ATOM     13  C   UNL     1      -2.364  15.612  21.841  0.00  0.00    +0.000 C 
BRANCH  11  14
ATOM     14  C   UNL     1      -0.113  16.444  19.112  0.00  0.00    +0.000 A 
ATOM     15  C   UNL     1      -0.908  17.293  18.333  0.00  0.00    +0.000 A 
ATOM     16  C   UNL     1      -0.347  18.096  17.333  0.00  0.00    +0.000 A 
ATOM     17  C   UNL     1       1.025  18.065  17.095  0.00  0.00    +0.000 A 
ATOM     18  C   UNL     1       1.838  17.250  17.871  0.00  0.00    +0.000 A 
ATOM     19  C   UNL     1       1.269  16.451  18.861  0.00  0.00    +0.000 A 
ENDBRANCH  11  14
ENDBRANCH   1   8
BRANCH   1  20
ATOM     20  C   UNL     1      -1.355  12.082  23.128  0.00  0.00    +0.000 C 
BRANCH  20  23
ATOM     21  C   UNL     1      -0.225   9.900  22.767  0.00  0.00    +0.000 C 
ATOM     22  O   UNL     1       0.195   9.773  23.908  0.00  0.00    +0.000 OA
ATOM     23  N   UNL     1      -0.988  10.944  22.299  0.00  0.00    +0.000 N 
ATOM     24  H   UNL     1      -1.312  10.894  21.328  0.00  0.00    +0.000 HD
BRANCH  21  26
ATOM     25  O   UNL     1      -0.625   7.911  21.499  0.00  0.00    +0.000 OA
ATOM     26  C   UNL     1       0.126   8.845  21.696  0.00  0.00    +0.000 C 
ATOM     27  N   UNL     1       1.312   9.082  21.027  0.00  0.00    +0.000 N 
ATOM     28  H   UNL     1       1.853   9.892  21.317  0.00  0.00    +0.000 HD
BRANCH  27  29
ATOM     29  C   UNL     1       1.784   8.186  19.996  0.00  0.00    +0.000 C 
BRANCH  29  30
ATOM     30  C   UNL     1       1.393   8.633  18.589  0.00  0.00    +0.000 C 
BRANCH  30  31
ATOM     31  C   UNL     1       1.366  10.153  18.455  0.00  0.00    +0.000 C 
BRANCH  31  32
ATOM     32  N   UNL     1       0.017  10.678  18.442  0.00  0.00    +0.000 N 
ATOM     33  C   UNL     1      -1.077  10.096  17.867  0.00  0.00    +0.000 A 
ATOM     34  C   UNL     1      -2.109  10.975  18.105  0.00  0.00    +0.000 A 
ATOM     35  N   UNL     1      -1.665  12.072  18.797  0.00  0.00    +0.000 NA
ATOM     36  C   UNL     1      -0.381  11.866  18.984  0.00  0.00    +0.000 A 
ENDBRANCH  31  32
ENDBRANCH  30  31
ENDBRANCH  29  30
ENDBRANCH  27  29
ENDBRANCH  21  26
ENDBRANCH  20  23
ENDBRANCH   1  20
TORSDOF 10
ENDMDL
MODEL 6
REMARK VINA RESULT:      -8.1      2.366      3.499
REMARK  Name = 
REMARK  10 active torsions:
REMARK  status: ('A' for Active; 'I' for Inactive)
REMARK    1  A    between atoms: C_2  and  C_12
REMARK    2  A    between atoms: N_3  and  C_4
REMARK    3  A    between atoms: C_4  and  C_5
REMARK    4  A    between atoms: C_5  and  C_6
REMARK    5  A    between atoms: C_6  and  N_7
REMARK    6  A    between atoms: N_14  and  C_15
REMARK    7  A    between atoms: C_15  and  C_16
REMARK    8  A    between atoms: C_16  and  C_17
REMARK    9  A    between atoms: C_16  and  N_23
REMARK   10  A    between atoms: N_26  and  C_27
REMARK                            x       y       z     vdW  Elec       q    Type
REMARK                         _______ _______ _______ _____ _____    ______ ____
ROOT
ATOM      1  C   UNL     1       3.683   5.785  19.059  0.00  0.00    +0.000 C 
ENDROOT
BRANCH   1   2
ATOM      2  C   UNL     1       2.793   4.544  18.991  0.00  0.00    +0.000 A 
ATOM      3  C   UNL     1       2.857   3.559  19.988  0.00  0.00    +0.000 A 
ATOM      4  C   UNL     1       2.083   2.407  19.880  0.00  0.00    +0.000 A 
ATOM      5  C   UNL     1       1.251   2.278  18.782  0.00  0.00    +0.000 A 
ATOM      6  N   UNL     1       1.114   3.227  17.832  0.00  0.00    +0.000 NA
ATOM      7  C   UNL     1       1.884   4.333  17.957  0.00  0.00    +0.000 A 
ENDBRANCH   1   2
BRANCH   1   8
ATOM      8  N   UNL     1       5.134   5.492  18.848  0.00  0.00    +0.000 NA
ATOM      9  C   UNL     1       5.351   4.121  18.278  0.00  0.00    +0.000 C 
ATOM     10  C   UNL     1       4.825   3.901  16.828  0.00  0.00    +0.000 C 
ATOM     11  N   UNL     1       5.411   4.921  15.955  0.00  0.00    +0.000 N 
ATOM     12  C   UNL     1       5.281   6.308  16.413  0.00  0.00    +0.000 C 
ATOM     13  C   UNL     1       5.770   6.432  17.874  0.00  0.00    +0.000 C 
BRANCH  11  14
ATOM     14  C   UNL     1       5.943   4.642  14.716  0.00  0.00    +0.000 A 
ATOM     15  C   UNL     1       7.157   5.182  14.275  0.00  0.00    +0.000 A 
ATOM     16  C   UNL     1       7.649   4.907  12.993  0.00  0.00    +0.000 A 
ATOM     17  C   UNL     1       6.934   4.081  12.129  0.00  0.00    +0.000 A 
ATOM     18  C   UNL     1       5.740   3.514  12.553  0.00  0.00    +0.000 A 
ATOM     19  C   UNL     1       5.256   3.797  13.828  0.00  0.00    +0.000 A 
ENDBRANCH  11  14
ENDBRANCH   1   8
BRANCH   1  20
ATOM     20  C   UNL     1       3.124   6.850  18.053  0.00  0.00    +0.000 C 
BRANCH  20  23
ATOM     21  C   UNL     1       2.014   9.069  18.158  0.00  0.00    +0.000 C 
ATOM     22  O   UNL     1       2.526   9.526  17.146  0.00  0.00    +0.000 OA
ATOM     23  N   UNL     1       2.213   7.805  18.663  0.00  0.00    +0.000 N 
ATOM     24  H   UNL     1       1.678   7.540  19.496  0.00  0.00    +0.000 HD
BRANCH  21  26
ATOM     25  O   UNL     1       0.748   9.583  20.121  0.00  0.00    +0.000 OA
ATOM     26  C   UNL     1       1.079   9.951  19.012  0.00  0.00    +0.000 C 
ATOM     27  N   UNL     1       0.700  11.135  18.408  0.00  0.00    +0.000 N 
ATOM     28  H   UNL     1       1.034  11.300  17.463  0.00  0.00    +0.000 HD
BRANCH  27  29
ATOM     29  C   UNL     1      -0.175  12.071  19.075  0.00  0.00    +0.000 C 
BRANCH  29  30
ATOM     30  C   UNL     1       0.513  13.389  19.428  0.00  0.00    +0.000 C 
BRANCH  30  31
ATOM     31  C   UNL     1       1.769  13.621  18.594  0.00  0.00    +0.000 C 
BRANCH  31  32
ATOM     32  N   UNL     1       2.070  15.029  18.438  0.00  0.00    +0.000 N 
ATOM     33  C   UNL     1       1.218  16.072  18.659  0.00  0.00    +0.000 A 
ATOM     34  C   UNL     1       1.953  17.198  18.361  0.00  0.00    +0.000 A 
ATOM     35  N   UNL     1       3.219  16.859  17.957  0.00  0.00    +0.000 NA
ATOM     36  C   UNL     1       3.259  15.547  18.012  0.00  0.00    +0.000 A 
ENDBRANCH  31  32
ENDBRANCH  30  31
ENDBRANCH  29  30
ENDBRANCH  27  29
ENDBRANCH  21  26
ENDBRANCH  20  23
ENDBRANCH   1  20
TORSDOF 10
ENDMDL
MODEL 7
REMARK VINA RESULT:      -8.1      2.082      3.448
REMARK  Name = 
REMARK  10 active torsions:
REMARK  status: ('A' for Active; 'I' for Inactive)
REMARK    1  A    between atoms: C_2  and  C_12
REMARK    2  A    between atoms: N_3  and  C_4
REMARK    3  A    between atoms: C_4  and  C_5
REMARK    4  A    between atoms: C_5  and  C_6
REMARK    5  A    between atoms: C_6  and  N_7
REMARK    6  A    between atoms: N_14  and  C_15
REMARK    7  A    between atoms: C_15  and  C_16
REMARK    8  A    between atoms: C_16  and  C_17
REMARK    9  A    between atoms: C_16  and  N_23
REMARK   10  A    between atoms: N_26  and  C_27
REMARK                            x       y       z     vdW  Elec       q    Type
REMARK                         _______ _______ _______ _____ _____    ______ ____
ROOT
ATOM      1  C   UNL     1       3.701   5.729  19.107  0.00  0.00    +0.000 C 
ENDROOT
BRANCH   1   2
ATOM      2  C   UNL     1       2.761   4.524  19.044  0.00  0.00    +0.000 A 
ATOM      3  C   UNL     1       2.749   3.569  20.072  0.00  0.00    +0.000 A 
ATOM      4  C   UNL     1       1.931   2.447  19.970  0.00  0.00    +0.000 A 
ATOM      5  C   UNL     1       1.132   2.320  18.848  0.00  0.00    +0.000 A 
ATOM      6  N   UNL     1       1.069   3.244  17.866  0.00  0.00    +0.000 NA
ATOM      7  C   UNL     1       1.880   4.320  17.985  0.00  0.00    +0.000 A 
ENDBRANCH   1   2
BRANCH   1   8
ATOM      8  N   UNL     1       5.135   5.381  18.870  0.00  0.00    +0.000 NA
ATOM      9  C   UNL     1       5.286   4.020  18.256  0.00  0.00    +0.000 C 
ATOM     10  C   UNL     1       4.735   3.866  16.808  0.00  0.00    +0.000 C 
ATOM     11  N   UNL     1       5.355   4.885  15.957  0.00  0.00    +0.000 N 
ATOM     12  C   UNL     1       5.289   6.262  16.458  0.00  0.00    +0.000 C 
ATOM     13  C   UNL     1       5.800   6.322  17.915  0.00  0.00    +0.000 C 
BRANCH  11  14
ATOM     14  C   UNL     1       5.860   4.621  14.705  0.00  0.00    +0.000 A 
ATOM     15  C   UNL     1       5.210   3.788  13.786  0.00  0.00    +0.000 A 
ATOM     16  C   UNL     1       5.772   3.512  12.534  0.00  0.00    +0.000 A 
ATOM     17  C   UNL     1       6.999   4.067  12.178  0.00  0.00    +0.000 A 
ATOM     18  C   UNL     1       7.652   4.915  13.062  0.00  0.00    +0.000 A 
ATOM     19  C   UNL     1       7.085   5.181  14.307  0.00  0.00    +0.000 A 
ENDBRANCH  11  14
ENDBRANCH   1   8
BRANCH   1  20
ATOM     20  C   UNL     1       3.168   6.824  18.119  0.00  0.00    +0.000 C 
BRANCH  20  23
ATOM     21  C   UNL     1       1.935   8.979  18.168  0.00  0.00    +0.000 C 
ATOM     22  O   UNL     1       2.339   9.392  17.090  0.00  0.00    +0.000 OA
ATOM     23  N   UNL     1       2.249   7.767  18.737  0.00  0.00    +0.000 N 
ATOM     24  H   UNL     1       1.796   7.532  19.626  0.00  0.00    +0.000 HD
BRANCH  21  26
ATOM     25  O   UNL     1       0.523   9.414  20.048  0.00  0.00    +0.000 OA
ATOM     26  C   UNL     1       1.015   9.865  19.034  0.00  0.00    +0.000 C 
ATOM     27  N   UNL     1       0.842  11.150  18.555  0.00  0.00    +0.000 N 
ATOM     28  H   UNL     1       1.296  11.382  17.676  0.00  0.00    +0.000 HD
BRANCH  27  29
ATOM     29  C   UNL     1       0.008  12.104  19.250  0.00  0.00    +0.000 C 
BRANCH  29  30
ATOM     30  C   UNL     1      -0.318  13.338  18.411  0.00  0.00    +0.000 C 
BRANCH  30  31
ATOM     31  C   UNL     1       0.233  14.618  19.033  0.00  0.00    +0.000 C 
BRANCH  31  32
ATOM     32  N   UNL     1       1.676  14.589  19.157  0.00  0.00    +0.000 N 
ATOM     33  C   UNL     1       2.576  14.436  18.141  0.00  0.00    +0.000 A 
ATOM     34  C   UNL     1       3.808  14.458  18.756  0.00  0.00    +0.000 A 
ATOM     35  N   UNL     1       3.672  14.609  20.112  0.00  0.00    +0.000 NA
ATOM     36  C   UNL     1       2.378  14.684  20.324  0.00  0.00    +0.000 A 
ENDBRANCH  31  32
ENDBRANCH  30  31
ENDBRANCH  29  30
ENDBRANCH  27  29
ENDBRANCH  21  26
ENDBRANCH  20  23
ENDBRANCH   1  20
TORSDOF 10
ENDMDL
MODEL 8
REMARK VINA RESULT:      -8.1      4.042      9.287
REMARK  Name = 
REMARK  10 active torsions:
REMARK  status: ('A' for Active; 'I' for Inactive)
REMARK    1  A    between atoms: C_2  and  C_12
REMARK    2  A    between atoms: N_3  and  C_4
REMARK    3  A    between atoms: C_4  and  C_5
REMARK    4  A    between atoms: C_5  and  C_6
REMARK    5  A    between atoms: C_6  and  N_7
REMARK    6  A    between atoms: N_14  and  C_15
REMARK    7  A    between atoms: C_15  and  C_16
REMARK    8  A    between atoms: C_16  and  C_17
REMARK    9  A    between atoms: C_16  and  N_23
REMARK   10  A    between atoms: N_26  and  C_27
REMARK                            x       y       z     vdW  Elec       q    Type
REMARK                         _______ _______ _______ _____ _____    ______ ____
ROOT
ATOM      1  C   UNL     1       0.745   9.814  19.978  0.00  0.00    +0.000 C 
ENDROOT
BRANCH   1   2
ATOM      2  C   UNL     1       1.535   8.575  19.556  0.00  0.00    +0.000 A 
ATOM      3  C   UNL     1       1.630   7.461  20.403  0.00  0.00    +0.000 A 
ATOM      4  C   UNL     1       2.403   6.365  20.030  0.00  0.00    +0.000 A 
ATOM      5  C   UNL     1       3.048   6.406  18.806  0.00  0.00    +0.000 A 
ATOM      6  N   UNL     1       2.935   7.431  17.935  0.00  0.00    +0.000 NA
ATOM      7  C   UNL     1       2.184   8.487  18.327  0.00  0.00    +0.000 A 
ENDBRANCH   1   2
BRANCH   1   8
ATOM      8  N   UNL     1       1.258  10.452  21.228  0.00  0.00    +0.000 NA
ATOM      9  C   UNL     1       1.147  11.947  21.179  0.00  0.00    +0.000 C 
ATOM     10  C   UNL     1      -0.303  12.518  21.167  0.00  0.00    +0.000 C 
ATOM     11  N   UNL     1      -1.028  11.986  22.324  0.00  0.00    +0.000 N 
ATOM     12  C   UNL     1      -0.981  10.530  22.494  0.00  0.00    +0.000 C 
ATOM     13  C   UNL     1       0.483  10.037  22.439  0.00  0.00    +0.000 C 
BRANCH  11  14
ATOM     14  C   UNL     1      -1.818  12.760  23.144  0.00  0.00    +0.000 A 
ATOM     15  C   UNL     1      -1.404  14.001  23.642  0.00  0.00    +0.000 A 
ATOM     16  C   UNL     1      -2.220  14.743  24.505  0.00  0.00    +0.000 A 
ATOM     17  C   UNL     1      -3.469  14.256  24.884  0.00  0.00    +0.000 A 
ATOM     18  C   UNL     1      -3.911  13.039  24.383  0.00  0.00    +0.000 A 
ATOM     19  C   UNL     1      -3.090  12.306  23.528  0.00  0.00    +0.000 A 
ENDBRANCH  11  14
ENDBRANCH   1   8
BRANCH   1  20
ATOM     20  C   UNL     1       0.694  10.805  18.764  0.00  0.00    +0.000 C 
BRANCH  20  23
ATOM     21  C   UNL     1      -1.270  11.804  17.619  0.00  0.00    +0.000 C 
ATOM     22  O   UNL     1      -0.992  12.969  17.862  0.00  0.00    +0.000 OA
ATOM     23  N   UNL     1      -0.528  10.704  17.981  0.00  0.00    +0.000 N 
ATOM     24  H   UNL     1      -0.859   9.787  17.665  0.00  0.00    +0.000 HD
BRANCH  21  26
ATOM     25  O   UNL     1      -2.530  10.980  15.761  0.00  0.00    +0.000 OA
ATOM     26  C   UNL     1      -2.578  11.466  16.872  0.00  0.00    +0.000 C 
ATOM     27  N   UNL     1      -3.730  11.752  17.579  0.00  0.00    +0.000 N 
ATOM     28  H   UNL     1      -3.619  12.183  18.493  0.00  0.00    +0.000 HD
BRANCH  27  29
ATOM     29  C   UNL     1      -5.038  11.496  17.019  0.00  0.00    +0.000 C 
BRANCH  29  30
ATOM     30  C   UNL     1      -6.077  12.541  17.420  0.00  0.00    +0.000 C 
BRANCH  30  31
ATOM     31  C   UNL     1      -7.151  11.960  18.336  0.00  0.00    +0.000 C 
BRANCH  31  32
ATOM     32  N   UNL     1      -6.905  12.265  19.730  0.00  0.00    +0.000 N 
ATOM     33  C   UNL     1      -7.503  11.678  20.809  0.00  0.00    +0.000 A 
ATOM     34  C   UNL     1      -6.956  12.311  21.902  0.00  0.00    +0.000 A 
ATOM     35  N   UNL     1      -6.056  13.268  21.511  0.00  0.00    +0.000 NA
ATOM     36  C   UNL     1      -6.048  13.218  20.198  0.00  0.00    +0.000 A 
ENDBRANCH  31  32
ENDBRANCH  30  31
ENDBRANCH  29  30
ENDBRANCH  27  29
ENDBRANCH  21  26
ENDBRANCH  20  23
ENDBRANCH   1  20
TORSDOF 10
ENDMDL
MODEL 9
REMARK VINA RESULT:      -8.1      3.659      8.756
REMARK  Name = 
REMARK  10 active torsions:
REMARK  status: ('A' for Active; 'I' for Inactive)
REMARK    1  A    between atoms: C_2  and  C_12
REMARK    2  A    between atoms: N_3  and  C_4
REMARK    3  A    between atoms: C_4  and  C_5
REMARK    4  A    between atoms: C_5  and  C_6
REMARK    5  A    between atoms: C_6  and  N_7
REMARK    6  A    between atoms: N_14  and  C_15
REMARK    7  A    between atoms: C_15  and  C_16
REMARK    8  A    between atoms: C_16  and  C_17
REMARK    9  A    between atoms: C_16  and  N_23
REMARK   10  A    between atoms: N_26  and  C_27
REMARK                            x       y       z     vdW  Elec       q    Type
REMARK                         _______ _______ _______ _____ _____    ______ ____
ROOT
ATOM      1  C   UNL     1       2.148   5.930  18.822  0.00  0.00    +0.000 C 
ENDROOT
BRANCH   1   2
ATOM      2  C   UNL     1       1.918   4.749  19.765  0.00  0.00    +0.000 A 
ATOM      3  C   UNL     1       1.126   3.660  19.373  0.00  0.00    +0.000 A 
ATOM      4  C   UNL     1       0.878   2.621  20.266  0.00  0.00    +0.000 A 
ATOM      5  C   UNL     1       1.444   2.693  21.526  0.00  0.00    +0.000 A 
ATOM      6  N   UNL     1       2.259   3.692  21.924  0.00  0.00    +0.000 NA
ATOM      7  C   UNL     1       2.477   4.693  21.039  0.00  0.00    +0.000 A 
ENDBRANCH   1   2
BRANCH   1   8
ATOM      8  N   UNL     1       2.762   7.118  19.490  0.00  0.00    +0.000 NA
ATOM      9  C   UNL     1       3.018   8.234  18.521  0.00  0.00    +0.000 C 
ATOM     10  C   UNL     1       1.751   8.902  17.908  0.00  0.00    +0.000 C 
ATOM     11  N   UNL     1       0.884   9.356  18.998  0.00  0.00    +0.000 N 
ATOM     12  C   UNL     1       0.572   8.357  20.025  0.00  0.00    +0.000 C 
ATOM     13  C   UNL     1       1.874   7.703  20.542  0.00  0.00    +0.000 C 
BRANCH  11  14
ATOM     14  C   UNL     1       0.281  10.593  19.021  0.00  0.00    +0.000 A 
ATOM     15  C   UNL     1      -1.094  10.761  19.226  0.00  0.00    +0.000 A 
ATOM     16  C   UNL     1      -1.680  12.032  19.205  0.00  0.00    +0.000 A 
ATOM     17  C   UNL     1      -0.897  13.163  18.979  0.00  0.00    +0.000 A 
ATOM     18  C   UNL     1       0.472  13.024  18.797  0.00  0.00    +0.000 A 
ATOM     19  C   UNL     1       1.045  11.754  18.816  0.00  0.00    +0.000 A 
ENDBRANCH  11  14
ENDBRANCH   1   8
BRANCH   1  20
ATOM     20  C   UNL     1       2.978   5.425  17.591  0.00  0.00    +0.000 C 
BRANCH  20  23
ATOM     21  C   UNL     1       5.299   5.385  16.708  0.00  0.00    +0.000 C 
ATOM     22  O   UNL     1       5.066   4.666  15.747  0.00  0.00    +0.000 OA
ATOM     23  N   UNL     1       4.377   5.822  17.630  0.00  0.00    +0.000 N 
ATOM     24  H   UNL     1       4.706   6.463  18.359  0.00  0.00    +0.000 HD
BRANCH  21  26
ATOM     25  O   UNL     1       7.672   5.099  16.769  0.00  0.00    +0.000 OA
ATOM     26  C   UNL     1       6.743   5.849  16.989  0.00  0.00    +0.000 C 
ATOM     27  N   UNL     1       6.845   7.138  17.476  0.00  0.00    +0.000 N 
ATOM     28  H   UNL     1       5.977   7.643  17.637  0.00  0.00    +0.000 HD
BRANCH  27  29
ATOM     29  C   UNL     1       8.129   7.722  17.792  0.00  0.00    +0.000 C 
BRANCH  29  30
ATOM     30  C   UNL     1       8.085   9.246  17.894  0.00  0.00    +0.000 C 
BRANCH  30  31
ATOM     31  C   UNL     1       9.015   9.775  18.982  0.00  0.00    +0.000 C 
BRANCH  31  32
ATOM     32  N   UNL     1       9.525  11.095  18.674  0.00  0.00    +0.000 N 
ATOM     33  C   UNL     1       9.154  12.269  19.265  0.00  0.00    +0.000 A 
ATOM     34  C   UNL     1       9.897  13.235  18.625  0.00  0.00    +0.000 A 
ATOM     35  N   UNL     1      10.694  12.677  17.660  0.00  0.00    +0.000 NA
ATOM     36  C   UNL     1      10.447  11.388  17.711  0.00  0.00    +0.000 A 
ENDBRANCH  31  32
ENDBRANCH  30  31
ENDBRANCH  29  30
ENDBRANCH  27  29
ENDBRANCH  21  26
ENDBRANCH  20  23
ENDBRANCH   1  20
TORSDOF 10
ENDMDL
