MODEL 1
REMARK VINA RESULT:      -7.9      0.000      0.000
REMARK  Name = 
REMARK  2 active torsions:
REMARK  status: ('A' for Active; 'I' for Inactive)
REMARK    1  A    between atoms: N_6  and  C_7
REMARK    2  A    between atoms: N_19  and  C_20
REMARK                            x       y       z     vdW  Elec       q    Type
REMARK                         _______ _______ _______ _____ _____    ______ ____
ROOT
ATOM      1  O   UNL     1      -1.725  11.312  21.124  0.00  0.00    +0.000 OA
ATOM      2  N   UNL     1      -0.701  11.902  21.496  0.00  0.00    +0.000 N 
ATOM      3  O   UNL     1      -0.439  12.243  22.658  0.00  0.00    +0.000 OA
ATOM      4  C   UNL     1       0.304  12.153  20.493  0.00  0.00    +0.000 A 
ATOM      5  N   UNL     1       0.673  13.448  20.312  0.00  0.00    +0.000 NA
ATOM      6  N   UNL     1       1.547  13.347  19.249  0.00  0.00    +0.000 N 
ATOM      7  N   UNL     1       1.727  11.997  18.843  0.00  0.00    +0.000 N 
ATOM      8  O   UNL     1       2.590  11.664  17.982  0.00  0.00    +0.000 OA
ATOM      9  C   UNL     1       0.926  11.208  19.605  0.00  0.00    +0.000 A 
ATOM     10  N   UNL     1       0.830   9.846  19.486  0.00  0.00    +0.000 N 
ATOM     11  C   UNL     1       1.067   9.127  18.209  0.00  0.00    +0.000 C 
ATOM     12  C   UNL     1       2.316   8.228  18.288  0.00  0.00    +0.000 C 
ATOM     13  N   UNL     1       2.294   7.351  19.476  0.00  0.00    +0.000 N 
ATOM     14  C   UNL     1       2.003   8.035  20.752  0.00  0.00    +0.000 C 
ATOM     15  C   UNL     1       0.752   8.947  20.655  0.00  0.00    +0.000 C 
ENDROOT
BRANCH  13  16
ATOM     16  C   UNL     1       2.040   5.987  19.376  0.00  0.00    +0.000 A 
ATOM     17  C   UNL     1       1.319   5.348  20.402  0.00  0.00    +0.000 A 
ATOM     18  C   UNL     1       1.055   3.973  20.381  0.00  0.00    +0.000 A 
ATOM     19  C   UNL     1       1.509   3.193  19.323  0.00  0.00    +0.000 A 
ATOM     20  C   UNL     1       2.229   3.792  18.294  0.00  0.00    +0.000 A 
ATOM     21  C   UNL     1       2.491   5.165  18.328  0.00  0.00    +0.000 A 
ATOM     22  F   UNL     1       3.167   5.687  17.293  0.00  0.00    +0.000 F 
ENDBRANCH  13  16
BRANCH   6  23
ATOM     23  C   UNL     1       2.098  14.537  18.678  0.00  0.00    +0.000 A 
ATOM     24  C   UNL     1       3.390  14.506  18.125  0.00  0.00    +0.000 A 
ATOM     25  C   UNL     1       3.956  15.666  17.587  0.00  0.00    +0.000 A 
ATOM     26  C   UNL     1       3.246  16.863  17.598  0.00  0.00    +0.000 A 
ATOM     27  C   UNL     1       1.965  16.902  18.137  0.00  0.00    +0.000 A 
ATOM     28  C   UNL     1       1.391  15.746  18.674  0.00  0.00    +0.000 A 
ENDBRANCH   6  23
TORSDOF 2
ENDMDL
MODEL 2
REMARK VINA RESULT:      -7.8      4.999      8.908
REMARK  Name = 
REMARK  2 active torsions:
REMARK  status: ('A' for Active; 'I' for Inactive)
REMARK    1  A    between atoms: N_6  and  C_7
REMARK    2  A    between atoms: N_19  and  C_20
REMARK                            x       y       z     vdW  Elec       q    Type
REMARK                         _______ _______ _______ _____ _____    ______ ____
ROOT
ATOM      1  O   UNL     1       4.971   3.178  19.494  0.00  0.00    +0.000 OA
ATOM      2  N   UNL     1       4.475   2.897  18.394  0.00  0.00    +0.000 N 
ATOM      3  O   UNL     1       3.746   1.924  18.152  0.00  0.00    +0.000 OA
ATOM      4  C   UNL     1       4.715   3.825  17.318  0.00  0.00    +0.000 A 
ATOM      5  N   UNL     1       5.307   3.323  16.202  0.00  0.00    +0.000 NA
ATOM      6  N   UNL     1       5.475   4.458  15.436  0.00  0.00    +0.000 N 
ATOM      7  N   UNL     1       4.941   5.609  16.078  0.00  0.00    +0.000 N 
ATOM      8  O   UNL     1       4.862   6.727  15.494  0.00  0.00    +0.000 OA
ATOM      9  C   UNL     1       4.468   5.241  17.296  0.00  0.00    +0.000 A 
ATOM     10  N   UNL     1       3.890   6.096  18.199  0.00  0.00    +0.000 N 
ATOM     11  C   UNL     1       4.225   7.539  18.276  0.00  0.00    +0.000 C 
ATOM     12  C   UNL     1       3.024   8.422  17.885  0.00  0.00    +0.000 C 
ATOM     13  N   UNL     1       1.799   8.050  18.623  0.00  0.00    +0.000 N 
ATOM     14  C   UNL     1       1.476   6.609  18.608  0.00  0.00    +0.000 C 
ATOM     15  C   UNL     1       2.697   5.731  18.990  0.00  0.00    +0.000 C 
ENDROOT
BRANCH  13  16
ATOM     16  C   UNL     1       1.294   8.838  19.651  0.00  0.00    +0.000 A 
ATOM     17  C   UNL     1       1.397   8.381  20.979  0.00  0.00    +0.000 A 
ATOM     18  C   UNL     1       0.882   9.109  22.058  0.00  0.00    +0.000 A 
ATOM     19  C   UNL     1       0.244  10.325  21.837  0.00  0.00    +0.000 A 
ATOM     20  C   UNL     1       0.121  10.804  20.536  0.00  0.00    +0.000 A 
ATOM     21  C   UNL     1       0.634  10.066  19.466  0.00  0.00    +0.000 A 
ATOM     22  F   UNL     1       0.507  10.595  18.238  0.00  0.00    +0.000 F 
ENDBRANCH  13  16
BRANCH   6  23
ATOM     23  C   UNL     1       6.168   4.367  14.188  0.00  0.00    +0.000 A 
ATOM     24  C   UNL     1       7.285   5.188  13.954  0.00  0.00    +0.000 A 
ATOM     25  C   UNL     1       7.958   5.132  12.729  0.00  0.00    +0.000 A 
ATOM     26  C   UNL     1       7.525   4.264  11.730  0.00  0.00    +0.000 A 
ATOM     27  C   UNL     1       6.426   3.444  11.956  0.00  0.00    +0.000 A 
ATOM     28  C   UNL     1       5.750   3.492  13.178  0.00  0.00    +0.000 A 
ENDBRANCH   6  23
TORSDOF 2
ENDMDL
MODEL 3
REMARK VINA RESULT:      -7.7      0.902      1.268
REMARK  Name = 
REMARK  2 active torsions:
REMARK  status: ('A' for Active; 'I' for Inactive)
REMARK    1  A    between atoms: N_6  and  C_7
REMARK    2  A    between atoms: N_19  and  C_20
REMARK                            x       y       z     vdW  Elec       q    Type
REMARK                         _______ _______ _______ _____ _____    ______ ____
ROOT
ATOM      1  O   UNL     1      -1.567  11.080  21.202  0.00  0.00    +0.000 OA
ATOM      2  N   UNL     1      -0.525  11.651  21.551  0.00  0.00    +0.000 N 
ATOM      3  O   UNL     1      -0.208  11.941  22.714  0.00  0.00    +0.000 OA
ATOM      4  C   UNL     1       0.433  11.943  20.515  0.00  0.00    +0.000 A 
ATOM      5  N   UNL     1       0.799  13.244  20.372  0.00  0.00    +0.000 NA
ATOM      6  N   UNL     1       1.622  13.186  19.266  0.00  0.00    +0.000 N 
ATOM      7  N   UNL     1       1.777  11.854  18.794  0.00  0.00    +0.000 N 
ATOM      8  O   UNL     1       2.598  11.556  17.881  0.00  0.00    +0.000 OA
ATOM      9  C   UNL     1       1.009  11.035  19.559  0.00  0.00    +0.000 A 
ATOM     10  N   UNL     1       0.902   9.680  19.386  0.00  0.00    +0.000 N 
ATOM     11  C   UNL     1       1.076   9.016  18.070  0.00  0.00    +0.000 C 
ATOM     12  C   UNL     1       2.324   8.112  18.051  0.00  0.00    +0.000 C 
ATOM     13  N   UNL     1       2.353   7.184  19.200  0.00  0.00    +0.000 N 
ATOM     14  C   UNL     1       2.125   7.814  20.517  0.00  0.00    +0.000 C 
ATOM     15  C   UNL     1       0.875   8.732  20.518  0.00  0.00    +0.000 C 
ENDROOT
BRANCH  13  16
ATOM     16  C   UNL     1       2.088   5.826  19.055  0.00  0.00    +0.000 A 
ATOM     17  C   UNL     1       2.317   5.213  17.809  0.00  0.00    +0.000 A 
ATOM     18  C   UNL     1       2.043   3.859  17.585  0.00  0.00    +0.000 A 
ATOM     19  C   UNL     1       1.530   3.073  18.611  0.00  0.00    +0.000 A 
ATOM     20  C   UNL     1       1.287   3.648  19.854  0.00  0.00    +0.000 A 
ATOM     21  C   UNL     1       1.559   5.003  20.065  0.00  0.00    +0.000 A 
ATOM     22  F   UNL     1       1.329   5.492  21.294  0.00  0.00    +0.000 F 
ENDBRANCH  13  16
BRANCH   6  23
ATOM     23  C   UNL     1       2.152  14.398  18.721  0.00  0.00    +0.000 A 
ATOM     24  C   UNL     1       3.449  14.407  18.181  0.00  0.00    +0.000 A 
ATOM     25  C   UNL     1       3.994  15.588  17.670  0.00  0.00    +0.000 A 
ATOM     26  C   UNL     1       3.256  16.768  17.693  0.00  0.00    +0.000 A 
ATOM     27  C   UNL     1       1.969  16.768  18.220  0.00  0.00    +0.000 A 
ATOM     28  C   UNL     1       1.417  15.590  18.731  0.00  0.00    +0.000 A 
ENDBRANCH   6  23
TORSDOF 2
ENDMDL
MODEL 4
REMARK VINA RESULT:      -7.7      1.888      2.148
REMARK  Name = 
REMARK  2 active torsions:
REMARK  status: ('A' for Active; 'I' for Inactive)
REMARK    1  A    between atoms: N_6  and  C_7
REMARK    2  A    between atoms: N_19  and  C_20
REMARK                            x       y       z     vdW  Elec       q    Type
REMARK                         _______ _______ _______ _____ _____    ______ ____
ROOT
ATOM      1  O   UNL     1      -1.005   9.002  22.288  0.00  0.00    +0.000 OA
ATOM      2  N   UNL     1      -0.064   9.752  22.585  0.00  0.00    +0.000 N 
ATOM      3  O   UNL     1       0.485   9.827  23.694  0.00  0.00    +0.000 OA
ATOM      4  C   UNL     1       0.480  10.561  21.524  0.00  0.00    +0.000 A 
ATOM      5  N   UNL     1       0.488  11.905  21.725  0.00  0.00    +0.000 NA
ATOM      6  N   UNL     1       0.967  12.369  20.517  0.00  0.00    +0.000 N 
ATOM      7  N   UNL     1       1.285  11.302  19.633  0.00  0.00    +0.000 N 
ATOM      8  O   UNL     1       1.869  11.496  18.529  0.00  0.00    +0.000 OA
ATOM      9  C   UNL     1       0.962  10.130  20.240  0.00  0.00    +0.000 A 
ATOM     10  N   UNL     1       1.123   8.891  19.677  0.00  0.00    +0.000 N 
ATOM     11  C   UNL     1       1.075   8.655  18.213  0.00  0.00    +0.000 C 
ATOM     12  C   UNL     1       2.441   8.195  17.667  0.00  0.00    +0.000 C 
ATOM     13  N   UNL     1       2.994   7.063  18.440  0.00  0.00    +0.000 N 
ATOM     14  C   UNL     1       2.999   7.253  19.906  0.00  0.00    +0.000 C 
ATOM     15  C   UNL     1       1.623   7.729  20.439  0.00  0.00    +0.000 C 
ENDROOT
BRANCH  13  16
ATOM     16  C   UNL     1       3.015   5.769  17.934  0.00  0.00    +0.000 A 
ATOM     17  C   UNL     1       1.894   4.939  18.124  0.00  0.00    +0.000 A 
ATOM     18  C   UNL     1       1.861   3.617  17.668  0.00  0.00    +0.000 A 
ATOM     19  C   UNL     1       2.959   3.082  17.002  0.00  0.00    +0.000 A 
ATOM     20  C   UNL     1       4.086   3.873  16.801  0.00  0.00    +0.000 A 
ATOM     21  C   UNL     1       4.109   5.191  17.265  0.00  0.00    +0.000 A 
ATOM     22  F   UNL     1       5.215   5.910  17.016  0.00  0.00    +0.000 F 
ENDBRANCH  13  16
BRANCH   6  23
ATOM     23  C   UNL     1       1.037  13.778  20.284  0.00  0.00    +0.000 A 
ATOM     24  C   UNL     1       1.977  14.551  20.988  0.00  0.00    +0.000 A 
ATOM     25  C   UNL     1       2.042  15.934  20.794  0.00  0.00    +0.000 A 
ATOM     26  C   UNL     1       1.173  16.559  19.903  0.00  0.00    +0.000 A 
ATOM     27  C   UNL     1       0.243  15.801  19.198  0.00  0.00    +0.000 A 
ATOM     28  C   UNL     1       0.175  14.418  19.385  0.00  0.00    +0.000 A 
ENDBRANCH   6  23
TORSDOF 2
ENDMDL
MODEL 5
REMARK VINA RESULT:      -7.6      4.957      8.931
REMARK  Name = 
REMARK  2 active torsions:
REMARK  status: ('A' for Active; 'I' for Inactive)
REMARK    1  A    between atoms: N_6  and  C_7
REMARK    2  A    between atoms: N_19  and  C_20
REMARK                            x       y       z     vdW  Elec       q    Type
REMARK                         _______ _______ _______ _____ _____    ______ ____
ROOT
ATOM      1  O   UNL     1       4.969   3.293  19.464  0.00  0.00    +0.000 OA
ATOM      2  N   UNL     1       4.475   2.991  18.368  0.00  0.00    +0.000 N 
ATOM      3  O   UNL     1       3.745   2.015  18.143  0.00  0.00    +0.000 OA
ATOM      4  C   UNL     1       4.721   3.896  17.274  0.00  0.00    +0.000 A 
ATOM      5  N   UNL     1       5.314   3.371  16.170  0.00  0.00    +0.000 NA
ATOM      6  N   UNL     1       5.487   4.490  15.382  0.00  0.00    +0.000 N 
ATOM      7  N   UNL     1       4.953   5.655  15.999  0.00  0.00    +0.000 N 
ATOM      8  O   UNL     1       4.878   6.761  15.393  0.00  0.00    +0.000 OA
ATOM      9  C   UNL     1       4.476   5.312  17.224  0.00  0.00    +0.000 A 
ATOM     10  N   UNL     1       3.897   6.186  18.107  0.00  0.00    +0.000 N 
ATOM     11  C   UNL     1       4.235   7.630  18.156  0.00  0.00    +0.000 C 
ATOM     12  C   UNL     1       3.036   8.507  17.744  0.00  0.00    +0.000 C 
ATOM     13  N   UNL     1       1.809   8.152  18.486  0.00  0.00    +0.000 N 
ATOM     14  C   UNL     1       1.483   6.711  18.499  0.00  0.00    +0.000 C 
ATOM     15  C   UNL     1       2.701   5.839  18.902  0.00  0.00    +0.000 C 
ENDROOT
BRANCH  13  16
ATOM     16  C   UNL     1       1.302   8.961  19.497  0.00  0.00    +0.000 A 
ATOM     17  C   UNL     1       0.894  10.272  19.186  0.00  0.00    +0.000 A 
ATOM     18  C   UNL     1       0.404  11.149  20.161  0.00  0.00    +0.000 A 
ATOM     19  C   UNL     1       0.307  10.735  21.485  0.00  0.00    +0.000 A 
ATOM     20  C   UNL     1       0.706   9.447  21.828  0.00  0.00    +0.000 A 
ATOM     21  C   UNL     1       1.199   8.582  20.847  0.00  0.00    +0.000 A 
ATOM     22  F   UNL     1       1.542   7.343  21.237  0.00  0.00    +0.000 F 
ENDBRANCH  13  16
BRANCH   6  23
ATOM     23  C   UNL     1       6.183   4.373  14.138  0.00  0.00    +0.000 A 
ATOM     24  C   UNL     1       7.298   5.190  13.888  0.00  0.00    +0.000 A 
ATOM     25  C   UNL     1       7.975   5.109  12.667  0.00  0.00    +0.000 A 
ATOM     26  C   UNL     1       7.546   4.218  11.687  0.00  0.00    +0.000 A 
ATOM     27  C   UNL     1       6.448   3.401  11.928  0.00  0.00    +0.000 A 
ATOM     28  C   UNL     1       5.769   3.475  13.147  0.00  0.00    +0.000 A 
ENDBRANCH   6  23
TORSDOF 2
ENDMDL
MODEL 6
REMARK VINA RESULT:      -7.5      1.307      1.487
REMARK  Name = 
REMARK  2 active torsions:
REMARK  status: ('A' for Active; 'I' for Inactive)
REMARK    1  A    between atoms: N_6  and  C_7
REMARK    2  A    between atoms: N_19  and  C_20
REMARK                            x       y       z     vdW  Elec       q    Type
REMARK                         _______ _______ _______ _____ _____    ______ ____
ROOT
ATOM      1  O   UNL     1      -1.065   9.762  21.445  0.00  0.00    +0.000 OA
ATOM      2  N   UNL     1      -0.079  10.430  21.786  0.00  0.00    +0.000 N 
ATOM      3  O   UNL     1       0.338  10.574  22.944  0.00  0.00    +0.000 OA
ATOM      4  C   UNL     1       0.688  11.040  20.729  0.00  0.00    +0.000 A 
ATOM      5  N   UNL     1       0.843  12.389  20.788  0.00  0.00    +0.000 NA
ATOM      6  N   UNL     1       1.518  12.648  19.614  0.00  0.00    +0.000 N 
ATOM      7  N   UNL     1       1.802  11.455  18.895  0.00  0.00    +0.000 N 
ATOM      8  O   UNL     1       2.534  11.449  17.866  0.00  0.00    +0.000 OA
ATOM      9  C   UNL     1       1.262  10.408  19.572  0.00  0.00    +0.000 A 
ATOM     10  N   UNL     1       1.330   9.100  19.167  0.00  0.00    +0.000 N 
ATOM     11  C   UNL     1       1.429   8.698  17.742  0.00  0.00    +0.000 C 
ATOM     12  C   UNL     1       2.780   8.025  17.435  0.00  0.00    +0.000 C 
ATOM     13  N   UNL     1       3.087   6.938  18.388  0.00  0.00    +0.000 N 
ATOM     14  C   UNL     1       2.941   7.299  19.813  0.00  0.00    +0.000 C 
ATOM     15  C   UNL     1       1.582   7.988  20.105  0.00  0.00    +0.000 C 
ENDROOT
BRANCH  13  16
ATOM     16  C   UNL     1       3.004   5.599  18.026  0.00  0.00    +0.000 A 
ATOM     17  C   UNL     1       1.784   4.917  18.194  0.00  0.00    +0.000 A 
ATOM     18  C   UNL     1       1.640   3.561  17.879  0.00  0.00    +0.000 A 
ATOM     19  C   UNL     1       2.722   2.843  17.382  0.00  0.00    +0.000 A 
ATOM     20  C   UNL     1       3.944   3.484  17.208  0.00  0.00    +0.000 A 
ATOM     21  C   UNL     1       4.078   4.837  17.531  0.00  0.00    +0.000 A 
ATOM     22  F   UNL     1       5.276   5.404  17.315  0.00  0.00    +0.000 F 
ENDBRANCH  13  16
BRANCH   6  23
ATOM     23  C   UNL     1       1.795  14.003  19.248  0.00  0.00    +0.000 A 
ATOM     24  C   UNL     1       3.107  14.375  18.906  0.00  0.00    +0.000 A 
ATOM     25  C   UNL     1       3.402  15.700  18.572  0.00  0.00    +0.000 A 
ATOM     26  C   UNL     1       2.398  16.665  18.579  0.00  0.00    +0.000 A 
ATOM     27  C   UNL     1       1.096  16.305  18.910  0.00  0.00    +0.000 A 
ATOM     28  C   UNL     1       0.793  14.982  19.242  0.00  0.00    +0.000 A 
ENDBRANCH   6  23
TORSDOF 2
ENDMDL
MODEL 7
REMARK VINA RESULT:      -7.4      1.838      2.496
REMARK  Name = 
REMARK  2 active torsions:
REMARK  status: ('A' for Active; 'I' for Inactive)
REMARK    1  A    between atoms: N_6  and  C_7
REMARK    2  A    between atoms: N_19  and  C_20
REMARK                            x       y       z     vdW  Elec       q    Type
REMARK                         _______ _______ _______ _____ _____    ______ ____
ROOT
ATOM      1  O   UNL     1      -0.808   8.763  22.105  0.00  0.00    +0.000 OA
ATOM      2  N   UNL     1       0.101   9.561  22.377  0.00  0.00    +0.000 N 
ATOM      3  O   UNL     1       0.648   9.693  23.481  0.00  0.00    +0.000 OA
ATOM      4  C   UNL     1       0.609  10.360  21.290  0.00  0.00    +0.000 A 
ATOM      5  N   UNL     1       0.559  11.708  21.450  0.00  0.00    +0.000 NA
ATOM      6  N   UNL     1       1.016  12.155  20.227  0.00  0.00    +0.000 N 
ATOM      7  N   UNL     1       1.378  11.077  19.374  0.00  0.00    +0.000 N 
ATOM      8  O   UNL     1       1.951  11.262  18.264  0.00  0.00    +0.000 OA
ATOM      9  C   UNL     1       1.106   9.911  20.017  0.00  0.00    +0.000 A 
ATOM     10  N   UNL     1       1.318   8.663  19.492  0.00  0.00    +0.000 N 
ATOM     11  C   UNL     1       1.278   8.381  18.036  0.00  0.00    +0.000 C 
ATOM     12  C   UNL     1       2.662   7.963  17.500  0.00  0.00    +0.000 C 
ATOM     13  N   UNL     1       3.263   6.880  18.306  0.00  0.00    +0.000 N 
ATOM     14  C   UNL     1       3.263   7.114  19.764  0.00  0.00    +0.000 C 
ATOM     15  C   UNL     1       1.869   7.547  20.287  0.00  0.00    +0.000 C 
ENDROOT
BRANCH  13  16
ATOM     16  C   UNL     1       3.339   5.573  17.838  0.00  0.00    +0.000 A 
ATOM     17  C   UNL     1       4.509   5.146  17.182  0.00  0.00    +0.000 A 
ATOM     18  C   UNL     1       4.639   3.854  16.660  0.00  0.00    +0.000 A 
ATOM     19  C   UNL     1       3.594   2.945  16.782  0.00  0.00    +0.000 A 
ATOM     20  C   UNL     1       2.422   3.335  17.422  0.00  0.00    +0.000 A 
ATOM     21  C   UNL     1       2.301   4.629  17.935  0.00  0.00    +0.000 A 
ATOM     22  F   UNL     1       1.155   4.936  18.564  0.00  0.00    +0.000 F 
ENDBRANCH  13  16
BRANCH   6  23
ATOM     23  C   UNL     1       1.026  13.559  19.952  0.00  0.00    +0.000 A 
ATOM     24  C   UNL     1      -0.081  14.149  19.318  0.00  0.00    +0.000 A 
ATOM     25  C   UNL     1      -0.078  15.514  19.016  0.00  0.00    +0.000 A 
ATOM     26  C   UNL     1       1.025  16.301  19.338  0.00  0.00    +0.000 A 
ATOM     27  C   UNL     1       2.122  15.727  19.971  0.00  0.00    +0.000 A 
ATOM     28  C   UNL     1       2.125  14.364  20.278  0.00  0.00    +0.000 A 
ENDBRANCH   6  23
TORSDOF 2
ENDMDL
MODEL 8
REMARK VINA RESULT:      -7.1      1.146      1.527
REMARK  Name = 
REMARK  2 active torsions:
REMARK  status: ('A' for Active; 'I' for Inactive)
REMARK    1  A    between atoms: N_6  and  C_7
REMARK    2  A    between atoms: N_19  and  C_20
REMARK                            x       y       z     vdW  Elec       q    Type
REMARK                         _______ _______ _______ _____ _____    ______ ____
ROOT
ATOM      1  O   UNL     1      -1.970  10.646  19.797  0.00  0.00    +0.000 OA
ATOM      2  N   UNL     1      -1.144  11.310  20.440  0.00  0.00    +0.000 N 
ATOM      3  O   UNL     1      -1.209  11.579  21.648  0.00  0.00    +0.000 OA
ATOM      4  C   UNL     1       0.030  11.750  19.729  0.00  0.00    +0.000 A 
ATOM      5  N   UNL     1       0.267  13.088  19.715  0.00  0.00    +0.000 NA
ATOM      6  N   UNL     1       1.373  13.170  18.894  0.00  0.00    +0.000 N 
ATOM      7  N   UNL     1       1.810  11.886  18.471  0.00  0.00    +0.000 N 
ATOM      8  O   UNL     1       2.887  11.720  17.830  0.00  0.00    +0.000 OA
ATOM      9  C   UNL     1       0.956  10.955  18.969  0.00  0.00    +0.000 A 
ATOM     10  N   UNL     1       1.062   9.605  18.756  0.00  0.00    +0.000 N 
ATOM     11  C   UNL     1       1.681   9.025  17.538  0.00  0.00    +0.000 C 
ATOM     12  C   UNL     1       2.979   8.262  17.870  0.00  0.00    +0.000 C 
ATOM     13  N   UNL     1       2.785   7.291  18.967  0.00  0.00    +0.000 N 
ATOM     14  C   UNL     1       2.119   7.832  20.169  0.00  0.00    +0.000 C 
ATOM     15  C   UNL     1       0.822   8.609  19.819  0.00  0.00    +0.000 C 
ENDROOT
BRANCH  13  16
ATOM     16  C   UNL     1       2.734   5.921  18.734  0.00  0.00    +0.000 A 
ATOM     17  C   UNL     1       1.632   5.384  18.041  0.00  0.00    +0.000 A 
ATOM     18  C   UNL     1       1.502   4.012  17.801  0.00  0.00    +0.000 A 
ATOM     19  C   UNL     1       2.480   3.130  18.249  0.00  0.00    +0.000 A 
ATOM     20  C   UNL     1       3.580   3.626  18.941  0.00  0.00    +0.000 A 
ATOM     21  C   UNL     1       3.697   4.998  19.180  0.00  0.00    +0.000 A 
ATOM     22  F   UNL     1       4.795   5.417  19.830  0.00  0.00    +0.000 F 
ENDBRANCH  13  16
BRANCH   6  23
ATOM     23  C   UNL     1       1.891  14.456  18.541  0.00  0.00    +0.000 A 
ATOM     24  C   UNL     1       1.093  15.599  18.722  0.00  0.00    +0.000 A 
ATOM     25  C   UNL     1       1.573  16.861  18.357  0.00  0.00    +0.000 A 
ATOM     26  C   UNL     1       2.845  16.995  17.808  0.00  0.00    +0.000 A 
ATOM     27  C   UNL     1       3.644  15.870  17.631  0.00  0.00    +0.000 A 
ATOM     28  C   UNL     1       3.172  14.607  17.996  0.00  0.00    +0.000 A 
ENDBRANCH   6  23
TORSDOF 2
ENDMDL
MODEL 9
REMARK VINA RESULT:      -7.1      2.943      8.224
REMARK  Name = 
REMARK  2 active torsions:
REMARK  status: ('A' for Active; 'I' for Inactive)
REMARK    1  A    between atoms: N_6  and  C_7
REMARK    2  A    between atoms: N_19  and  C_20
REMARK                            x       y       z     vdW  Elec       q    Type
REMARK                         _______ _______ _______ _____ _____    ______ ____
ROOT
ATOM      1  O   UNL     1       0.745   9.775  23.176  0.00  0.00    +0.000 OA
ATOM      2  N   UNL     1       0.242   9.020  22.332  0.00  0.00    +0.000 N 
ATOM      3  O   UNL     1      -0.767   8.317  22.493  0.00  0.00    +0.000 OA
ATOM      4  C   UNL     1       0.849   9.010  21.025  0.00  0.00    +0.000 A 
ATOM      5  N   UNL     1       1.287   7.808  20.566  0.00  0.00    +0.000 NA
ATOM      6  N   UNL     1       1.883   8.162  19.373  0.00  0.00    +0.000 N 
ATOM      7  N   UNL     1       1.751   9.553  19.111  0.00  0.00    +0.000 N 
ATOM      8  O   UNL     1       2.100  10.065  18.009  0.00  0.00    +0.000 OA
ATOM      9  C   UNL     1       1.114  10.130  20.163  0.00  0.00    +0.000 A 
ATOM     10  N   UNL     1       0.823  11.466  20.261  0.00  0.00    +0.000 N 
ATOM     11  C   UNL     1       1.637  12.521  19.609  0.00  0.00    +0.000 C 
ATOM     12  C   UNL     1       0.844  13.250  18.508  0.00  0.00    +0.000 C 
ATOM     13  N   UNL     1      -0.472  13.719  18.990  0.00  0.00    +0.000 N 
ATOM     14  C   UNL     1      -1.277  12.700  19.694  0.00  0.00    +0.000 C 
ATOM     15  C   UNL     1      -0.463  11.964  20.790  0.00  0.00    +0.000 C 
ENDROOT
BRANCH  13  16
ATOM     16  C   UNL     1      -0.725  15.062  19.244  0.00  0.00    +0.000 A 
ATOM     17  C   UNL     1      -0.216  16.034  18.362  0.00  0.00    +0.000 A 
ATOM     18  C   UNL     1      -0.407  17.404  18.575  0.00  0.00    +0.000 A 
ATOM     19  C   UNL     1      -1.120  17.844  19.685  0.00  0.00    +0.000 A 
ATOM     20  C   UNL     1      -1.634  16.910  20.579  0.00  0.00    +0.000 A 
ATOM     21  C   UNL     1      -1.432  15.545  20.360  0.00  0.00    +0.000 A 
ATOM     22  F   UNL     1      -1.976  14.693  21.245  0.00  0.00    +0.000 F 
ENDBRANCH  13  16
BRANCH   6  23
ATOM     23  C   UNL     1       2.567   7.166  18.607  0.00  0.00    +0.000 A 
ATOM     24  C   UNL     1       2.132   5.830  18.661  0.00  0.00    +0.000 A 
ATOM     25  C   UNL     1       2.805   4.838  17.941  0.00  0.00    +0.000 A 
ATOM     26  C   UNL     1       3.915   5.166  17.166  0.00  0.00    +0.000 A 
ATOM     27  C   UNL     1       4.348   6.486  17.101  0.00  0.00    +0.000 A 
ATOM     28  C   UNL     1       3.678   7.483  17.816  0.00  0.00    +0.000 A 
ENDBRANCH   6  23
TORSDOF 2
ENDMDL
