MODEL 1
REMARK VINA RESULT:      -8.4      0.000      0.000
REMARK  Name = 
REMARK  7 active torsions:
REMARK  status: ('A' for Active; 'I' for Inactive)
REMARK    1  A    between atoms: C_1  and  C_2
REMARK    2  A    between atoms: C_8  and  C_9
REMARK    3  A    between atoms: C_9  and  N_10
REMARK    4  A    between atoms: C_12  and  C_13
REMARK    5  A    between atoms: C_13  and  O_15
REMARK    6  A    between atoms: C_17  and  C_18
REMARK    7  A    between atoms: N_20  and  C_21
REMARK                            x       y       z     vdW  Elec       q    Type
REMARK                         _______ _______ _______ _____ _____    ______ ____
ROOT
ATOM      1  N   UNL     1       1.748   7.719  19.357  0.00  0.00    +0.000 NA
ATOM      2  C   UNL     1       1.580   7.980  20.791  0.00  0.00    +0.000 C 
ATOM      3  C   UNL     1       0.740   9.205  21.176  0.00  0.00    +0.000 C 
ATOM      4  C   UNL     1       1.072  10.431  20.327  0.00  0.00    +0.000 C 
ATOM      5  C   UNL     1       1.196  10.134  18.833  0.00  0.00    +0.000 C 
ATOM      6  C   UNL     1       2.059   8.904  18.546  0.00  0.00    +0.000 C 
ENDROOT
BRANCH   5   7
ATOM      7  C   UNL     1      -0.131  10.090  18.081  0.00  0.00    +0.000 C 
ATOM      8  O   UNL     1      -0.404   9.116  17.383  0.00  0.00    +0.000 OA
ATOM      9  N   UNL     1      -0.915  11.212  18.248  0.00  0.00    +0.000 N 
ATOM     10  H   UNL     1      -0.527  11.949  18.832  0.00  0.00    +0.000 HD
BRANCH   9  11
ATOM     11  C   UNL     1      -2.256  11.384  17.852  0.00  0.00    +0.000 A 
ATOM     12  C   UNL     1      -2.724  11.127  16.559  0.00  0.00    +0.000 A 
ATOM     13  C   UNL     1      -4.085  11.244  16.263  0.00  0.00    +0.000 A 
ATOM     14  C   UNL     1      -4.974  11.633  17.256  0.00  0.00    +0.000 A 
ATOM     15  F   UNL     1      -6.278  11.736  16.973  0.00  0.00    +0.000 F 
ATOM     16  C   UNL     1      -4.527  11.907  18.542  0.00  0.00    +0.000 A 
ATOM     17  C   UNL     1      -3.168  11.777  18.841  0.00  0.00    +0.000 A 
ENDBRANCH   9  11
ENDBRANCH   5   7
BRANCH   3  18
ATOM     18  C   UNL     1       1.012   9.513  22.646  0.00  0.00    +0.000 C 
ATOM     19  O   UNL     1       0.176   9.899  23.450  0.00  0.00    +0.000 OA
BRANCH  18  20
ATOM     20  O   UNL     1       2.288   9.298  23.017  0.00  0.00    +0.000 OA
ATOM     21  H   UNL     1       2.840  10.105  23.104  0.00  0.00    +0.000 HD
ENDBRANCH  18  20
ENDBRANCH   3  18
BRANCH   1  22
ATOM     22  C   UNL     1       2.743   6.622  19.136  0.00  0.00    +0.000 C 
BRANCH  22  30
ATOM     23  C   UNL     1       3.651   4.456  17.082  0.00  0.00    +0.000 C 
ATOM     24  C   UNL     1       2.666   4.190  18.190  0.00  0.00    +0.000 A 
ATOM     25  C   UNL     1       2.137   2.889  18.284  0.00  0.00    +0.000 A 
ATOM     26  F   UNL     1       2.531   1.941  17.420  0.00  0.00    +0.000 F 
ATOM     27  C   UNL     1       1.217   2.532  19.262  0.00  0.00    +0.000 A 
ATOM     28  C   UNL     1       0.800   3.482  20.181  0.00  0.00    +0.000 A 
ATOM     29  C   UNL     1       1.315   4.780  20.117  0.00  0.00    +0.000 A 
ATOM     30  C   UNL     1       2.238   5.174  19.120  0.00  0.00    +0.000 A 
ENDBRANCH  22  30
ENDBRANCH   1  22
TORSDOF 6
ENDMDL
MODEL 2
REMARK VINA RESULT:      -8.4      0.794      1.285
REMARK  Name = 
REMARK  7 active torsions:
REMARK  status: ('A' for Active; 'I' for Inactive)
REMARK    1  A    between atoms: C_1  and  C_2
REMARK    2  A    between atoms: C_8  and  C_9
REMARK    3  A    between atoms: C_9  and  N_10
REMARK    4  A    between atoms: C_12  and  C_13
REMARK    5  A    between atoms: C_13  and  O_15
REMARK    6  A    between atoms: C_17  and  C_18
REMARK    7  A    between atoms: N_20  and  C_21
REMARK                            x       y       z     vdW  Elec       q    Type
REMARK                         _______ _______ _______ _____ _____    ______ ____
ROOT
ATOM      1  N   UNL     1       1.583   7.699  19.515  0.00  0.00    +0.000 NA
ATOM      2  C   UNL     1       1.444   7.976  20.949  0.00  0.00    +0.000 C 
ATOM      3  C   UNL     1       0.647   9.230  21.335  0.00  0.00    +0.000 C 
ATOM      4  C   UNL     1       1.004  10.439  20.472  0.00  0.00    +0.000 C 
ATOM      5  C   UNL     1       1.098  10.126  18.978  0.00  0.00    +0.000 C 
ATOM      6  C   UNL     1       1.919   8.867  18.689  0.00  0.00    +0.000 C 
ENDROOT
BRANCH   5   7
ATOM      7  C   UNL     1      -0.240  10.117  18.246  0.00  0.00    +0.000 C 
ATOM      8  O   UNL     1      -0.498   9.209  17.459  0.00  0.00    +0.000 OA
ATOM      9  N   UNL     1      -1.053  11.193  18.534  0.00  0.00    +0.000 N 
ATOM     10  H   UNL     1      -0.675  11.880  19.183  0.00  0.00    +0.000 HD
BRANCH   9  11
ATOM     11  C   UNL     1      -2.405  11.362  18.178  0.00  0.00    +0.000 A 
ATOM     12  C   UNL     1      -3.398  11.780  19.071  0.00  0.00    +0.000 A 
ATOM     13  C   UNL     1      -4.703  12.002  18.623  0.00  0.00    +0.000 A 
ATOM     14  C   UNL     1      -5.018  11.791  17.287  0.00  0.00    +0.000 A 
ATOM     15  F   UNL     1      -6.266  12.012  16.859  0.00  0.00    +0.000 F 
ATOM     16  C   UNL     1      -4.050  11.362  16.389  0.00  0.00    +0.000 A 
ATOM     17  C   UNL     1      -2.742  11.153  16.834  0.00  0.00    +0.000 A 
ENDBRANCH   9  11
ENDBRANCH   5   7
BRANCH   3  18
ATOM     18  C   UNL     1       0.949   9.541  22.799  0.00  0.00    +0.000 C 
ATOM     19  O   UNL     1       0.120   9.874  23.633  0.00  0.00    +0.000 OA
BRANCH  18  20
ATOM     20  O   UNL     1       2.246   9.393  23.127  0.00  0.00    +0.000 OA
ATOM     21  H   UNL     1       2.467   9.598  24.061  0.00  0.00    +0.000 HD
ENDBRANCH  18  20
ENDBRANCH   3  18
BRANCH   1  22
ATOM     22  C   UNL     1       2.541   6.571  19.289  0.00  0.00    +0.000 C 
BRANCH  22  30
ATOM     23  C   UNL     1       1.302   4.411  17.408  0.00  0.00    +0.000 C 
ATOM     24  C   UNL     1       1.575   4.181  18.871  0.00  0.00    +0.000 A 
ATOM     25  C   UNL     1       1.244   2.919  19.398  0.00  0.00    +0.000 A 
ATOM     26  F   UNL     1       0.727   1.973  18.600  0.00  0.00    +0.000 F 
ATOM     27  C   UNL     1       1.447   2.598  20.735  0.00  0.00    +0.000 A 
ATOM     28  C   UNL     1       1.993   3.546  21.585  0.00  0.00    +0.000 A 
ATOM     29  C   UNL     1       2.340   4.805  21.087  0.00  0.00    +0.000 A 
ATOM     30  C   UNL     1       2.126   5.163  19.736  0.00  0.00    +0.000 A 
ENDBRANCH  22  30
ENDBRANCH   1  22
TORSDOF 6
ENDMDL
MODEL 3
REMARK VINA RESULT:      -8.4      0.834      1.111
REMARK  Name = 
REMARK  7 active torsions:
REMARK  status: ('A' for Active; 'I' for Inactive)
REMARK    1  A    between atoms: C_1  and  C_2
REMARK    2  A    between atoms: C_8  and  C_9
REMARK    3  A    between atoms: C_9  and  N_10
REMARK    4  A    between atoms: C_12  and  C_13
REMARK    5  A    between atoms: C_13  and  O_15
REMARK    6  A    between atoms: C_17  and  C_18
REMARK    7  A    between atoms: N_20  and  C_21
REMARK                            x       y       z     vdW  Elec       q    Type
REMARK                         _______ _______ _______ _____ _____    ______ ____
ROOT
ATOM      1  N   UNL     1       1.596   7.622  19.578  0.00  0.00    +0.000 NA
ATOM      2  C   UNL     1       1.282   7.852  20.992  0.00  0.00    +0.000 C 
ATOM      3  C   UNL     1       0.435   9.090  21.318  0.00  0.00    +0.000 C 
ATOM      4  C   UNL     1       0.885  10.327  20.542  0.00  0.00    +0.000 C 
ATOM      5  C   UNL     1       1.161  10.062  19.063  0.00  0.00    +0.000 C 
ATOM      6  C   UNL     1       2.021   8.817  18.836  0.00  0.00    +0.000 C 
ENDROOT
BRANCH   5   7
ATOM      7  C   UNL     1      -0.078  10.072  18.173  0.00  0.00    +0.000 C 
ATOM      8  O   UNL     1      -0.247   9.172  17.353  0.00  0.00    +0.000 OA
ATOM      9  N   UNL     1      -0.911  11.153  18.370  0.00  0.00    +0.000 N 
ATOM     10  H   UNL     1      -0.608  11.832  19.066  0.00  0.00    +0.000 HD
BRANCH   9  11
ATOM     11  C   UNL     1      -2.208  11.338  17.854  0.00  0.00    +0.000 A 
ATOM     12  C   UNL     1      -2.559  11.084  16.523  0.00  0.00    +0.000 A 
ATOM     13  C   UNL     1      -3.886  11.215  16.104  0.00  0.00    +0.000 A 
ATOM     14  C   UNL     1      -4.857  11.616  17.012  0.00  0.00    +0.000 A 
ATOM     15  F   UNL     1      -6.128  11.733  16.611  0.00  0.00    +0.000 F 
ATOM     16  C   UNL     1      -4.526  11.888  18.332  0.00  0.00    +0.000 A 
ATOM     17  C   UNL     1      -3.202  11.744  18.755  0.00  0.00    +0.000 A 
ENDBRANCH   9  11
ENDBRANCH   5   7
BRANCH   3  18
ATOM     18  C   UNL     1       0.556   9.355  22.817  0.00  0.00    +0.000 C 
ATOM     19  O   UNL     1       1.608   9.489  23.425  0.00  0.00    +0.000 OA
BRANCH  18  20
ATOM     20  O   UNL     1      -0.630   9.457  23.446  0.00  0.00    +0.000 OA
ATOM     21  H   UNL     1      -0.707  10.209  24.072  0.00  0.00    +0.000 HD
ENDBRANCH  18  20
ENDBRANCH   3  18
BRANCH   1  22
ATOM     22  C   UNL     1       2.582   6.504  19.434  0.00  0.00    +0.000 C 
BRANCH  22  30
ATOM     23  C   UNL     1       1.343   4.424  17.467  0.00  0.00    +0.000 C 
ATOM     24  C   UNL     1       1.592   4.144  18.926  0.00  0.00    +0.000 A 
ATOM     25  C   UNL     1       1.236   2.869  19.407  0.00  0.00    +0.000 A 
ATOM     26  F   UNL     1       0.718   1.957  18.571  0.00  0.00    +0.000 F 
ATOM     27  C   UNL     1       1.414   2.503  20.735  0.00  0.00    +0.000 A 
ATOM     28  C   UNL     1       1.961   3.415  21.624  0.00  0.00    +0.000 A 
ATOM     29  C   UNL     1       2.331   4.685  21.172  0.00  0.00    +0.000 A 
ATOM     30  C   UNL     1       2.143   5.089  19.829  0.00  0.00    +0.000 A 
ENDBRANCH  22  30
ENDBRANCH   1  22
TORSDOF 6
ENDMDL
MODEL 4
REMARK VINA RESULT:      -8.1      0.861      1.408
REMARK  Name = 
REMARK  7 active torsions:
REMARK  status: ('A' for Active; 'I' for Inactive)
REMARK    1  A    between atoms: C_1  and  C_2
REMARK    2  A    between atoms: C_8  and  C_9
REMARK    3  A    between atoms: C_9  and  N_10
REMARK    4  A    between atoms: C_12  and  C_13
REMARK    5  A    between atoms: C_13  and  O_15
REMARK    6  A    between atoms: C_17  and  C_18
REMARK    7  A    between atoms: N_20  and  C_21
REMARK                            x       y       z     vdW  Elec       q    Type
REMARK                         _______ _______ _______ _____ _____    ______ ____
ROOT
ATOM      1  N   UNL     1       1.733   7.778  19.412  0.00  0.00    +0.000 NA
ATOM      2  C   UNL     1       1.549   8.034  20.844  0.00  0.00    +0.000 C 
ATOM      3  C   UNL     1       0.695   9.252  21.224  0.00  0.00    +0.000 C 
ATOM      4  C   UNL     1       1.025  10.482  20.381  0.00  0.00    +0.000 C 
ATOM      5  C   UNL     1       1.167  10.190  18.887  0.00  0.00    +0.000 C 
ATOM      6  C   UNL     1       2.043   8.967  18.606  0.00  0.00    +0.000 C 
ENDROOT
BRANCH   5   7
ATOM      7  C   UNL     1      -0.152  10.137  18.123  0.00  0.00    +0.000 C 
ATOM      8  O   UNL     1      -0.408   9.165  17.415  0.00  0.00    +0.000 OA
ATOM      9  N   UNL     1      -0.951  11.248  18.290  0.00  0.00    +0.000 N 
ATOM     10  H   UNL     1      -0.577  11.985  18.884  0.00  0.00    +0.000 HD
BRANCH   9  11
ATOM     11  C   UNL     1      -2.290  11.407  17.883  0.00  0.00    +0.000 A 
ATOM     12  C   UNL     1      -2.744  11.149  16.585  0.00  0.00    +0.000 A 
ATOM     13  C   UNL     1      -4.103  11.253  16.278  0.00  0.00    +0.000 A 
ATOM     14  C   UNL     1      -5.005  11.632  17.264  0.00  0.00    +0.000 A 
ATOM     15  F   UNL     1      -6.307  11.723  16.969  0.00  0.00    +0.000 F 
ATOM     16  C   UNL     1      -4.572  11.908  18.553  0.00  0.00    +0.000 A 
ATOM     17  C   UNL     1      -3.214  11.790  18.865  0.00  0.00    +0.000 A 
ENDBRANCH   9  11
ENDBRANCH   5   7
BRANCH   3  18
ATOM     18  C   UNL     1       0.951   9.558  22.697  0.00  0.00    +0.000 C 
ATOM     19  O   UNL     1       0.103   9.932  23.495  0.00  0.00    +0.000 OA
BRANCH  18  20
ATOM     20  O   UNL     1       2.225   9.357  23.079  0.00  0.00    +0.000 OA
ATOM     21  H   UNL     1       2.399   8.495  23.517  0.00  0.00    +0.000 HD
ENDBRANCH  18  20
ENDBRANCH   3  18
BRANCH   1  22
ATOM     22  C   UNL     1       2.739   6.690  19.197  0.00  0.00    +0.000 C 
BRANCH  22  30
ATOM     23  C   UNL     1       2.334   4.646  21.520  0.00  0.00    +0.000 C 
ATOM     24  C   UNL     1       2.037   4.334  20.077  0.00  0.00    +0.000 A 
ATOM     25  C   UNL     1       1.554   3.045  19.782  0.00  0.00    +0.000 A 
ATOM     26  F   UNL     1       1.358   2.160  20.771  0.00  0.00    +0.000 F 
ATOM     27  C   UNL     1       1.252   2.646  18.486  0.00  0.00    +0.000 A 
ATOM     28  C   UNL     1       1.429   3.539  17.442  0.00  0.00    +0.000 A 
ATOM     29  C   UNL     1       1.898   4.829  17.706  0.00  0.00    +0.000 A 
ATOM     30  C   UNL     1       2.231   5.254  19.014  0.00  0.00    +0.000 A 
ENDBRANCH  22  30
ENDBRANCH   1  22
TORSDOF 6
ENDMDL
MODEL 5
REMARK VINA RESULT:      -7.9      3.595      5.949
REMARK  Name = 
REMARK  7 active torsions:
REMARK  status: ('A' for Active; 'I' for Inactive)
REMARK    1  A    between atoms: C_1  and  C_2
REMARK    2  A    between atoms: C_8  and  C_9
REMARK    3  A    between atoms: C_9  and  N_10
REMARK    4  A    between atoms: C_12  and  C_13
REMARK    5  A    between atoms: C_13  and  O_15
REMARK    6  A    between atoms: C_17  and  C_18
REMARK    7  A    between atoms: N_20  and  C_21
REMARK                            x       y       z     vdW  Elec       q    Type
REMARK                         _______ _______ _______ _____ _____    ______ ____
ROOT
ATOM      1  N   UNL     1       3.136   6.370  18.051  0.00  0.00    +0.000 NA
ATOM      2  C   UNL     1       2.777   5.014  17.623  0.00  0.00    +0.000 C 
ATOM      3  C   UNL     1       1.831   4.228  18.542  0.00  0.00    +0.000 C 
ATOM      4  C   UNL     1       2.201   4.367  20.018  0.00  0.00    +0.000 C 
ATOM      5  C   UNL     1       2.528   5.799  20.441  0.00  0.00    +0.000 C 
ATOM      6  C   UNL     1       3.484   6.498  19.472  0.00  0.00    +0.000 C 
ENDROOT
BRANCH   5   7
ATOM      7  C   UNL     1       1.310   6.660  20.763  0.00  0.00    +0.000 C 
ATOM      8  O   UNL     1       0.196   6.144  20.815  0.00  0.00    +0.000 OA
ATOM      9  N   UNL     1       1.592   7.997  20.947  0.00  0.00    +0.000 N 
ATOM     10  H   UNL     1       2.566   8.270  20.834  0.00  0.00    +0.000 HD
BRANCH   9  11
ATOM     11  C   UNL     1       0.728   8.993  21.443  0.00  0.00    +0.000 A 
ATOM     12  C   UNL     1       0.201   8.988  22.739  0.00  0.00    +0.000 A 
ATOM     13  C   UNL     1      -0.587  10.053  23.186  0.00  0.00    +0.000 A 
ATOM     14  C   UNL     1      -0.860  11.113  22.330  0.00  0.00    +0.000 A 
ATOM     15  F   UNL     1      -1.607  12.135  22.763  0.00  0.00    +0.000 F 
ATOM     16  C   UNL     1      -0.358  11.128  21.036  0.00  0.00    +0.000 A 
ATOM     17  C   UNL     1       0.440  10.069  20.594  0.00  0.00    +0.000 A 
ENDBRANCH   9  11
ENDBRANCH   5   7
BRANCH   3  18
ATOM     18  C   UNL     1       1.900   2.758  18.134  0.00  0.00    +0.000 C 
ATOM     19  O   UNL     1       2.872   2.212  17.634  0.00  0.00    +0.000 OA
BRANCH  18  20
ATOM     20  O   UNL     1       0.773   2.071  18.396  0.00  0.00    +0.000 OA
ATOM     21  H   UNL     1       0.731   1.172  18.004  0.00  0.00    +0.000 HD
ENDBRANCH  18  20
ENDBRANCH   3  18
BRANCH   1  22
ATOM     22  C   UNL     1       4.208   6.932  17.169  0.00  0.00    +0.000 C 
BRANCH  22  30
ATOM     23  C   UNL     1       6.563   5.778  18.859  0.00  0.00    +0.000 C 
ATOM     24  C   UNL     1       6.342   5.448  17.406  0.00  0.00    +0.000 A 
ATOM     25  C   UNL     1       7.261   4.572  16.798  0.00  0.00    +0.000 A 
ATOM     26  F   UNL     1       8.269   4.053  17.515  0.00  0.00    +0.000 F 
ATOM     27  C   UNL     1       7.159   4.202  15.463  0.00  0.00    +0.000 A 
ATOM     28  C   UNL     1       6.121   4.707  14.696  0.00  0.00    +0.000 A 
ATOM     29  C   UNL     1       5.189   5.572  15.276  0.00  0.00    +0.000 A 
ATOM     30  C   UNL     1       5.281   5.979  16.628  0.00  0.00    +0.000 A 
ENDBRANCH  22  30
ENDBRANCH   1  22
TORSDOF 6
ENDMDL
MODEL 6
REMARK VINA RESULT:      -7.8      3.679      5.728
REMARK  Name = 
REMARK  7 active torsions:
REMARK  status: ('A' for Active; 'I' for Inactive)
REMARK    1  A    between atoms: C_1  and  C_2
REMARK    2  A    between atoms: C_8  and  C_9
REMARK    3  A    between atoms: C_9  and  N_10
REMARK    4  A    between atoms: C_12  and  C_13
REMARK    5  A    between atoms: C_13  and  O_15
REMARK    6  A    between atoms: C_17  and  C_18
REMARK    7  A    between atoms: N_20  and  C_21
REMARK                            x       y       z     vdW  Elec       q    Type
REMARK                         _______ _______ _______ _____ _____    ______ ____
ROOT
ATOM      1  N   UNL     1       3.101   5.807  18.156  0.00  0.00    +0.000 NA
ATOM      2  C   UNL     1       2.263   4.606  18.226  0.00  0.00    +0.000 C 
ATOM      3  C   UNL     1       1.156   4.598  19.289  0.00  0.00    +0.000 C 
ATOM      4  C   UNL     1       1.636   5.135  20.637  0.00  0.00    +0.000 C 
ATOM      5  C   UNL     1       2.470   6.411  20.532  0.00  0.00    +0.000 C 
ATOM      6  C   UNL     1       3.554   6.322  19.455  0.00  0.00    +0.000 C 
ENDROOT
BRANCH   5   7
ATOM      7  C   UNL     1       1.655   7.695  20.419  0.00  0.00    +0.000 C 
ATOM      8  O   UNL     1       1.181   8.022  19.333  0.00  0.00    +0.000 OA
ATOM      9  N   UNL     1       1.548   8.407  21.595  0.00  0.00    +0.000 N 
ATOM     10  H   UNL     1       2.031   8.016  22.401  0.00  0.00    +0.000 HD
BRANCH   9  11
ATOM     11  C   UNL     1       0.710   9.508  21.855  0.00  0.00    +0.000 A 
ATOM     12  C   UNL     1       0.681  10.666  21.069  0.00  0.00    +0.000 A 
ATOM     13  C   UNL     1      -0.236  11.684  21.344  0.00  0.00    +0.000 A 
ATOM     14  C   UNL     1      -1.112  11.551  22.413  0.00  0.00    +0.000 A 
ATOM     15  F   UNL     1      -1.995  12.524  22.669  0.00  0.00    +0.000 F 
ATOM     16  C   UNL     1      -1.088  10.417  23.214  0.00  0.00    +0.000 A 
ATOM     17  C   UNL     1      -0.180   9.393  22.931  0.00  0.00    +0.000 A 
ENDBRANCH   9  11
ENDBRANCH   5   7
BRANCH   3  18
ATOM     18  C   UNL     1       0.678   3.157  19.454  0.00  0.00    +0.000 C 
ATOM     19  O   UNL     1       0.331   2.423  18.540  0.00  0.00    +0.000 OA
BRANCH  18  20
ATOM     20  O   UNL     1       0.689   2.726  20.729  0.00  0.00    +0.000 OA
ATOM     21  H   UNL     1       0.021   2.039  20.943  0.00  0.00    +0.000 HD
ENDBRANCH  18  20
ENDBRANCH   3  18
BRANCH   1  22
ATOM     22  C   UNL     1       4.249   5.592  17.218  0.00  0.00    +0.000 C 
BRANCH  22  30
ATOM     23  C   UNL     1       6.106   4.104  19.236  0.00  0.00    +0.000 C 
ATOM     24  C   UNL     1       6.483   5.392  18.553  0.00  0.00    +0.000 A 
ATOM     25  C   UNL     1       7.745   5.937  18.857  0.00  0.00    +0.000 A 
ATOM     26  F   UNL     1       8.563   5.301  19.710  0.00  0.00    +0.000 F 
ATOM     27  C   UNL     1       8.195   7.123  18.291  0.00  0.00    +0.000 A 
ATOM     28  C   UNL     1       7.382   7.799  17.395  0.00  0.00    +0.000 A 
ATOM     29  C   UNL     1       6.129   7.277  17.068  0.00  0.00    +0.000 A 
ATOM     30  C   UNL     1       5.639   6.081  17.644  0.00  0.00    +0.000 A 
ENDBRANCH  22  30
ENDBRANCH   1  22
TORSDOF 6
ENDMDL
MODEL 7
REMARK VINA RESULT:      -7.7      3.484      5.346
REMARK  Name = 
REMARK  7 active torsions:
REMARK  status: ('A' for Active; 'I' for Inactive)
REMARK    1  A    between atoms: C_1  and  C_2
REMARK    2  A    between atoms: C_8  and  C_9
REMARK    3  A    between atoms: C_9  and  N_10
REMARK    4  A    between atoms: C_12  and  C_13
REMARK    5  A    between atoms: C_13  and  O_15
REMARK    6  A    between atoms: C_17  and  C_18
REMARK    7  A    between atoms: N_20  and  C_21
REMARK                            x       y       z     vdW  Elec       q    Type
REMARK                         _______ _______ _______ _____ _____    ______ ____
ROOT
ATOM      1  N   UNL     1       3.015   6.010  18.087  0.00  0.00    +0.000 NA
ATOM      2  C   UNL     1       2.338   4.717  18.234  0.00  0.00    +0.000 C 
ATOM      3  C   UNL     1       1.271   4.619  19.333  0.00  0.00    +0.000 C 
ATOM      4  C   UNL     1       1.716   5.272  20.641  0.00  0.00    +0.000 C 
ATOM      5  C   UNL     1       2.378   6.637  20.456  0.00  0.00    +0.000 C 
ATOM      6  C   UNL     1       3.434   6.636  19.349  0.00  0.00    +0.000 C 
ENDROOT
BRANCH   5   7
ATOM      7  C   UNL     1       1.404   7.802  20.317  0.00  0.00    +0.000 C 
ATOM      8  O   UNL     1       0.533   7.973  21.167  0.00  0.00    +0.000 OA
ATOM      9  N   UNL     1       1.591   8.566  19.184  0.00  0.00    +0.000 N 
ATOM     10  H   UNL     1       2.337   8.269  18.560  0.00  0.00    +0.000 HD
BRANCH   9  11
ATOM     11  C   UNL     1       0.992   9.804  18.880  0.00  0.00    +0.000 A 
ATOM     12  C   UNL     1      -0.385   9.980  18.707  0.00  0.00    +0.000 A 
ATOM     13  C   UNL     1      -0.914  11.255  18.486  0.00  0.00    +0.000 A 
ATOM     14  C   UNL     1      -0.063  12.351  18.421  0.00  0.00    +0.000 A 
ATOM     15  F   UNL     1      -0.571  13.571  18.218  0.00  0.00    +0.000 F 
ATOM     16  C   UNL     1       1.308  12.194  18.576  0.00  0.00    +0.000 A 
ATOM     17  C   UNL     1       1.835  10.921  18.810  0.00  0.00    +0.000 A 
ENDBRANCH   9  11
ENDBRANCH   5   7
BRANCH   3  18
ATOM     18  C   UNL     1       0.985   3.138  19.573  0.00  0.00    +0.000 C 
ATOM     19  O   UNL     1       0.275   2.436  18.867  0.00  0.00    +0.000 OA
BRANCH  18  20
ATOM     20  O   UNL     1       1.614   2.633  20.649  0.00  0.00    +0.000 OA
ATOM     21  H   UNL     1       1.025   2.313  21.366  0.00  0.00    +0.000 HD
ENDBRANCH  18  20
ENDBRANCH   3  18
BRANCH   1  22
ATOM     22  C   UNL     1       4.155   5.899  17.122  0.00  0.00    +0.000 C 
BRANCH  22  30
ATOM     23  C   UNL     1       5.888   4.206  19.087  0.00  0.00    +0.000 C 
ATOM     24  C   UNL     1       6.345   5.509  18.487  0.00  0.00    +0.000 A 
ATOM     25  C   UNL     1       7.626   5.970  18.848  0.00  0.00    +0.000 A 
ATOM     26  F   UNL     1       8.391   5.246  19.678  0.00  0.00    +0.000 F 
ATOM     27  C   UNL     1       8.148   7.162  18.360  0.00  0.00    +0.000 A 
ATOM     28  C   UNL     1       7.391   7.928  17.488  0.00  0.00    +0.000 A 
ATOM     29  C   UNL     1       6.120   7.490  17.106  0.00  0.00    +0.000 A 
ATOM     30  C   UNL     1       5.558   6.291  17.603  0.00  0.00    +0.000 A 
ENDBRANCH  22  30
ENDBRANCH   1  22
TORSDOF 6
ENDMDL
MODEL 8
REMARK VINA RESULT:      -7.7      3.491      5.280
REMARK  Name = 
REMARK  7 active torsions:
REMARK  status: ('A' for Active; 'I' for Inactive)
REMARK    1  A    between atoms: C_1  and  C_2
REMARK    2  A    between atoms: C_8  and  C_9
REMARK    3  A    between atoms: C_9  and  N_10
REMARK    4  A    between atoms: C_12  and  C_13
REMARK    5  A    between atoms: C_13  and  O_15
REMARK    6  A    between atoms: C_17  and  C_18
REMARK    7  A    between atoms: N_20  and  C_21
REMARK                            x       y       z     vdW  Elec       q    Type
REMARK                         _______ _______ _______ _____ _____    ______ ____
ROOT
ATOM      1  N   UNL     1       4.466   5.546  18.872  0.00  0.00    +0.000 NA
ATOM      2  C   UNL     1       5.811   5.884  18.395  0.00  0.00    +0.000 C 
ATOM      3  C   UNL     1       5.952   7.187  17.595  0.00  0.00    +0.000 C 
ATOM      4  C   UNL     1       4.834   7.366  16.569  0.00  0.00    +0.000 C 
ATOM      5  C   UNL     1       3.440   7.048  17.110  0.00  0.00    +0.000 C 
ATOM      6  C   UNL     1       3.395   5.728  17.883  0.00  0.00    +0.000 C 
ENDROOT
BRANCH   5   7
ATOM      7  C   UNL     1       2.784   8.187  17.884  0.00  0.00    +0.000 C 
ATOM      8  O   UNL     1       2.762   9.317  17.403  0.00  0.00    +0.000 OA
ATOM      9  N   UNL     1       2.280   7.821  19.115  0.00  0.00    +0.000 N 
ATOM     10  H   UNL     1       2.411   6.848  19.383  0.00  0.00    +0.000 HD
BRANCH   9  11
ATOM     11  C   UNL     1       1.455   8.586  19.963  0.00  0.00    +0.000 A 
ATOM     12  C   UNL     1       0.691   9.675  19.528  0.00  0.00    +0.000 A 
ATOM     13  C   UNL     1      -0.165  10.336  20.412  0.00  0.00    +0.000 A 
ATOM     14  C   UNL     1      -0.244   9.919  21.735  0.00  0.00    +0.000 A 
ATOM     15  F   UNL     1      -1.071  10.548  22.578  0.00  0.00    +0.000 F 
ATOM     16  C   UNL     1       0.517   8.850  22.188  0.00  0.00    +0.000 A 
ATOM     17  C   UNL     1       1.363   8.180  21.301  0.00  0.00    +0.000 A 
ENDBRANCH   9  11
ENDBRANCH   5   7
BRANCH   3  18
ATOM     18  C   UNL     1       7.300   7.150  16.880  0.00  0.00    +0.000 C 
ATOM     19  O   UNL     1       7.650   6.293  16.082  0.00  0.00    +0.000 OA
BRANCH  18  20
ATOM     20  O   UNL     1       8.103   8.187  17.186  0.00  0.00    +0.000 OA
ATOM     21  H   UNL     1       8.719   8.462  16.473  0.00  0.00    +0.000 HD
ENDBRANCH  18  20
ENDBRANCH   3  18
BRANCH   1  22
ATOM     22  C   UNL     1       4.448   4.168  19.458  0.00  0.00    +0.000 C 
BRANCH  22  30
ATOM     23  C   UNL     1       2.680   2.491  17.509  0.00  0.00    +0.000 C 
ATOM     24  C   UNL     1       2.300   2.778  18.937  0.00  0.00    +0.000 A 
ATOM     25  C   UNL     1       1.077   2.254  19.397  0.00  0.00    +0.000 A 
ATOM     26  F   UNL     1       0.313   1.516  18.577  0.00  0.00    +0.000 F 
ATOM     27  C   UNL     1       0.623   2.460  20.693  0.00  0.00    +0.000 A 
ATOM     28  C   UNL     1       1.394   3.205  21.572  0.00  0.00    +0.000 A 
ATOM     29  C   UNL     1       2.617   3.730  21.146  0.00  0.00    +0.000 A 
ATOM     30  C   UNL     1       3.092   3.551  19.826  0.00  0.00    +0.000 A 
ENDBRANCH  22  30
ENDBRANCH   1  22
TORSDOF 6
ENDMDL
MODEL 9
REMARK VINA RESULT:      -7.7      3.387      5.276
REMARK  Name = 
REMARK  7 active torsions:
REMARK  status: ('A' for Active; 'I' for Inactive)
REMARK    1  A    between atoms: C_1  and  C_2
REMARK    2  A    between atoms: C_8  and  C_9
REMARK    3  A    between atoms: C_9  and  N_10
REMARK    4  A    between atoms: C_12  and  C_13
REMARK    5  A    between atoms: C_13  and  O_15
REMARK    6  A    between atoms: C_17  and  C_18
REMARK    7  A    between atoms: N_20  and  C_21
REMARK                            x       y       z     vdW  Elec       q    Type
REMARK                         _______ _______ _______ _____ _____    ______ ____
ROOT
ATOM      1  N   UNL     1       2.824   5.927  18.242  0.00  0.00    +0.000 NA
ATOM      2  C   UNL     1       2.192   4.621  18.455  0.00  0.00    +0.000 C 
ATOM      3  C   UNL     1       1.189   4.522  19.614  0.00  0.00    +0.000 C 
ATOM      4  C   UNL     1       1.688   5.218  20.879  0.00  0.00    +0.000 C 
ATOM      5  C   UNL     1       2.302   6.595  20.627  0.00  0.00    +0.000 C 
ATOM      6  C   UNL     1       3.295   6.594  19.463  0.00  0.00    +0.000 C 
ENDROOT
BRANCH   5   7
ATOM      7  C   UNL     1       1.290   7.731  20.515  0.00  0.00    +0.000 C 
ATOM      8  O   UNL     1       0.361   7.800  21.317  0.00  0.00    +0.000 OA
ATOM      9  N   UNL     1       1.515   8.591  19.461  0.00  0.00    +0.000 N 
ATOM     10  H   UNL     1       2.311   8.372  18.866  0.00  0.00    +0.000 HD
BRANCH   9  11
ATOM     11  C   UNL     1       0.885   9.826  19.216  0.00  0.00    +0.000 A 
ATOM     12  C   UNL     1       1.349  11.048  19.716  0.00  0.00    +0.000 A 
ATOM     13  C   UNL     1       0.715  12.243  19.364  0.00  0.00    +0.000 A 
ATOM     14  C   UNL     1      -0.392  12.213  18.525  0.00  0.00    +0.000 A 
ATOM     15  F   UNL     1      -0.992  13.359  18.183  0.00  0.00    +0.000 F 
ATOM     16  C   UNL     1      -0.876  11.010  18.032  0.00  0.00    +0.000 A 
ATOM     17  C   UNL     1      -0.234   9.816  18.373  0.00  0.00    +0.000 A 
ENDBRANCH   9  11
ENDBRANCH   5   7
BRANCH   3  18
ATOM     18  C   UNL     1       0.957   3.041  19.903  0.00  0.00    +0.000 C 
ATOM     19  O   UNL     1       1.274   2.468  20.935  0.00  0.00    +0.000 OA
BRANCH  18  20
ATOM     20  O   UNL     1       0.330   2.387  18.907  0.00  0.00    +0.000 OA
ATOM     21  H   UNL     1       0.922   1.970  18.244  0.00  0.00    +0.000 HD
ENDBRANCH  18  20
ENDBRANCH   3  18
BRANCH   1  22
ATOM     22  C   UNL     1       3.912   5.822  17.217  0.00  0.00    +0.000 C 
BRANCH  22  30
ATOM     23  C   UNL     1       5.700   4.136  19.139  0.00  0.00    +0.000 C 
ATOM     24  C   UNL     1       6.152   5.420  18.495  0.00  0.00    +0.000 A 
ATOM     25  C   UNL     1       7.454   5.865  18.791  0.00  0.00    +0.000 A 
ATOM     26  F   UNL     1       8.242   5.143  19.602  0.00  0.00    +0.000 F 
ATOM     27  C   UNL     1       7.975   7.038  18.258  0.00  0.00    +0.000 A 
ATOM     28  C   UNL     1       7.193   7.801  17.405  0.00  0.00    +0.000 A 
ATOM     29  C   UNL     1       5.900   7.378  17.086  0.00  0.00    +0.000 A 
ATOM     30  C   UNL     1       5.340   6.199  17.630  0.00  0.00    +0.000 A 
ENDBRANCH  22  30
ENDBRANCH   1  22
TORSDOF 6
ENDMDL
