MODEL 1
REMARK VINA RESULT:      -9.3      0.000      0.000
REMARK  Name = 
REMARK  5 active torsions:
REMARK  status: ('A' for Active; 'I' for Inactive)
REMARK    1  A    between atoms: C_1  and  N_2
REMARK    2  A    between atoms: C_3  and  C_5
REMARK    3  A    between atoms: C_8  and  C_9
REMARK    4  A    between atoms: C_14  and  O_15
REMARK    5  A    between atoms: O_15  and  C_16
REMARK                            x       y       z     vdW  Elec       q    Type
REMARK                         _______ _______ _______ _____ _____    ______ ____
ROOT
ATOM      1  C   UNL     1       3.414   3.715  19.465  0.00  0.00    +0.000 A 
ATOM      2  N   UNL     1       3.697   2.720  20.363  0.00  0.00    +0.000 NA
ATOM      3  C   UNL     1       2.797   2.485  21.338  0.00  0.00    +0.000 A 
ATOM      4  C   UNL     1       1.625   3.200  21.434  0.00  0.00    +0.000 A 
ATOM      5  N   UNL     1       1.307   4.186  20.562  0.00  0.00    +0.000 NA
ATOM      6  C   UNL     1       2.219   4.445  19.587  0.00  0.00    +0.000 A 
ENDROOT
BRANCH   1  10
ATOM      7  C   UNL     1       6.120   4.389  16.150  0.00  0.00    +0.000 A 
ATOM      8  C   UNL     1       6.479   4.797  17.441  0.00  0.00    +0.000 A 
ATOM      9  C   UNL     1       5.640   4.521  18.543  0.00  0.00    +0.000 A 
ATOM     10  C   UNL     1       4.428   3.830  18.388  0.00  0.00    +0.000 A 
ATOM     11  C   UNL     1       4.134   3.350  17.094  0.00  0.00    +0.000 A 
ATOM     12  C   UNL     1       4.962   3.621  15.996  0.00  0.00    +0.000 A 
BRANCH   7  15
ATOM     13  C   UNL     1       7.213   4.440  12.491  0.00  0.00    +0.000 C 
ATOM     14  N   UNL     1       6.508   4.174  13.722  0.00  0.00    +0.000 N 
ATOM     15  C   UNL     1       6.861   4.787  14.907  0.00  0.00    +0.000 C 
ATOM     16  O   UNL     1       7.778   5.600  14.978  0.00  0.00    +0.000 OA
ATOM     17  H   UNL     1       5.730   3.536  13.676  0.00  0.00    +0.000 HD
ENDBRANCH   7  15
ENDBRANCH   1  10
BRANCH   6  18
ATOM     18  O   UNL     1       1.978   5.548  18.787  0.00  0.00    +0.000 OA
BRANCH  18  19
ATOM     19  C   UNL     1       2.446   6.837  19.272  0.00  0.00    +0.000 C 
ATOM     20  C   UNL     1       1.943   8.146  18.637  0.00  0.00    +0.000 C 
ATOM     21  N   UNL     1       1.682   8.644  19.953  0.00  0.00    +0.000 N 
ATOM     22  C   UNL     1       0.893   9.764  20.299  0.00  0.00    +0.000 A 
ATOM     23  C   UNL     1       0.856  10.834  19.405  0.00  0.00    +0.000 A 
ATOM     24  C   UNL     1       0.188  12.004  19.743  0.00  0.00    +0.000 A 
ATOM     25  C   UNL     1      -0.494  12.077  20.952  0.00  0.00    +0.000 A 
ATOM     26  C   UNL     1      -1.189  13.247  21.306  0.00  0.00    +0.000 A 
ATOM     27  C   UNL     1      -1.962  13.279  22.461  0.00  0.00    +0.000 A 
ATOM     28  C   UNL     1      -2.025  12.150  23.260  0.00  0.00    +0.000 A 
ATOM     29  C   UNL     1      -1.276  11.005  22.933  0.00  0.00    +0.000 A 
ATOM     30  C   UNL     1      -0.487  10.937  21.779  0.00  0.00    +0.000 A 
ATOM     31  N   UNL     1       0.223   9.818  21.476  0.00  0.00    +0.000 NA
ATOM     32  C   UNL     1       1.769   7.361  20.570  0.00  0.00    +0.000 C 
ENDBRANCH  18  19
ENDBRANCH   6  18
TORSDOF 4
ENDMDL
MODEL 2
REMARK VINA RESULT:      -9.2      1.484      2.360
REMARK  Name = 
REMARK  5 active torsions:
REMARK  status: ('A' for Active; 'I' for Inactive)
REMARK    1  A    between atoms: C_1  and  N_2
REMARK    2  A    between atoms: C_3  and  C_5
REMARK    3  A    between atoms: C_8  and  C_9
REMARK    4  A    between atoms: C_14  and  O_15
REMARK    5  A    between atoms: O_15  and  C_16
REMARK                            x       y       z     vdW  Elec       q    Type
REMARK                         _______ _______ _______ _____ _____    ______ ____
ROOT
ATOM      1  C   UNL     1       3.817   3.953  19.514  0.00  0.00    +0.000 A 
ATOM      2  N   UNL     1       3.714   2.729  20.122  0.00  0.00    +0.000 NA
ATOM      3  C   UNL     1       2.874   2.622  21.170  0.00  0.00    +0.000 A 
ATOM      4  C   UNL     1       2.129   3.689  21.618  0.00  0.00    +0.000 A 
ATOM      5  N   UNL     1       2.198   4.912  21.040  0.00  0.00    +0.000 NA
ATOM      6  C   UNL     1       3.060   5.035  19.994  0.00  0.00    +0.000 A 
ENDROOT
BRANCH   1  10
ATOM      7  C   UNL     1       6.172   4.275  15.893  0.00  0.00    +0.000 A 
ATOM      8  C   UNL     1       6.734   4.626  17.127  0.00  0.00    +0.000 A 
ATOM      9  C   UNL     1       6.004   4.460  18.325  0.00  0.00    +0.000 A 
ATOM     10  C   UNL     1       4.701   3.937  18.323  0.00  0.00    +0.000 A 
ATOM     11  C   UNL     1       4.194   3.505  17.079  0.00  0.00    +0.000 A 
ATOM     12  C   UNL     1       4.913   3.668  15.887  0.00  0.00    +0.000 A 
BRANCH   7  15
ATOM     13  C   UNL     1       7.044   3.971  12.187  0.00  0.00    +0.000 C 
ATOM     14  N   UNL     1       6.435   3.802  13.485  0.00  0.00    +0.000 N 
ATOM     15  C   UNL     1       6.806   4.575  14.566  0.00  0.00    +0.000 C 
ATOM     16  O   UNL     1       7.657   5.456  14.482  0.00  0.00    +0.000 OA
ATOM     17  H   UNL     1       5.709   3.108  13.564  0.00  0.00    +0.000 HD
ENDBRANCH   7  15
ENDBRANCH   1  10
BRANCH   6  18
ATOM     18  O   UNL     1       3.253   6.312  19.496  0.00  0.00    +0.000 OA
BRANCH  18  19
ATOM     19  C   UNL     1       2.067   7.111  19.233  0.00  0.00    +0.000 C 
ATOM     20  C   UNL     1       1.498   8.052  20.309  0.00  0.00    +0.000 C 
ATOM     21  N   UNL     1       1.437   9.088  19.325  0.00  0.00    +0.000 N 
ATOM     22  C   UNL     1       1.273  10.473  19.554  0.00  0.00    +0.000 A 
ATOM     23  C   UNL     1       0.509  10.863  20.654  0.00  0.00    +0.000 A 
ATOM     24  C   UNL     1       0.221  12.206  20.864  0.00  0.00    +0.000 A 
ATOM     25  C   UNL     1       0.751  13.161  20.004  0.00  0.00    +0.000 A 
ATOM     26  C   UNL     1       0.484  14.526  20.208  0.00  0.00    +0.000 A 
ATOM     27  C   UNL     1       1.104  15.486  19.417  0.00  0.00    +0.000 A 
ATOM     28  C   UNL     1       1.974  15.077  18.421  0.00  0.00    +0.000 A 
ATOM     29  C   UNL     1       2.187  13.707  18.181  0.00  0.00    +0.000 A 
ATOM     30  C   UNL     1       1.580  12.713  18.958  0.00  0.00    +0.000 A 
ATOM     31  N   UNL     1       1.805  11.395  18.715  0.00  0.00    +0.000 NA
ATOM     32  C   UNL     1       2.291   8.409  18.405  0.00  0.00    +0.000 C 
ENDBRANCH  18  19
ENDBRANCH   6  18
TORSDOF 4
ENDMDL
MODEL 3
REMARK VINA RESULT:      -9.0      0.603      1.065
REMARK  Name = 
REMARK  5 active torsions:
REMARK  status: ('A' for Active; 'I' for Inactive)
REMARK    1  A    between atoms: C_1  and  N_2
REMARK    2  A    between atoms: C_3  and  C_5
REMARK    3  A    between atoms: C_8  and  C_9
REMARK    4  A    between atoms: C_14  and  O_15
REMARK    5  A    between atoms: O_15  and  C_16
REMARK                            x       y       z     vdW  Elec       q    Type
REMARK                         _______ _______ _______ _____ _____    ______ ____
ROOT
ATOM      1  C   UNL     1       3.939   3.670  19.228  0.00  0.00    +0.000 A 
ATOM      2  N   UNL     1       4.644   2.670  19.846  0.00  0.00    +0.000 NA
ATOM      3  C   UNL     1       4.106   2.120  20.952  0.00  0.00    +0.000 A 
ATOM      4  C   UNL     1       2.890   2.527  21.450  0.00  0.00    +0.000 A 
ATOM      5  N   UNL     1       2.161   3.507  20.865  0.00  0.00    +0.000 NA
ATOM      6  C   UNL     1       2.704   4.082  19.758  0.00  0.00    +0.000 A 
ENDROOT
BRANCH   1  10
ATOM      7  C   UNL     1       6.045   4.659  15.575  0.00  0.00    +0.000 A 
ATOM      8  C   UNL     1       4.699   4.278  15.525  0.00  0.00    +0.000 A 
ATOM      9  C   UNL     1       3.978   4.021  16.712  0.00  0.00    +0.000 A 
ATOM     10  C   UNL     1       4.578   4.142  17.975  0.00  0.00    +0.000 A 
ATOM     11  C   UNL     1       5.907   4.616  18.001  0.00  0.00    +0.000 A 
ATOM     12  C   UNL     1       6.627   4.872  16.827  0.00  0.00    +0.000 A 
BRANCH   7  15
ATOM     13  C   UNL     1       7.344   4.162  12.017  0.00  0.00    +0.000 C 
ATOM     14  N   UNL     1       6.525   4.156  13.206  0.00  0.00    +0.000 N 
ATOM     15  C   UNL     1       6.928   4.784  14.367  0.00  0.00    +0.000 C 
ATOM     16  O   UNL     1       7.989   5.395  14.449  0.00  0.00    +0.000 OA
ATOM     17  H   UNL     1       5.634   3.690  13.147  0.00  0.00    +0.000 HD
ENDBRANCH   7  15
ENDBRANCH   1  10
BRANCH   6  18
ATOM     18  O   UNL     1       2.045   5.184  19.243  0.00  0.00    +0.000 OA
BRANCH  18  19
ATOM     19  C   UNL     1       2.505   6.496  19.671  0.00  0.00    +0.000 C 
ATOM     20  C   UNL     1       2.025   7.771  18.956  0.00  0.00    +0.000 C 
ATOM     21  N   UNL     1       1.731   8.339  20.235  0.00  0.00    +0.000 N 
ATOM     22  C   UNL     1       0.937   9.477  20.501  0.00  0.00    +0.000 A 
ATOM     23  C   UNL     1       0.929  10.499  19.550  0.00  0.00    +0.000 A 
ATOM     24  C   UNL     1       0.257  11.687  19.808  0.00  0.00    +0.000 A 
ATOM     25  C   UNL     1      -0.457  11.826  20.992  0.00  0.00    +0.000 A 
ATOM     26  C   UNL     1      -1.156  13.015  21.265  0.00  0.00    +0.000 A 
ATOM     27  C   UNL     1      -1.959  13.110  22.396  0.00  0.00    +0.000 A 
ATOM     28  C   UNL     1      -2.049  12.025  23.251  0.00  0.00    +0.000 A 
ATOM     29  C   UNL     1      -1.296  10.863  23.005  0.00  0.00    +0.000 A 
ATOM     30  C   UNL     1      -0.477  10.731  21.878  0.00  0.00    +0.000 A 
ATOM     31  N   UNL     1       0.236   9.596  21.654  0.00  0.00    +0.000 NA
ATOM     32  C   UNL     1       1.796   7.090  20.922  0.00  0.00    +0.000 C 
ENDBRANCH  18  19
ENDBRANCH   6  18
TORSDOF 4
ENDMDL
MODEL 4
REMARK VINA RESULT:      -8.8      4.312      9.365
REMARK  Name = 
REMARK  5 active torsions:
REMARK  status: ('A' for Active; 'I' for Inactive)
REMARK    1  A    between atoms: C_1  and  N_2
REMARK    2  A    between atoms: C_3  and  C_5
REMARK    3  A    between atoms: C_8  and  C_9
REMARK    4  A    between atoms: C_14  and  O_15
REMARK    5  A    between atoms: O_15  and  C_16
REMARK                            x       y       z     vdW  Elec       q    Type
REMARK                         _______ _______ _______ _____ _____    ______ ____
ROOT
ATOM      1  C   UNL     1      -3.181  12.164  19.423  0.00  0.00    +0.000 A 
ATOM      2  N   UNL     1      -4.341  12.169  20.152  0.00  0.00    +0.000 NA
ATOM      3  C   UNL     1      -4.356  12.882  21.295  0.00  0.00    +0.000 A 
ATOM      4  C   UNL     1      -3.260  13.595  21.723  0.00  0.00    +0.000 A 
ATOM      5  N   UNL     1      -2.098  13.620  21.028  0.00  0.00    +0.000 NA
ATOM      6  C   UNL     1      -2.066  12.887  19.882  0.00  0.00    +0.000 A 
ENDROOT
BRANCH   1  10
ATOM      7  C   UNL     1      -3.379  10.374  15.484  0.00  0.00    +0.000 A 
ATOM      8  C   UNL     1      -2.374   9.988  16.378  0.00  0.00    +0.000 A 
ATOM      9  C   UNL     1      -2.337  10.509  17.690  0.00  0.00    +0.000 A 
ATOM     10  C   UNL     1      -3.302  11.422  18.144  0.00  0.00    +0.000 A 
ATOM     11  C   UNL     1      -4.355  11.723  17.255  0.00  0.00    +0.000 A 
ATOM     12  C   UNL     1      -4.397  11.210  15.952  0.00  0.00    +0.000 A 
BRANCH   7  15
ATOM     13  C   UNL     1      -4.736   9.587  12.001  0.00  0.00    +0.000 C 
ATOM     14  N   UNL     1      -4.614   9.998  13.380  0.00  0.00    +0.000 N 
ATOM     15  C   UNL     1      -3.396  10.005  14.029  0.00  0.00    +0.000 C 
ATOM     16  O   UNL     1      -2.353   9.680  13.470  0.00  0.00    +0.000 OA
ATOM     17  H   UNL     1      -5.455  10.302  13.844  0.00  0.00    +0.000 HD
ENDBRANCH   7  15
ENDBRANCH   1  10
BRANCH   6  18
ATOM     18  O   UNL     1      -0.842  12.781  19.246  0.00  0.00    +0.000 OA
BRANCH  18  19
ATOM     19  C   UNL     1       0.220  12.087  19.957  0.00  0.00    +0.000 C 
ATOM     20  C   UNL     1      -0.056  10.753  20.675  0.00  0.00    +0.000 C 
ATOM     21  N   UNL     1       1.106  10.209  20.039  0.00  0.00    +0.000 N 
ATOM     22  C   UNL     1       1.456   8.845  19.928  0.00  0.00    +0.000 A 
ATOM     23  C   UNL     1       1.078   7.991  20.965  0.00  0.00    +0.000 A 
ATOM     24  C   UNL     1       1.492   6.665  20.963  0.00  0.00    +0.000 A 
ATOM     25  C   UNL     1       2.233   6.182  19.892  0.00  0.00    +0.000 A 
ATOM     26  C   UNL     1       2.649   4.839  19.864  0.00  0.00    +0.000 A 
ATOM     27  C   UNL     1       3.292   4.329  18.743  0.00  0.00    +0.000 A 
ATOM     28  C   UNL     1       3.527   5.163  17.664  0.00  0.00    +0.000 A 
ATOM     29  C   UNL     1       3.167   6.522  17.725  0.00  0.00    +0.000 A 
ATOM     30  C   UNL     1       2.517   7.070  18.837  0.00  0.00    +0.000 A 
ATOM     31  N   UNL     1       2.169   8.384  18.873  0.00  0.00    +0.000 NA
ATOM     32  C   UNL     1       1.199  11.259  19.077  0.00  0.00    +0.000 C 
ENDBRANCH  18  19
ENDBRANCH   6  18
TORSDOF 4
ENDMDL
MODEL 5
REMARK VINA RESULT:      -8.8      3.590      5.388
REMARK  Name = 
REMARK  5 active torsions:
REMARK  status: ('A' for Active; 'I' for Inactive)
REMARK    1  A    between atoms: C_1  and  N_2
REMARK    2  A    between atoms: C_3  and  C_5
REMARK    3  A    between atoms: C_8  and  C_9
REMARK    4  A    between atoms: C_14  and  O_15
REMARK    5  A    between atoms: O_15  and  C_16
REMARK                            x       y       z     vdW  Elec       q    Type
REMARK                         _______ _______ _______ _____ _____    ______ ____
ROOT
ATOM      1  C   UNL     1       6.817   5.803  16.655  0.00  0.00    +0.000 A 
ATOM      2  N   UNL     1       7.389   5.721  15.412  0.00  0.00    +0.000 NA
ATOM      3  C   UNL     1       6.985   4.720  14.605  0.00  0.00    +0.000 A 
ATOM      4  C   UNL     1       6.026   3.814  14.993  0.00  0.00    +0.000 A 
ATOM      5  N   UNL     1       5.432   3.866  16.210  0.00  0.00    +0.000 NA
ATOM      6  C   UNL     1       5.848   4.861  17.040  0.00  0.00    +0.000 A 
ENDROOT
BRANCH   1  10
ATOM      7  C   UNL     1       8.547   9.201  18.709  0.00  0.00    +0.000 A 
ATOM      8  C   UNL     1       7.654   9.404  17.650  0.00  0.00    +0.000 A 
ATOM      9  C   UNL     1       7.027   8.309  17.016  0.00  0.00    +0.000 A 
ATOM     10  C   UNL     1       7.269   6.988  17.424  0.00  0.00    +0.000 A 
ATOM     11  C   UNL     1       8.100   6.817  18.552  0.00  0.00    +0.000 A 
ATOM     12  C   UNL     1       8.725   7.899  19.185  0.00  0.00    +0.000 A 
BRANCH   7  15
ATOM     13  C   UNL     1      11.216  11.913  19.046  0.00  0.00    +0.000 C 
ATOM     14  N   UNL     1      10.319  10.909  18.523  0.00  0.00    +0.000 N 
ATOM     15  C   UNL     1       9.383  10.286  19.323  0.00  0.00    +0.000 C 
ATOM     16  O   UNL     1       9.248  10.561  20.512  0.00  0.00    +0.000 OA
ATOM     17  H   UNL     1      10.391  10.697  17.542  0.00  0.00    +0.000 HD
ENDBRANCH   7  15
ENDBRANCH   1  10
BRANCH   6  18
ATOM     18  O   UNL     1       5.363   4.831  18.336  0.00  0.00    +0.000 OA
BRANCH  18  19
ATOM     19  C   UNL     1       3.933   5.027  18.516  0.00  0.00    +0.000 C 
ATOM     20  C   UNL     1       3.373   5.541  19.855  0.00  0.00    +0.000 C 
ATOM     21  N   UNL     1       2.602   6.501  19.126  0.00  0.00    +0.000 N 
ATOM     22  C   UNL     1       1.956   7.646  19.643  0.00  0.00    +0.000 A 
ATOM     23  C   UNL     1       1.462   7.579  20.946  0.00  0.00    +0.000 A 
ATOM     24  C   UNL     1       0.721   8.633  21.467  0.00  0.00    +0.000 A 
ATOM     25  C   UNL     1       0.530   9.777  20.702  0.00  0.00    +0.000 A 
ATOM     26  C   UNL     1      -0.204  10.860  21.217  0.00  0.00    +0.000 A 
ATOM     27  C   UNL     1      -0.301  12.046  20.497  0.00  0.00    +0.000 A 
ATOM     28  C   UNL     1       0.324  12.137  19.265  0.00  0.00    +0.000 A 
ATOM     29  C   UNL     1       1.002  11.027  18.728  0.00  0.00    +0.000 A 
ATOM     30  C   UNL     1       1.119   9.818  19.424  0.00  0.00    +0.000 A 
ATOM     31  N   UNL     1       1.786   8.760  18.892  0.00  0.00    +0.000 NA
ATOM     32  C   UNL     1       3.346   6.338  17.919  0.00  0.00    +0.000 C 
ENDBRANCH  18  19
ENDBRANCH   6  18
TORSDOF 4
ENDMDL
MODEL 6
REMARK VINA RESULT:      -8.8      2.293      3.180
REMARK  Name = 
REMARK  5 active torsions:
REMARK  status: ('A' for Active; 'I' for Inactive)
REMARK    1  A    between atoms: C_1  and  N_2
REMARK    2  A    between atoms: C_3  and  C_5
REMARK    3  A    between atoms: C_8  and  C_9
REMARK    4  A    between atoms: C_14  and  O_15
REMARK    5  A    between atoms: O_15  and  C_16
REMARK                            x       y       z     vdW  Elec       q    Type
REMARK                         _______ _______ _______ _____ _____    ______ ____
ROOT
ATOM      1  C   UNL     1       3.126   4.783  18.840  0.00  0.00    +0.000 A 
ATOM      2  N   UNL     1       2.787   3.490  19.141  0.00  0.00    +0.000 NA
ATOM      3  C   UNL     1       1.797   3.296  20.034  0.00  0.00    +0.000 A 
ATOM      4  C   UNL     1       1.131   4.347  20.622  0.00  0.00    +0.000 A 
ATOM      5  N   UNL     1       1.432   5.638  20.346  0.00  0.00    +0.000 NA
ATOM      6  C   UNL     1       2.445   5.845  19.461  0.00  0.00    +0.000 A 
ENDROOT
BRANCH   1  10
ATOM      7  C   UNL     1       5.861   4.865  15.483  0.00  0.00    +0.000 A 
ATOM      8  C   UNL     1       5.240   6.045  15.909  0.00  0.00    +0.000 A 
ATOM      9  C   UNL     1       4.401   6.050  17.045  0.00  0.00    +0.000 A 
ATOM     10  C   UNL     1       4.165   4.881  17.786  0.00  0.00    +0.000 A 
ATOM     11  C   UNL     1       4.875   3.727  17.392  0.00  0.00    +0.000 A 
ATOM     12  C   UNL     1       5.708   3.717  16.265  0.00  0.00    +0.000 A 
BRANCH   7  15
ATOM     13  C   UNL     1       6.945   3.513  12.079  0.00  0.00    +0.000 C 
ATOM     14  N   UNL     1       6.226   3.759  13.307  0.00  0.00    +0.000 N 
ATOM     15  C   UNL     1       6.625   4.734  14.198  0.00  0.00    +0.000 C 
ATOM     16  O   UNL     1       7.597   5.455  13.990  0.00  0.00    +0.000 OA
ATOM     17  H   UNL     1       5.405   3.201  13.477  0.00  0.00    +0.000 HD
ENDBRANCH   7  15
ENDBRANCH   1  10
BRANCH   6  18
ATOM     18  O   UNL     1       2.863   7.152  19.290  0.00  0.00    +0.000 OA
BRANCH  18  19
ATOM     19  C   UNL     1       1.911   8.085  18.707  0.00  0.00    +0.000 C 
ATOM     20  C   UNL     1       1.200   9.133  19.582  0.00  0.00    +0.000 C 
ATOM     21  N   UNL     1       1.550  10.128  18.616  0.00  0.00    +0.000 N 
ATOM     22  C   UNL     1       1.515  11.531  18.787  0.00  0.00    +0.000 A 
ATOM     23  C   UNL     1       0.539  12.058  19.633  0.00  0.00    +0.000 A 
ATOM     24  C   UNL     1       0.386  13.434  19.750  0.00  0.00    +0.000 A 
ATOM     25  C   UNL     1       1.253  14.279  19.068  0.00  0.00    +0.000 A 
ATOM     26  C   UNL     1       1.124  15.674  19.186  0.00  0.00    +0.000 A 
ATOM     27  C   UNL     1       2.059  16.515  18.594  0.00  0.00    +0.000 A 
ATOM     28  C   UNL     1       3.106  15.960  17.878  0.00  0.00    +0.000 A 
ATOM     29  C   UNL     1       3.191  14.566  17.710  0.00  0.00    +0.000 A 
ATOM     30  C   UNL     1       2.269  13.688  18.292  0.00  0.00    +0.000 A 
ATOM     31  N   UNL     1       2.373  12.343  18.125  0.00  0.00    +0.000 NA
ATOM     32  C   UNL     1       2.524   9.310  17.970  0.00  0.00    +0.000 C 
ENDBRANCH  18  19
ENDBRANCH   6  18
TORSDOF 4
ENDMDL
MODEL 7
REMARK VINA RESULT:      -8.4      1.353      2.318
REMARK  Name = 
REMARK  5 active torsions:
REMARK  status: ('A' for Active; 'I' for Inactive)
REMARK    1  A    between atoms: C_1  and  N_2
REMARK    2  A    between atoms: C_3  and  C_5
REMARK    3  A    between atoms: C_8  and  C_9
REMARK    4  A    between atoms: C_14  and  O_15
REMARK    5  A    between atoms: O_15  and  C_16
REMARK                            x       y       z     vdW  Elec       q    Type
REMARK                         _______ _______ _______ _____ _____    ______ ____
ROOT
ATOM      1  C   UNL     1       3.640   4.132  19.384  0.00  0.00    +0.000 A 
ATOM      2  N   UNL     1       3.664   2.794  19.682  0.00  0.00    +0.000 NA
ATOM      3  C   UNL     1       3.032   2.393  20.802  0.00  0.00    +0.000 A 
ATOM      4  C   UNL     1       2.371   3.279  21.622  0.00  0.00    +0.000 A 
ATOM      5  N   UNL     1       2.320   4.607  21.360  0.00  0.00    +0.000 NA
ATOM      6  C   UNL     1       2.973   5.024  20.241  0.00  0.00    +0.000 A 
ENDROOT
BRANCH   1  10
ATOM      7  C   UNL     1       5.801   4.695  15.673  0.00  0.00    +0.000 A 
ATOM      8  C   UNL     1       4.486   4.215  15.652  0.00  0.00    +0.000 A 
ATOM      9  C   UNL     1       3.743   4.093  16.846  0.00  0.00    +0.000 A 
ATOM     10  C   UNL     1       4.289   4.450  18.089  0.00  0.00    +0.000 A 
ATOM     11  C   UNL     1       5.582   5.017  18.073  0.00  0.00    +0.000 A 
ATOM     12  C   UNL     1       6.323   5.140  16.891  0.00  0.00    +0.000 A 
BRANCH   7  15
ATOM     13  C   UNL     1       7.174   3.861  12.207  0.00  0.00    +0.000 C 
ATOM     14  N   UNL     1       6.326   3.976  13.371  0.00  0.00    +0.000 N 
ATOM     15  C   UNL     1       6.715   4.696  14.482  0.00  0.00    +0.000 C 
ATOM     16  O   UNL     1       7.787   5.290  14.538  0.00  0.00    +0.000 OA
ATOM     17  H   UNL     1       5.427   3.524  13.330  0.00  0.00    +0.000 HD
ENDBRANCH   7  15
ENDBRANCH   1  10
BRANCH   6  18
ATOM     18  O   UNL     1       3.058   6.391  20.045  0.00  0.00    +0.000 OA
BRANCH  18  19
ATOM     19  C   UNL     1       1.810   7.121  19.887  0.00  0.00    +0.000 C 
ATOM     20  C   UNL     1       1.310   8.073  20.988  0.00  0.00    +0.000 C 
ATOM     21  N   UNL     1       1.090   9.067  19.983  0.00  0.00    +0.000 N 
ATOM     22  C   UNL     1       0.878  10.449  20.183  0.00  0.00    +0.000 A 
ATOM     23  C   UNL     1       0.217  10.843  21.347  0.00  0.00    +0.000 A 
ATOM     24  C   UNL     1      -0.118  12.177  21.543  0.00  0.00    +0.000 A 
ATOM     25  C   UNL     1       0.266  13.123  20.600  0.00  0.00    +0.000 A 
ATOM     26  C   UNL     1      -0.051  14.481  20.787  0.00  0.00    +0.000 A 
ATOM     27  C   UNL     1       0.430  15.439  19.903  0.00  0.00    +0.000 A 
ATOM     28  C   UNL     1       1.209  15.036  18.832  0.00  0.00    +0.000 A 
ATOM     29  C   UNL     1       1.467  13.670  18.615  0.00  0.00    +0.000 A 
ATOM     30  C   UNL     1       1.000  12.678  19.485  0.00  0.00    +0.000 A 
ATOM     31  N   UNL     1       1.268  11.364  19.262  0.00  0.00    +0.000 NA
ATOM     32  C   UNL     1       1.876   8.396  18.999  0.00  0.00    +0.000 C 
ENDBRANCH  18  19
ENDBRANCH   6  18
TORSDOF 4
ENDMDL
MODEL 8
REMARK VINA RESULT:      -8.3      4.203      9.466
REMARK  Name = 
REMARK  5 active torsions:
REMARK  status: ('A' for Active; 'I' for Inactive)
REMARK    1  A    between atoms: C_1  and  N_2
REMARK    2  A    between atoms: C_3  and  C_5
REMARK    3  A    between atoms: C_8  and  C_9
REMARK    4  A    between atoms: C_14  and  O_15
REMARK    5  A    between atoms: O_15  and  C_16
REMARK                            x       y       z     vdW  Elec       q    Type
REMARK                         _______ _______ _______ _____ _____    ______ ____
ROOT
ATOM      1  C   UNL     1      -2.133  11.491  19.036  0.00  0.00    +0.000 A 
ATOM      2  N   UNL     1      -2.639  12.750  19.222  0.00  0.00    +0.000 NA
ATOM      3  C   UNL     1      -2.266  13.414  20.334  0.00  0.00    +0.000 A 
ATOM      4  C   UNL     1      -1.400  12.867  21.252  0.00  0.00    +0.000 A 
ATOM      5  N   UNL     1      -0.875  11.627  21.101  0.00  0.00    +0.000 NA
ATOM      6  C   UNL     1      -1.261  10.941  19.991  0.00  0.00    +0.000 A 
ENDROOT
BRANCH   1  10
ATOM      7  C   UNL     1      -3.125  10.093  15.058  0.00  0.00    +0.000 A 
ATOM      8  C   UNL     1      -2.100   9.473  15.782  0.00  0.00    +0.000 A 
ATOM      9  C   UNL     1      -1.811   9.869  17.107  0.00  0.00    +0.000 A 
ATOM     10  C   UNL     1      -2.538  10.888  17.742  0.00  0.00    +0.000 A 
ATOM     11  C   UNL     1      -3.624  11.432  17.024  0.00  0.00    +0.000 A 
ATOM     12  C   UNL     1      -3.915  11.043  15.710  0.00  0.00    +0.000 A 
BRANCH   7  15
ATOM     13  C   UNL     1      -5.046   9.561  11.799  0.00  0.00    +0.000 C 
ATOM     14  N   UNL     1      -4.696   9.852  13.170  0.00  0.00    +0.000 N 
ATOM     15  C   UNL     1      -3.385   9.854  13.599  0.00  0.00    +0.000 C 
ATOM     16  O   UNL     1      -2.446   9.628  12.841  0.00  0.00    +0.000 OA
ATOM     17  H   UNL     1      -5.452  10.075  13.798  0.00  0.00    +0.000 HD
ENDBRANCH   7  15
ENDBRANCH   1  10
BRANCH   6  18
ATOM     18  O   UNL     1      -0.854   9.622  19.904  0.00  0.00    +0.000 OA
BRANCH  18  19
ATOM     19  C   UNL     1       0.538   9.333  20.211  0.00  0.00    +0.000 C 
ATOM     20  C   UNL     1       1.005   7.887  20.459  0.00  0.00    +0.000 C 
ATOM     21  N   UNL     1       2.086   8.115  19.550  0.00  0.00    +0.000 N 
ATOM     22  C   UNL     1       2.909   7.140  18.942  0.00  0.00    +0.000 A 
ATOM     23  C   UNL     1       3.175   5.976  19.663  0.00  0.00    +0.000 A 
ATOM     24  C   UNL     1       4.067   5.034  19.164  0.00  0.00    +0.000 A 
ATOM     25  C   UNL     1       4.643   5.233  17.915  0.00  0.00    +0.000 A 
ATOM     26  C   UNL     1       5.536   4.285  17.386  0.00  0.00    +0.000 A 
ATOM     27  C   UNL     1       6.024   4.429  16.092  0.00  0.00    +0.000 A 
ATOM     28  C   UNL     1       5.628   5.523  15.342  0.00  0.00    +0.000 A 
ATOM     29  C   UNL     1       4.785   6.502  15.901  0.00  0.00    +0.000 A 
ATOM     30  C   UNL     1       4.275   6.389  17.200  0.00  0.00    +0.000 A 
ATOM     31  N   UNL     1       3.455   7.341  17.719  0.00  0.00    +0.000 NA
ATOM     32  C   UNL     1       1.509   9.298  18.997  0.00  0.00    +0.000 C 
ENDBRANCH  18  19
ENDBRANCH   6  18
TORSDOF 4
ENDMDL
MODEL 9
REMARK VINA RESULT:      -8.3      5.504      8.071
REMARK  Name = 
REMARK  5 active torsions:
REMARK  status: ('A' for Active; 'I' for Inactive)
REMARK    1  A    between atoms: C_1  and  N_2
REMARK    2  A    between atoms: C_3  and  C_5
REMARK    3  A    between atoms: C_8  and  C_9
REMARK    4  A    between atoms: C_14  and  O_15
REMARK    5  A    between atoms: O_15  and  C_16
REMARK                            x       y       z     vdW  Elec       q    Type
REMARK                         _______ _______ _______ _____ _____    ______ ____
ROOT
ATOM      1  C   UNL     1       5.145   5.606  17.100  0.00  0.00    +0.000 A 
ATOM      2  N   UNL     1       4.749   4.780  16.081  0.00  0.00    +0.000 NA
ATOM      3  C   UNL     1       5.702   4.060  15.456  0.00  0.00    +0.000 A 
ATOM      4  C   UNL     1       7.026   4.129  15.824  0.00  0.00    +0.000 A 
ATOM      5  N   UNL     1       7.455   4.928  16.830  0.00  0.00    +0.000 NA
ATOM      6  C   UNL     1       6.504   5.675  17.454  0.00  0.00    +0.000 A 
ENDROOT
BRANCH   1  10
ATOM      7  C   UNL     1       2.133   7.737  19.367  0.00  0.00    +0.000 A 
ATOM      8  C   UNL     1       2.557   8.233  18.129  0.00  0.00    +0.000 A 
ATOM      9  C   UNL     1       3.486   7.514  17.344  0.00  0.00    +0.000 A 
ATOM     10  C   UNL     1       4.010   6.283  17.772  0.00  0.00    +0.000 A 
ATOM     11  C   UNL     1       3.497   5.763  18.979  0.00  0.00    +0.000 A 
ATOM     12  C   UNL     1       2.576   6.472  19.761  0.00  0.00    +0.000 A 
BRANCH   7  15
ATOM     13  C   UNL     1       0.240  10.663  20.932  0.00  0.00    +0.000 C 
ATOM     14  N   UNL     1       0.986   9.822  20.026  0.00  0.00    +0.000 N 
ATOM     15  C   UNL     1       1.287   8.511  20.336  0.00  0.00    +0.000 C 
ATOM     16  O   UNL     1       0.924   7.985  21.384  0.00  0.00    +0.000 OA
ATOM     17  H   UNL     1       1.262  10.226  19.146  0.00  0.00    +0.000 HD
ENDBRANCH   7  15
ENDBRANCH   1  10
BRANCH   6  18
ATOM     18  O   UNL     1       6.950   6.606  18.375  0.00  0.00    +0.000 OA
BRANCH  18  19
ATOM     19  C   UNL     1       8.008   7.509  17.950  0.00  0.00    +0.000 C 
ATOM     20  C   UNL     1       7.674   8.906  17.398  0.00  0.00    +0.000 C 
ATOM     21  N   UNL     1       8.656   9.454  18.282  0.00  0.00    +0.000 N 
ATOM     22  C   UNL     1       8.816  10.811  18.644  0.00  0.00    +0.000 A 
ATOM     23  C   UNL     1       8.485  11.779  17.694  0.00  0.00    +0.000 A 
ATOM     24  C   UNL     1       8.727  13.122  17.954  0.00  0.00    +0.000 A 
ATOM     25  C   UNL     1       9.243  13.498  19.188  0.00  0.00    +0.000 A 
ATOM     26  C   UNL     1       9.481  14.854  19.475  0.00  0.00    +0.000 A 
ATOM     27  C   UNL     1       9.890  15.238  20.747  0.00  0.00    +0.000 A 
ATOM     28  C   UNL     1      10.071  14.268  21.717  0.00  0.00    +0.000 A 
ATOM     29  C   UNL     1       9.894  12.908  21.404  0.00  0.00    +0.000 A 
ATOM     30  C   UNL     1       9.482  12.484  20.135  0.00  0.00    +0.000 A 
ATOM     31  N   UNL     1       9.308  11.165  19.855  0.00  0.00    +0.000 NA
ATOM     32  C   UNL     1       8.741   8.278  19.086  0.00  0.00    +0.000 C 
ENDBRANCH  18  19
ENDBRANCH   6  18
TORSDOF 4
ENDMDL
