MODEL 1
REMARK VINA RESULT:      -6.3      0.000      0.000
REMARK  Name = 
REMARK  10 active torsions:
REMARK  status: ('A' for Active; 'I' for Inactive)
REMARK    1  A    between atoms: C_1  and  C_2
REMARK    2  A    between atoms: C_2  and  N_3
REMARK    3  A    between atoms: N_3  and  C_4
REMARK    4  A    between atoms: N_3  and  C_6
REMARK    5  A    between atoms: C_4  and  C_5
REMARK    6  A    between atoms: C_6  and  S_7
REMARK    7  A    between atoms: S_7  and  C_8
REMARK    8  A    between atoms: C_8  and  C_9
REMARK    9  A    between atoms: C_15  and  C_16
REMARK   10  A    between atoms: C_15  and  N_21
REMARK                            x       y       z     vdW  Elec       q    Type
REMARK                         _______ _______ _______ _____ _____    ______ ____
ROOT
ATOM      1  C   UNL     1       4.165   4.936  17.581  0.00  0.00    +0.000 C 
ATOM      2  C   UNL     1       2.928   5.113  18.130  0.00  0.00    +0.000 C 
ENDROOT
BRANCH   2   3
ATOM      3  C   UNL     1       2.456   6.243  18.929  0.00  0.00    +0.000 C 
ATOM      4 CL   UNL     1       2.164   7.712  18.015  0.00  0.00    +0.000 Cl
ATOM      5  C   UNL     1       2.117   6.185  20.234  0.00  0.00    +0.000 C 
ATOM      6 CL   UNL     1       1.409   7.528  21.085  0.00  0.00    +0.000 Cl
ATOM      7 CL   UNL     1       2.343   4.767  21.210  0.00  0.00    +0.000 Cl
ENDBRANCH   2   3
BRANCH   2   8
ATOM      8  N   UNL     1       1.877   4.143  17.847  0.00  0.00    +0.000 N 
ATOM      9  O   UNL     1       1.967   3.048  18.425  0.00  0.00    +0.000 OA
ATOM     10  O   UNL     1       1.013   4.441  17.016  0.00  0.00    +0.000 OA
ENDBRANCH   2   8
BRANCH   1  11
ATOM     11  N   UNL     1       5.256   5.788  17.926  0.00  0.00    +0.000 N 
BRANCH  11  13
ATOM     12  C   UNL     1       7.542   5.884  18.916  0.00  0.00    +0.000 C 
ATOM     13  C   UNL     1       6.077   5.539  19.131  0.00  0.00    +0.000 C 
ENDBRANCH  11  13
BRANCH  11  14
ATOM     14  C   UNL     1       5.517   7.057  17.219  0.00  0.00    +0.000 C 
ATOM     15  C   UNL     1       4.977   7.079  15.802  0.00  0.00    +0.000 C 
ENDBRANCH  11  14
ENDBRANCH   1  11
BRANCH   1  16
ATOM     16  S   UNL     1       4.552   3.556  16.497  0.00  0.00    +0.000 S 
BRANCH  16  17
ATOM     17  C   UNL     1       6.305   3.822  16.069  0.00  0.00    +0.000 C 
BRANCH  17  18
ATOM     18  C   UNL     1       6.522   4.033  14.587  0.00  0.00    +0.000 A 
ATOM     19  C   UNL     1       7.467   4.965  14.126  0.00  0.00    +0.000 A 
ATOM     20  C   UNL     1       7.711   5.116  12.758  0.00  0.00    +0.000 A 
ATOM     21  C   UNL     1       7.011   4.344  11.834  0.00  0.00    +0.000 A 
ATOM     22  C   UNL     1       6.061   3.427  12.278  0.00  0.00    +0.000 A 
ATOM     23  C   UNL     1       5.815   3.275  13.646  0.00  0.00    +0.000 A 
ENDBRANCH  17  18
ENDBRANCH  16  17
ENDBRANCH   1  16
TORSDOF 8
ENDMDL
MODEL 2
REMARK VINA RESULT:      -6.1      0.408      2.303
REMARK  Name = 
REMARK  10 active torsions:
REMARK  status: ('A' for Active; 'I' for Inactive)
REMARK    1  A    between atoms: C_1  and  C_2
REMARK    2  A    between atoms: C_2  and  N_3
REMARK    3  A    between atoms: N_3  and  C_4
REMARK    4  A    between atoms: N_3  and  C_6
REMARK    5  A    between atoms: C_4  and  C_5
REMARK    6  A    between atoms: C_6  and  S_7
REMARK    7  A    between atoms: S_7  and  C_8
REMARK    8  A    between atoms: C_8  and  C_9
REMARK    9  A    between atoms: C_15  and  C_16
REMARK   10  A    between atoms: C_15  and  N_21
REMARK                            x       y       z     vdW  Elec       q    Type
REMARK                         _______ _______ _______ _____ _____    ______ ____
ROOT
ATOM      1  C   UNL     1       4.172   4.856  17.795  0.00  0.00    +0.000 C 
ATOM      2  C   UNL     1       2.968   4.802  18.436  0.00  0.00    +0.000 C 
ENDROOT
BRANCH   2   3
ATOM      3  C   UNL     1       2.479   5.680  19.498  0.00  0.00    +0.000 C 
ATOM      4 CL   UNL     1       2.530   4.979  21.106  0.00  0.00    +0.000 Cl
ATOM      5  C   UNL     1       2.139   6.977  19.341  0.00  0.00    +0.000 C 
ATOM      6 CL   UNL     1       1.719   8.010  20.677  0.00  0.00    +0.000 Cl
ATOM      7 CL   UNL     1       2.089   7.763  17.794  0.00  0.00    +0.000 Cl
ENDBRANCH   2   3
BRANCH   2   8
ATOM      8  N   UNL     1       1.966   3.839  17.993  0.00  0.00    +0.000 N 
ATOM      9  O   UNL     1       1.073   4.276  17.251  0.00  0.00    +0.000 OA
ATOM     10  O   UNL     1       2.032   2.685  18.426  0.00  0.00    +0.000 OA
ENDBRANCH   2   8
BRANCH   1  11
ATOM     11  N   UNL     1       5.224   5.694  18.268  0.00  0.00    +0.000 N 
BRANCH  11  13
ATOM     12  C   UNL     1       4.912   7.099  16.233  0.00  0.00    +0.000 C 
ATOM     13  C   UNL     1       5.534   6.984  17.615  0.00  0.00    +0.000 C 
ENDBRANCH  11  13
BRANCH  11  14
ATOM     14  C   UNL     1       6.176   5.252  19.306  0.00  0.00    +0.000 C 
ATOM     15  C   UNL     1       7.588   5.761  19.085  0.00  0.00    +0.000 C 
ENDBRANCH  11  14
ENDBRANCH   1  11
BRANCH   1  16
ATOM     16  S   UNL     1       4.572   3.794  16.402  0.00  0.00    +0.000 S 
BRANCH  16  17
ATOM     17  C   UNL     1       6.310   4.204  16.032  0.00  0.00    +0.000 C 
BRANCH  17  18
ATOM     18  C   UNL     1       6.602   4.239  14.548  0.00  0.00    +0.000 A 
ATOM     19  C   UNL     1       5.898   3.412  13.658  0.00  0.00    +0.000 A 
ATOM     20  C   UNL     1       6.126   3.488  12.281  0.00  0.00    +0.000 A 
ATOM     21  C   UNL     1       7.063   4.387  11.777  0.00  0.00    +0.000 A 
ATOM     22  C   UNL     1       7.777   5.203  12.650  0.00  0.00    +0.000 A 
ATOM     23  C   UNL     1       7.552   5.127  14.028  0.00  0.00    +0.000 A 
ENDBRANCH  17  18
ENDBRANCH  16  17
ENDBRANCH   1  16
TORSDOF 8
ENDMDL
MODEL 3
REMARK VINA RESULT:      -6.0      0.433      1.359
REMARK  Name = 
REMARK  10 active torsions:
REMARK  status: ('A' for Active; 'I' for Inactive)
REMARK    1  A    between atoms: C_1  and  C_2
REMARK    2  A    between atoms: C_2  and  N_3
REMARK    3  A    between atoms: N_3  and  C_4
REMARK    4  A    between atoms: N_3  and  C_6
REMARK    5  A    between atoms: C_4  and  C_5
REMARK    6  A    between atoms: C_6  and  S_7
REMARK    7  A    between atoms: S_7  and  C_8
REMARK    8  A    between atoms: C_8  and  C_9
REMARK    9  A    between atoms: C_15  and  C_16
REMARK   10  A    between atoms: C_15  and  N_21
REMARK                            x       y       z     vdW  Elec       q    Type
REMARK                         _______ _______ _______ _____ _____    ______ ____
ROOT
ATOM      1  C   UNL     1       4.063   4.788  17.781  0.00  0.00    +0.000 C 
ATOM      2  C   UNL     1       2.865   4.741  18.433  0.00  0.00    +0.000 C 
ENDROOT
BRANCH   2   3
ATOM      3  C   UNL     1       2.396   5.615  19.508  0.00  0.00    +0.000 C 
ATOM      4 CL   UNL     1       2.366   4.868  21.095  0.00  0.00    +0.000 Cl
ATOM      5  C   UNL     1       2.131   6.933  19.380  0.00  0.00    +0.000 C 
ATOM      6 CL   UNL     1       1.731   7.950  20.734  0.00  0.00    +0.000 Cl
ATOM      7 CL   UNL     1       2.165   7.762  17.855  0.00  0.00    +0.000 Cl
ENDBRANCH   2   3
BRANCH   2   8
ATOM      8  N   UNL     1       1.849   3.793  17.992  0.00  0.00    +0.000 N 
ATOM      9  O   UNL     1       1.938   2.641  18.444  0.00  0.00    +0.000 OA
ATOM     10  O   UNL     1       1.017   4.171  17.161  0.00  0.00    +0.000 OA
ENDBRANCH   2   8
BRANCH   1  11
ATOM     11  N   UNL     1       5.129   5.610  18.252  0.00  0.00    +0.000 N 
BRANCH  11  13
ATOM     12  C   UNL     1       7.448   5.678  19.164  0.00  0.00    +0.000 C 
ATOM     13  C   UNL     1       6.030   5.159  19.335  0.00  0.00    +0.000 C 
ENDBRANCH  11  13
BRANCH  11  14
ATOM     14  C   UNL     1       5.288   7.014  17.824  0.00  0.00    +0.000 C 
ATOM     15  C   UNL     1       5.249   7.193  16.318  0.00  0.00    +0.000 C 
ENDBRANCH  11  14
ENDBRANCH   1  11
BRANCH   1  16
ATOM     16  S   UNL     1       4.439   3.734  16.376  0.00  0.00    +0.000 S 
BRANCH  16  17
ATOM     17  C   UNL     1       6.194   4.087  16.028  0.00  0.00    +0.000 C 
BRANCH  17  18
ATOM     18  C   UNL     1       6.486   4.214  14.549  0.00  0.00    +0.000 A 
ATOM     19  C   UNL     1       7.466   5.107  14.085  0.00  0.00    +0.000 A 
ATOM     20  C   UNL     1       7.777   5.180  12.724  0.00  0.00    +0.000 A 
ATOM     21  C   UNL     1       7.111   4.367  11.810  0.00  0.00    +0.000 A 
ATOM     22  C   UNL     1       6.128   3.488  12.256  0.00  0.00    +0.000 A 
ATOM     23  C   UNL     1       5.813   3.414  13.616  0.00  0.00    +0.000 A 
ENDBRANCH  17  18
ENDBRANCH  16  17
ENDBRANCH   1  16
TORSDOF 8
ENDMDL
MODEL 4
REMARK VINA RESULT:      -6.0      0.300      1.892
REMARK  Name = 
REMARK  10 active torsions:
REMARK  status: ('A' for Active; 'I' for Inactive)
REMARK    1  A    between atoms: C_1  and  C_2
REMARK    2  A    between atoms: C_2  and  N_3
REMARK    3  A    between atoms: N_3  and  C_4
REMARK    4  A    between atoms: N_3  and  C_6
REMARK    5  A    between atoms: C_4  and  C_5
REMARK    6  A    between atoms: C_6  and  S_7
REMARK    7  A    between atoms: S_7  and  C_8
REMARK    8  A    between atoms: C_8  and  C_9
REMARK    9  A    between atoms: C_15  and  C_16
REMARK   10  A    between atoms: C_15  and  N_21
REMARK                            x       y       z     vdW  Elec       q    Type
REMARK                         _______ _______ _______ _____ _____    ______ ____
ROOT
ATOM      1  C   UNL     1       4.402   4.861  17.721  0.00  0.00    +0.000 C 
ATOM      2  C   UNL     1       3.119   4.980  18.171  0.00  0.00    +0.000 C 
ENDROOT
BRANCH   2   3
ATOM      3  C   UNL     1       2.544   6.070  18.959  0.00  0.00    +0.000 C 
ATOM      4 CL   UNL     1       2.248   7.545  18.057  0.00  0.00    +0.000 Cl
ATOM      5  C   UNL     1       2.122   5.967  20.237  0.00  0.00    +0.000 C 
ATOM      6 CL   UNL     1       1.299   7.258  21.065  0.00  0.00    +0.000 Cl
ATOM      7 CL   UNL     1       2.346   4.538  21.197  0.00  0.00    +0.000 Cl
ENDBRANCH   2   3
BRANCH   2   8
ATOM      8  N   UNL     1       2.129   3.986  17.775  0.00  0.00    +0.000 N 
ATOM      9  O   UNL     1       1.229   4.377  17.015  0.00  0.00    +0.000 OA
ATOM     10  O   UNL     1       2.209   2.854  18.261  0.00  0.00    +0.000 OA
ENDBRANCH   2   8
BRANCH   1  11
ATOM     11  N   UNL     1       5.430   5.737  18.179  0.00  0.00    +0.000 N 
BRANCH  11  13
ATOM     12  C   UNL     1       4.962   7.142  16.174  0.00  0.00    +0.000 C 
ATOM     13  C   UNL     1       5.729   7.006  17.480  0.00  0.00    +0.000 C 
ENDBRANCH  11  13
BRANCH  11  14
ATOM     14  C   UNL     1       6.371   5.355  19.250  0.00  0.00    +0.000 C 
ATOM     15  C   UNL     1       7.806   5.753  18.961  0.00  0.00    +0.000 C 
ENDBRANCH  11  14
ENDBRANCH   1  11
BRANCH   1  16
ATOM     16  S   UNL     1       4.924   3.528  16.636  0.00  0.00    +0.000 S 
BRANCH  16  17
ATOM     17  C   UNL     1       6.545   4.086  16.015  0.00  0.00    +0.000 C 
BRANCH  17  18
ATOM     18  C   UNL     1       6.635   4.065  14.505  0.00  0.00    +0.000 A 
ATOM     19  C   UNL     1       5.800   3.227  13.748  0.00  0.00    +0.000 A 
ATOM     20  C   UNL     1       5.842   3.252  12.351  0.00  0.00    +0.000 A 
ATOM     21  C   UNL     1       6.720   4.109  11.693  0.00  0.00    +0.000 A 
ATOM     22  C   UNL     1       7.563   4.935  12.433  0.00  0.00    +0.000 A 
ATOM     23  C   UNL     1       7.525   4.911  13.830  0.00  0.00    +0.000 A 
ENDBRANCH  17  18
ENDBRANCH  16  17
ENDBRANCH   1  16
TORSDOF 8
ENDMDL
MODEL 5
REMARK VINA RESULT:      -6.0      0.633      1.910
REMARK  Name = 
REMARK  10 active torsions:
REMARK  status: ('A' for Active; 'I' for Inactive)
REMARK    1  A    between atoms: C_1  and  C_2
REMARK    2  A    between atoms: C_2  and  N_3
REMARK    3  A    between atoms: N_3  and  C_4
REMARK    4  A    between atoms: N_3  and  C_6
REMARK    5  A    between atoms: C_4  and  C_5
REMARK    6  A    between atoms: C_6  and  S_7
REMARK    7  A    between atoms: S_7  and  C_8
REMARK    8  A    between atoms: C_8  and  C_9
REMARK    9  A    between atoms: C_15  and  C_16
REMARK   10  A    between atoms: C_15  and  N_21
REMARK                            x       y       z     vdW  Elec       q    Type
REMARK                         _______ _______ _______ _____ _____    ______ ____
ROOT
ATOM      1  C   UNL     1       3.930   4.943  17.557  0.00  0.00    +0.000 C 
ATOM      2  C   UNL     1       2.762   4.900  18.263  0.00  0.00    +0.000 C 
ENDROOT
BRANCH   2   3
ATOM      3  C   UNL     1       2.363   5.749  19.385  0.00  0.00    +0.000 C 
ATOM      4 CL   UNL     1       2.372   4.948  20.946  0.00  0.00    +0.000 Cl
ATOM      5  C   UNL     1       2.133   7.077  19.312  0.00  0.00    +0.000 C 
ATOM      6 CL   UNL     1       1.818   8.058  20.714  0.00  0.00    +0.000 Cl
ATOM      7 CL   UNL     1       2.132   7.958  17.816  0.00  0.00    +0.000 Cl
ENDBRANCH   2   3
BRANCH   2   8
ATOM      8  N   UNL     1       1.707   3.986  17.842  0.00  0.00    +0.000 N 
ATOM      9  O   UNL     1       1.780   2.825  18.273  0.00  0.00    +0.000 OA
ATOM     10  O   UNL     1       0.858   4.400  17.047  0.00  0.00    +0.000 OA
ENDBRANCH   2   8
BRANCH   1  11
ATOM     11  N   UNL     1       5.034   5.729  18.002  0.00  0.00    +0.000 N 
BRANCH  11  13
ATOM     12  C   UNL     1       6.984   7.166  17.415  0.00  0.00    +0.000 C 
ATOM     13  C   UNL     1       5.496   6.909  17.240  0.00  0.00    +0.000 C 
ENDBRANCH  11  13
BRANCH  11  14
ATOM     14  C   UNL     1       5.890   5.316  19.132  0.00  0.00    +0.000 C 
ATOM     15  C   UNL     1       5.636   3.892  19.590  0.00  0.00    +0.000 C 
ENDBRANCH  11  14
ENDBRANCH   1  11
BRANCH   1  16
ATOM     16  S   UNL     1       4.217   3.926  16.105  0.00  0.00    +0.000 S 
BRANCH  16  17
ATOM     17  C   UNL     1       6.029   3.961  15.904  0.00  0.00    +0.000 C 
BRANCH  17  18
ATOM     18  C   UNL     1       6.458   4.184  14.471  0.00  0.00    +0.000 A 
ATOM     19  C   UNL     1       7.441   5.136  14.156  0.00  0.00    +0.000 A 
ATOM     20  C   UNL     1       7.880   5.300  12.838  0.00  0.00    +0.000 A 
ATOM     21  C   UNL     1       7.340   4.519  11.820  0.00  0.00    +0.000 A 
ATOM     22  C   UNL     1       6.354   3.581  12.118  0.00  0.00    +0.000 A 
ATOM     23  C   UNL     1       5.912   3.417  13.434  0.00  0.00    +0.000 A 
ENDBRANCH  17  18
ENDBRANCH  16  17
ENDBRANCH   1  16
TORSDOF 8
ENDMDL
MODEL 6
REMARK VINA RESULT:      -5.9      1.885      2.716
REMARK  Name = 
REMARK  10 active torsions:
REMARK  status: ('A' for Active; 'I' for Inactive)
REMARK    1  A    between atoms: C_1  and  C_2
REMARK    2  A    between atoms: C_2  and  N_3
REMARK    3  A    between atoms: N_3  and  C_4
REMARK    4  A    between atoms: N_3  and  C_6
REMARK    5  A    between atoms: C_4  and  C_5
REMARK    6  A    between atoms: C_6  and  S_7
REMARK    7  A    between atoms: S_7  and  C_8
REMARK    8  A    between atoms: C_8  and  C_9
REMARK    9  A    between atoms: C_15  and  C_16
REMARK   10  A    between atoms: C_15  and  N_21
REMARK                            x       y       z     vdW  Elec       q    Type
REMARK                         _______ _______ _______ _____ _____    ______ ____
ROOT
ATOM      1  C   UNL     1       4.145   4.218  17.998  0.00  0.00    +0.000 C 
ATOM      2  C   UNL     1       3.625   3.080  18.543  0.00  0.00    +0.000 C 
ENDROOT
BRANCH   2   3
ATOM      3  C   UNL     1       3.314   2.821  19.949  0.00  0.00    +0.000 C 
ATOM      4 CL   UNL     1       4.622   2.093  20.864  0.00  0.00    +0.000 Cl
ATOM      5  C   UNL     1       2.189   3.216  20.582  0.00  0.00    +0.000 C 
ATOM      6 CL   UNL     1       1.951   3.017  22.294  0.00  0.00    +0.000 Cl
ATOM      7 CL   UNL     1       0.855   3.970  19.764  0.00  0.00    +0.000 Cl
ENDBRANCH   2   3
BRANCH   2   8
ATOM      8  N   UNL     1       3.220   1.989  17.665  0.00  0.00    +0.000 N 
ATOM      9  O   UNL     1       4.018   1.044  17.557  0.00  0.00    +0.000 OA
ATOM     10  O   UNL     1       2.158   2.099  17.045  0.00  0.00    +0.000 OA
ENDBRANCH   2   8
BRANCH   1  11
ATOM     11  N   UNL     1       4.666   5.260  18.821  0.00  0.00    +0.000 N 
BRANCH  11  13
ATOM     12  C   UNL     1       6.998   6.054  18.437  0.00  0.00    +0.000 C 
ATOM     13  C   UNL     1       6.062   5.231  19.309  0.00  0.00    +0.000 C 
ENDBRANCH  11  13
BRANCH  11  14
ATOM     14  C   UNL     1       3.810   6.324  19.382  0.00  0.00    +0.000 C 
ATOM     15  C   UNL     1       2.733   6.797  18.424  0.00  0.00    +0.000 C 
ENDBRANCH  11  14
ENDBRANCH   1  11
BRANCH   1  16
ATOM     16  S   UNL     1       4.336   4.439  16.226  0.00  0.00    +0.000 S 
BRANCH  16  17
ATOM     17  C   UNL     1       5.954   3.678  15.868  0.00  0.00    +0.000 C 
BRANCH  17  18
ATOM     18  C   UNL     1       6.456   3.993  14.476  0.00  0.00    +0.000 A 
ATOM     19  C   UNL     1       5.947   3.312  13.358  0.00  0.00    +0.000 A 
ATOM     20  C   UNL     1       6.367   3.645  12.067  0.00  0.00    +0.000 A 
ATOM     21  C   UNL     1       7.305   4.657  11.877  0.00  0.00    +0.000 A 
ATOM     22  C   UNL     1       7.828   5.330  12.978  0.00  0.00    +0.000 A 
ATOM     23  C   UNL     1       7.411   4.997  14.270  0.00  0.00    +0.000 A 
ENDBRANCH  17  18
ENDBRANCH  16  17
ENDBRANCH   1  16
TORSDOF 8
ENDMDL
MODEL 7
REMARK VINA RESULT:      -5.8      0.653      1.857
REMARK  Name = 
REMARK  10 active torsions:
REMARK  status: ('A' for Active; 'I' for Inactive)
REMARK    1  A    between atoms: C_1  and  C_2
REMARK    2  A    between atoms: C_2  and  N_3
REMARK    3  A    between atoms: N_3  and  C_4
REMARK    4  A    between atoms: N_3  and  C_6
REMARK    5  A    between atoms: C_4  and  C_5
REMARK    6  A    between atoms: C_6  and  S_7
REMARK    7  A    between atoms: S_7  and  C_8
REMARK    8  A    between atoms: C_8  and  C_9
REMARK    9  A    between atoms: C_15  and  C_16
REMARK   10  A    between atoms: C_15  and  N_21
REMARK                            x       y       z     vdW  Elec       q    Type
REMARK                         _______ _______ _______ _____ _____    ______ ____
ROOT
ATOM      1  C   UNL     1       3.983   4.956  17.548  0.00  0.00    +0.000 C 
ATOM      2  C   UNL     1       2.804   4.905  18.235  0.00  0.00    +0.000 C 
ENDROOT
BRANCH   2   3
ATOM      3  C   UNL     1       2.385   5.744  19.357  0.00  0.00    +0.000 C 
ATOM      4 CL   UNL     1       2.412   4.943  20.917  0.00  0.00    +0.000 Cl
ATOM      5  C   UNL     1       2.126   7.067  19.285  0.00  0.00    +0.000 C 
ATOM      6 CL   UNL     1       1.787   8.039  20.687  0.00  0.00    +0.000 Cl
ATOM      7 CL   UNL     1       2.105   7.948  17.789  0.00  0.00    +0.000 Cl
ENDBRANCH   2   3
BRANCH   2   8
ATOM      8  N   UNL     1       1.758   3.993  17.788  0.00  0.00    +0.000 N 
ATOM      9  O   UNL     1       1.854   2.816  18.170  0.00  0.00    +0.000 OA
ATOM     10  O   UNL     1       0.892   4.426  17.021  0.00  0.00    +0.000 OA
ENDBRANCH   2   8
BRANCH   1  11
ATOM     11  N   UNL     1       5.078   5.740  18.017  0.00  0.00    +0.000 N 
BRANCH  11  13
ATOM     12  C   UNL     1       5.700   3.915  19.597  0.00  0.00    +0.000 C 
ATOM     13  C   UNL     1       5.793   5.396  19.265  0.00  0.00    +0.000 C 
ENDBRANCH  11  13
BRANCH  11  14
ATOM     14  C   UNL     1       5.446   7.028  17.397  0.00  0.00    +0.000 C 
ATOM     15  C   UNL     1       6.942   7.278  17.372  0.00  0.00    +0.000 C 
ENDBRANCH  11  14
ENDBRANCH   1  11
BRANCH   1  16
ATOM     16  S   UNL     1       4.295   3.951  16.092  0.00  0.00    +0.000 S 
BRANCH  16  17
ATOM     17  C   UNL     1       6.107   4.028  15.895  0.00  0.00    +0.000 C 
BRANCH  17  18
ATOM     18  C   UNL     1       6.535   4.164  14.450  0.00  0.00    +0.000 A 
ATOM     19  C   UNL     1       5.953   3.367  13.451  0.00  0.00    +0.000 A 
ATOM     20  C   UNL     1       6.306   3.535  12.108  0.00  0.00    +0.000 A 
ATOM     21  C   UNL     1       7.248   4.496  11.748  0.00  0.00    +0.000 A 
ATOM     22  C   UNL     1       7.843   5.282  12.732  0.00  0.00    +0.000 A 
ATOM     23  C   UNL     1       7.493   5.115  14.075  0.00  0.00    +0.000 A 
ENDBRANCH  17  18
ENDBRANCH  16  17
ENDBRANCH   1  16
TORSDOF 8
ENDMDL
MODEL 8
REMARK VINA RESULT:      -5.8      1.913      2.815
REMARK  Name = 
REMARK  10 active torsions:
REMARK  status: ('A' for Active; 'I' for Inactive)
REMARK    1  A    between atoms: C_1  and  C_2
REMARK    2  A    between atoms: C_2  and  N_3
REMARK    3  A    between atoms: N_3  and  C_4
REMARK    4  A    between atoms: N_3  and  C_6
REMARK    5  A    between atoms: C_4  and  C_5
REMARK    6  A    between atoms: C_6  and  S_7
REMARK    7  A    between atoms: S_7  and  C_8
REMARK    8  A    between atoms: C_8  and  C_9
REMARK    9  A    between atoms: C_15  and  C_16
REMARK   10  A    between atoms: C_15  and  N_21
REMARK                            x       y       z     vdW  Elec       q    Type
REMARK                         _______ _______ _______ _____ _____    ______ ____
ROOT
ATOM      1  C   UNL     1       4.058   4.159  17.969  0.00  0.00    +0.000 C 
ATOM      2  C   UNL     1       3.574   3.020  18.544  0.00  0.00    +0.000 C 
ENDROOT
BRANCH   2   3
ATOM      3  C   UNL     1       3.275   2.787  19.956  0.00  0.00    +0.000 C 
ATOM      4 CL   UNL     1       4.637   2.222  20.908  0.00  0.00    +0.000 Cl
ATOM      5  C   UNL     1       2.112   3.097  20.567  0.00  0.00    +0.000 C 
ATOM      6 CL   UNL     1       1.877   2.942  22.284  0.00  0.00    +0.000 Cl
ATOM      7 CL   UNL     1       0.721   3.689  19.711  0.00  0.00    +0.000 Cl
ENDBRANCH   2   3
BRANCH   2   8
ATOM      8  N   UNL     1       3.202   1.895  17.694  0.00  0.00    +0.000 N 
ATOM      9  O   UNL     1       4.020   0.965  17.623  0.00  0.00    +0.000 OA
ATOM     10  O   UNL     1       2.144   1.964  17.061  0.00  0.00    +0.000 OA
ENDBRANCH   2   8
BRANCH   1  11
ATOM     11  N   UNL     1       4.549   5.237  18.763  0.00  0.00    +0.000 N 
BRANCH  11  13
ATOM     12  C   UNL     1       2.622   6.525  19.681  0.00  0.00    +0.000 C 
ATOM     13  C   UNL     1       3.859   6.545  18.798  0.00  0.00    +0.000 C 
ENDBRANCH  11  13
BRANCH  11  14
ATOM     14  C   UNL     1       5.856   5.180  19.447  0.00  0.00    +0.000 C 
ATOM     15  C   UNL     1       6.976   5.832  18.659  0.00  0.00    +0.000 C 
ENDBRANCH  11  14
ENDBRANCH   1  11
BRANCH   1  16
ATOM     16  S   UNL     1       4.237   4.342  16.191  0.00  0.00    +0.000 S 
BRANCH  16  17
ATOM     17  C   UNL     1       5.956   3.820  15.875  0.00  0.00    +0.000 C 
BRANCH  17  18
ATOM     18  C   UNL     1       6.399   4.088  14.453  0.00  0.00    +0.000 A 
ATOM     19  C   UNL     1       7.390   5.045  14.179  0.00  0.00    +0.000 A 
ATOM     20  C   UNL     1       7.842   5.249  12.872  0.00  0.00    +0.000 A 
ATOM     21  C   UNL     1       7.307   4.505  11.823  0.00  0.00    +0.000 A 
ATOM     22  C   UNL     1       6.314   3.564  12.080  0.00  0.00    +0.000 A 
ATOM     23  C   UNL     1       5.859   3.358  13.386  0.00  0.00    +0.000 A 
ENDBRANCH  17  18
ENDBRANCH  16  17
ENDBRANCH   1  16
TORSDOF 8
ENDMDL
MODEL 9
REMARK VINA RESULT:      -5.8      1.846      2.492
REMARK  Name = 
REMARK  10 active torsions:
REMARK  status: ('A' for Active; 'I' for Inactive)
REMARK    1  A    between atoms: C_1  and  C_2
REMARK    2  A    between atoms: C_2  and  N_3
REMARK    3  A    between atoms: N_3  and  C_4
REMARK    4  A    between atoms: N_3  and  C_6
REMARK    5  A    between atoms: C_4  and  C_5
REMARK    6  A    between atoms: C_6  and  S_7
REMARK    7  A    between atoms: S_7  and  C_8
REMARK    8  A    between atoms: C_8  and  C_9
REMARK    9  A    between atoms: C_15  and  C_16
REMARK   10  A    between atoms: C_15  and  N_21
REMARK                            x       y       z     vdW  Elec       q    Type
REMARK                         _______ _______ _______ _____ _____    ______ ____
ROOT
ATOM      1  C   UNL     1       4.159   4.145  17.992  0.00  0.00    +0.000 C 
ATOM      2  C   UNL     1       3.656   3.025  18.588  0.00  0.00    +0.000 C 
ENDROOT
BRANCH   2   3
ATOM      3  C   UNL     1       3.374   2.816  20.008  0.00  0.00    +0.000 C 
ATOM      4 CL   UNL     1       4.661   2.024  20.900  0.00  0.00    +0.000 Cl
ATOM      5  C   UNL     1       2.297   3.295  20.666  0.00  0.00    +0.000 C 
ATOM      6 CL   UNL     1       2.101   3.148  22.388  0.00  0.00    +0.000 Cl
ATOM      7 CL   UNL     1       0.989   4.116  19.871  0.00  0.00    +0.000 Cl
ENDBRANCH   2   3
BRANCH   2   8
ATOM      8  N   UNL     1       3.241   1.900  17.758  0.00  0.00    +0.000 N 
ATOM      9  O   UNL     1       4.042   0.957  17.668  0.00  0.00    +0.000 OA
ATOM     10  O   UNL     1       2.166   1.982  17.156  0.00  0.00    +0.000 OA
ENDBRANCH   2   8
BRANCH   1  11
ATOM     11  N   UNL     1       4.691   5.219  18.766  0.00  0.00    +0.000 N 
BRANCH  11  13
ATOM     12  C   UNL     1       7.022   6.092  18.637  0.00  0.00    +0.000 C 
ATOM     13  C   UNL     1       6.053   5.155  19.340  0.00  0.00    +0.000 C 
ENDBRANCH  11  13
BRANCH  11  14
ATOM     14  C   UNL     1       3.864   6.365  19.194  0.00  0.00    +0.000 C 
ATOM     15  C   UNL     1       3.152   7.055  18.045  0.00  0.00    +0.000 C 
ENDBRANCH  11  14
ENDBRANCH   1  11
BRANCH   1  16
ATOM     16  S   UNL     1       4.315   4.303  16.210  0.00  0.00    +0.000 S 
BRANCH  16  17
ATOM     17  C   UNL     1       6.118   4.308  15.932  0.00  0.00    +0.000 C 
BRANCH  17  18
ATOM     18  C   UNL     1       6.486   4.331  14.466  0.00  0.00    +0.000 A 
ATOM     19  C   UNL     1       7.504   5.177  13.995  0.00  0.00    +0.000 A 
ATOM     20  C   UNL     1       7.886   5.154  12.650  0.00  0.00    +0.000 A 
ATOM     21  C   UNL     1       7.252   4.292  11.758  0.00  0.00    +0.000 A 
ATOM     22  C   UNL     1       6.232   3.458  12.210  0.00  0.00    +0.000 A 
ATOM     23  C   UNL     1       5.848   3.480  13.554  0.00  0.00    +0.000 A 
ENDBRANCH  17  18
ENDBRANCH  16  17
ENDBRANCH   1  16
TORSDOF 8
ENDMDL
