MODEL 1
REMARK VINA RESULT:      -8.4      0.000      0.000
REMARK  Name = 
REMARK  6 active torsions:
REMARK  status: ('A' for Active; 'I' for Inactive)
REMARK    1  A    between atoms: C_1  and  C_2
REMARK    2  A    between atoms: C_4  and  C_5
REMARK    3  A    between atoms: N_7  and  C_8
REMARK    4  A    between atoms: C_11  and  N_12
REMARK    5  A    between atoms: C_16  and  C_17
REMARK    6  A    between atoms: N_21  and  C_22
REMARK                            x       y       z     vdW  Elec       q    Type
REMARK                         _______ _______ _______ _____ _____    ______ ____
ROOT
ATOM      1  C   UNL     1       4.423   0.926  21.666  0.00  0.00    +0.000 C 
ATOM      2  C   UNL     1       4.176   2.108  20.806  0.00  0.00    +0.000 A 
ATOM      3  C   UNL     1       3.275   3.168  21.020  0.00  0.00    +0.000 A 
ATOM      4  C   UNL     1       3.405   3.987  19.911  0.00  0.00    +0.000 A 
ATOM      5  N   UNL     1       4.444   3.454  19.164  0.00  0.00    +0.000 N 
ATOM      6  N   UNL     1       4.834   2.249  19.654  0.00  0.00    +0.000 NA
ENDROOT
BRANCH   5   7
ATOM      7  C   UNL     1       5.175   4.027  18.085  0.00  0.00    +0.000 A 
ATOM      8  C   UNL     1       6.112   5.042  18.302  0.00  0.00    +0.000 A 
ATOM      9  C   UNL     1       6.858   5.546  17.231  0.00  0.00    +0.000 A 
ATOM     10  C   UNL     1       6.669   5.057  15.932  0.00  0.00    +0.000 A 
ATOM     11  C   UNL     1       7.418   5.553  14.850  0.00  0.00    +0.000 A 
ATOM     12  C   UNL     1       7.208   5.063  13.563  0.00  0.00    +0.000 A 
ATOM     13 CL   UNL     1       8.146   5.674  12.256  0.00  0.00    +0.000 Cl
ATOM     14  C   UNL     1       6.253   4.081  13.328  0.00  0.00    +0.000 A 
ATOM     15  C   UNL     1       5.508   3.571  14.393  0.00  0.00    +0.000 A 
ATOM     16  C   UNL     1       5.714   4.041  15.703  0.00  0.00    +0.000 A 
ATOM     17  C   UNL     1       4.990   3.520  16.790  0.00  0.00    +0.000 A 
ENDBRANCH   5   7
BRANCH   4  18
ATOM     18  C   UNL     1       2.564   5.075  19.491  0.00  0.00    +0.000 C 
ATOM     19  O   UNL     1       1.655   4.922  18.675  0.00  0.00    +0.000 OA
ATOM     20  N   UNL     1       2.901   6.302  20.036  0.00  0.00    +0.000 N 
ATOM     21  H   UNL     1       3.855   6.409  20.364  0.00  0.00    +0.000 HD
BRANCH  20  22
ATOM     22  C   UNL     1       2.199   7.485  19.722  0.00  0.00    +0.000 A 
ATOM     23  C   UNL     1       1.350   8.101  20.643  0.00  0.00    +0.000 A 
ATOM     24  C   UNL     1       0.684   9.282  20.305  0.00  0.00    +0.000 A 
ATOM     25  C   UNL     1       0.843   9.849  19.034  0.00  0.00    +0.000 A 
ATOM     26  C   UNL     1       1.653   9.203  18.091  0.00  0.00    +0.000 A 
ATOM     27  C   UNL     1       2.352   8.054  18.458  0.00  0.00    +0.000 A 
ATOM     28  F   UNL     1       3.146   7.457  17.555  0.00  0.00    +0.000 F 
BRANCH  25  29
ATOM     29  N   UNL     1       0.184  11.062  18.695  0.00  0.00    +0.000 N 
ATOM     30  C   UNL     1       0.699  12.329  18.875  0.00  0.00    +0.000 A 
ATOM     31  C   UNL     1      -0.235  13.198  18.371  0.00  0.00    +0.000 A 
ATOM     32  N   UNL     1      -1.334  12.522  17.934  0.00  0.00    +0.000 NA
ATOM     33  C   UNL     1      -1.093  11.244  18.168  0.00  0.00    +0.000 A 
ATOM     34  C   UNL     1      -2.128  10.181  18.039  0.00  0.00    +0.000 C 
ENDBRANCH  25  29
ENDBRANCH  20  22
ENDBRANCH   4  18
TORSDOF 4
ENDMDL
MODEL 2
REMARK VINA RESULT:      -8.1      0.894      1.579
REMARK  Name = 
REMARK  6 active torsions:
REMARK  status: ('A' for Active; 'I' for Inactive)
REMARK    1  A    between atoms: C_1  and  C_2
REMARK    2  A    between atoms: C_4  and  C_5
REMARK    3  A    between atoms: N_7  and  C_8
REMARK    4  A    between atoms: C_11  and  N_12
REMARK    5  A    between atoms: C_16  and  C_17
REMARK    6  A    between atoms: N_21  and  C_22
REMARK                            x       y       z     vdW  Elec       q    Type
REMARK                         _______ _______ _______ _____ _____    ______ ____
ROOT
ATOM      1  C   UNL     1       4.400   1.048  21.643  0.00  0.00    +0.000 C 
ATOM      2  C   UNL     1       4.175   2.212  20.752  0.00  0.00    +0.000 A 
ATOM      3  C   UNL     1       3.281   3.285  20.930  0.00  0.00    +0.000 A 
ATOM      4  C   UNL     1       3.433   4.076  19.802  0.00  0.00    +0.000 A 
ATOM      5  N   UNL     1       4.475   3.515  19.081  0.00  0.00    +0.000 N 
ATOM      6  N   UNL     1       4.847   2.319  19.605  0.00  0.00    +0.000 NA
ENDROOT
BRANCH   5   7
ATOM      7  C   UNL     1       5.224   4.056  17.998  0.00  0.00    +0.000 A 
ATOM      8  C   UNL     1       6.239   4.993  18.214  0.00  0.00    +0.000 A 
ATOM      9  C   UNL     1       6.998   5.462  17.137  0.00  0.00    +0.000 A 
ATOM     10  C   UNL     1       6.746   5.017  15.833  0.00  0.00    +0.000 A 
ATOM     11  C   UNL     1       7.507   5.480  14.744  0.00  0.00    +0.000 A 
ATOM     12  C   UNL     1       7.235   5.034  13.453  0.00  0.00    +0.000 A 
ATOM     13 CL   UNL     1       8.188   5.601  12.138  0.00  0.00    +0.000 Cl
ATOM     14  C   UNL     1       6.204   4.131  13.220  0.00  0.00    +0.000 A 
ATOM     15  C   UNL     1       5.445   3.655  14.291  0.00  0.00    +0.000 A 
ATOM     16  C   UNL     1       5.713   4.080  15.605  0.00  0.00    +0.000 A 
ATOM     17  C   UNL     1       4.974   3.592  16.697  0.00  0.00    +0.000 A 
ENDBRANCH   5   7
BRANCH   4  18
ATOM     18  C   UNL     1       2.606   5.161  19.347  0.00  0.00    +0.000 C 
ATOM     19  O   UNL     1       1.733   5.005  18.493  0.00  0.00    +0.000 OA
ATOM     20  N   UNL     1       2.917   6.389  19.904  0.00  0.00    +0.000 N 
ATOM     21  H   UNL     1       3.855   6.500  20.273  0.00  0.00    +0.000 HD
BRANCH  20  22
ATOM     22  C   UNL     1       2.225   7.570  19.560  0.00  0.00    +0.000 A 
ATOM     23  C   UNL     1       2.322   8.131  18.286  0.00  0.00    +0.000 A 
ATOM     24  C   UNL     1       1.609   9.292  17.972  0.00  0.00    +0.000 A 
ATOM     25  C   UNL     1       0.808   9.916  18.937  0.00  0.00    +0.000 A 
ATOM     26  C   UNL     1       0.752   9.384  20.232  0.00  0.00    +0.000 A 
ATOM     27  C   UNL     1       1.427   8.196  20.516  0.00  0.00    +0.000 A 
ATOM     28  F   UNL     1       1.346   7.680  21.752  0.00  0.00    +0.000 F 
BRANCH  25  29
ATOM     29  N   UNL     1       0.065  11.085  18.615  0.00  0.00    +0.000 N 
ATOM     30  C   UNL     1      -1.252  11.107  18.206  0.00  0.00    +0.000 A 
ATOM     31  C   UNL     1      -1.584  12.429  18.054  0.00  0.00    +0.000 A 
ATOM     32  N   UNL     1      -0.508  13.227  18.301  0.00  0.00    +0.000 NA
ATOM     33  C   UNL     1       0.489  12.412  18.599  0.00  0.00    +0.000 A 
ATOM     34  C   UNL     1       1.902  12.863  18.724  0.00  0.00    +0.000 C 
ENDBRANCH  25  29
ENDBRANCH  20  22
ENDBRANCH   4  18
TORSDOF 4
ENDMDL
MODEL 3
REMARK VINA RESULT:      -8.1      0.428      1.080
REMARK  Name = 
REMARK  6 active torsions:
REMARK  status: ('A' for Active; 'I' for Inactive)
REMARK    1  A    between atoms: C_1  and  C_2
REMARK    2  A    between atoms: C_4  and  C_5
REMARK    3  A    between atoms: N_7  and  C_8
REMARK    4  A    between atoms: C_11  and  N_12
REMARK    5  A    between atoms: C_16  and  C_17
REMARK    6  A    between atoms: N_21  and  C_22
REMARK                            x       y       z     vdW  Elec       q    Type
REMARK                         _______ _______ _______ _____ _____    ______ ____
ROOT
ATOM      1  C   UNL     1       4.406   0.903  21.689  0.00  0.00    +0.000 C 
ATOM      2  C   UNL     1       4.163   2.083  20.825  0.00  0.00    +0.000 A 
ATOM      3  C   UNL     1       3.264   3.146  21.035  0.00  0.00    +0.000 A 
ATOM      4  C   UNL     1       3.397   3.960  19.922  0.00  0.00    +0.000 A 
ATOM      5  N   UNL     1       4.434   3.421  19.177  0.00  0.00    +0.000 N 
ATOM      6  N   UNL     1       4.820   2.217  19.672  0.00  0.00    +0.000 NA
ENDROOT
BRANCH   5   7
ATOM      7  C   UNL     1       5.167   3.988  18.096  0.00  0.00    +0.000 A 
ATOM      8  C   UNL     1       6.127   4.981  18.312  0.00  0.00    +0.000 A 
ATOM      9  C   UNL     1       6.873   5.478  17.238  0.00  0.00    +0.000 A 
ATOM     10  C   UNL     1       6.662   5.004  15.937  0.00  0.00    +0.000 A 
ATOM     11  C   UNL     1       7.410   5.493  14.852  0.00  0.00    +0.000 A 
ATOM     12  C   UNL     1       7.179   5.017  13.563  0.00  0.00    +0.000 A 
ATOM     13 CL   UNL     1       8.117   5.620  12.252  0.00  0.00    +0.000 Cl
ATOM     14  C   UNL     1       6.201   4.057  13.329  0.00  0.00    +0.000 A 
ATOM     15  C   UNL     1       5.456   3.554  14.397  0.00  0.00    +0.000 A 
ATOM     16  C   UNL     1       5.684   4.009  15.709  0.00  0.00    +0.000 A 
ATOM     17  C   UNL     1       4.959   3.495  16.798  0.00  0.00    +0.000 A 
ENDBRANCH   5   7
BRANCH   4  18
ATOM     18  C   UNL     1       2.559   5.048  19.498  0.00  0.00    +0.000 C 
ATOM     19  O   UNL     1       1.648   4.895  18.684  0.00  0.00    +0.000 OA
ATOM     20  N   UNL     1       2.901   6.277  20.035  0.00  0.00    +0.000 N 
ATOM     21  H   UNL     1       3.856   6.383  20.362  0.00  0.00    +0.000 HD
BRANCH  20  22
ATOM     22  C   UNL     1       2.203   7.461  19.716  0.00  0.00    +0.000 A 
ATOM     23  C   UNL     1       1.368   8.092  20.640  0.00  0.00    +0.000 A 
ATOM     24  C   UNL     1       0.705   9.273  20.297  0.00  0.00    +0.000 A 
ATOM     25  C   UNL     1       0.854   9.826  19.019  0.00  0.00    +0.000 A 
ATOM     26  C   UNL     1       1.650   9.166  18.073  0.00  0.00    +0.000 A 
ATOM     27  C   UNL     1       2.346   8.016  18.445  0.00  0.00    +0.000 A 
ATOM     28  F   UNL     1       3.127   7.405  17.540  0.00  0.00    +0.000 F 
BRANCH  25  29
ATOM     29  N   UNL     1       0.198  11.040  18.674  0.00  0.00    +0.000 N 
ATOM     30  C   UNL     1      -1.129  11.158  18.317  0.00  0.00    +0.000 A 
ATOM     31  C   UNL     1      -1.355  12.495  18.117  0.00  0.00    +0.000 A 
ATOM     32  N   UNL     1      -0.205  13.208  18.284  0.00  0.00    +0.000 NA
ATOM     33  C   UNL     1       0.731  12.324  18.579  0.00  0.00    +0.000 A 
ATOM     34  C   UNL     1       2.182  12.656  18.627  0.00  0.00    +0.000 C 
ENDBRANCH  25  29
ENDBRANCH  20  22
ENDBRANCH   4  18
TORSDOF 4
ENDMDL
MODEL 4
REMARK VINA RESULT:      -8.1      3.563      9.327
REMARK  Name = 
REMARK  6 active torsions:
REMARK  status: ('A' for Active; 'I' for Inactive)
REMARK    1  A    between atoms: C_1  and  C_2
REMARK    2  A    between atoms: C_4  and  C_5
REMARK    3  A    between atoms: N_7  and  C_8
REMARK    4  A    between atoms: C_11  and  N_12
REMARK    5  A    between atoms: C_16  and  C_17
REMARK    6  A    between atoms: N_21  and  C_22
REMARK                            x       y       z     vdW  Elec       q    Type
REMARK                         _______ _______ _______ _____ _____    ______ ____
ROOT
ATOM      1  C   UNL     1      -1.409  13.897  23.714  0.00  0.00    +0.000 C 
ATOM      2  C   UNL     1      -1.346  12.811  22.708  0.00  0.00    +0.000 A 
ATOM      3  C   UNL     1      -0.777  11.530  22.843  0.00  0.00    +0.000 A 
ATOM      4  C   UNL     1      -0.950  10.923  21.609  0.00  0.00    +0.000 A 
ATOM      5  N   UNL     1      -1.705  11.805  20.853  0.00  0.00    +0.000 N 
ATOM      6  N   UNL     1      -1.847  12.998  21.486  0.00  0.00    +0.000 NA
ENDROOT
BRANCH   5   7
ATOM      7  C   UNL     1      -2.395  11.590  19.626  0.00  0.00    +0.000 A 
ATOM      8  C   UNL     1      -3.634  12.188  19.377  0.00  0.00    +0.000 A 
ATOM      9  C   UNL     1      -4.262  12.006  18.140  0.00  0.00    +0.000 A 
ATOM     10  C   UNL     1      -3.672  11.216  17.145  0.00  0.00    +0.000 A 
ATOM     11  C   UNL     1      -4.293  11.031  15.897  0.00  0.00    +0.000 A 
ATOM     12  C   UNL     1      -3.696  10.233  14.923  0.00  0.00    +0.000 A 
ATOM     13 CL   UNL     1      -4.467  10.033  13.398  0.00  0.00    +0.000 Cl
ATOM     14  C   UNL     1      -2.483   9.603  15.173  0.00  0.00    +0.000 A 
ATOM     15  C   UNL     1      -1.849   9.784  16.403  0.00  0.00    +0.000 A 
ATOM     16  C   UNL     1      -2.426  10.597  17.395  0.00  0.00    +0.000 A 
ATOM     17  C   UNL     1      -1.789  10.810  18.630  0.00  0.00    +0.000 A 
ENDBRANCH   5   7
BRANCH   4  18
ATOM     18  C   UNL     1      -0.355   9.712  21.112  0.00  0.00    +0.000 C 
ATOM     19  O   UNL     1      -0.735   8.599  21.475  0.00  0.00    +0.000 OA
ATOM     20  N   UNL     1       0.706   9.910  20.245  0.00  0.00    +0.000 N 
ATOM     21  H   UNL     1       1.188  10.800  20.309  0.00  0.00    +0.000 HD
BRANCH  20  22
ATOM     22  C   UNL     1       1.424   8.837  19.675  0.00  0.00    +0.000 A 
ATOM     23  C   UNL     1       1.862   7.757  20.442  0.00  0.00    +0.000 A 
ATOM     24  C   UNL     1       2.555   6.702  19.842  0.00  0.00    +0.000 A 
ATOM     25  C   UNL     1       2.836   6.726  18.470  0.00  0.00    +0.000 A 
ATOM     26  C   UNL     1       2.443   7.835  17.708  0.00  0.00    +0.000 A 
ATOM     27  C   UNL     1       1.707   8.856  18.310  0.00  0.00    +0.000 A 
ATOM     28  F   UNL     1       1.312   9.901  17.565  0.00  0.00    +0.000 F 
BRANCH  25  29
ATOM     29  N   UNL     1       3.521   5.645  17.852  0.00  0.00    +0.000 N 
ATOM     30  C   UNL     1       3.079   4.340  17.808  0.00  0.00    +0.000 A 
ATOM     31  C   UNL     1       4.010   3.644  17.079  0.00  0.00    +0.000 A 
ATOM     32  N   UNL     1       5.041   4.456  16.716  0.00  0.00    +0.000 NA
ATOM     33  C   UNL     1       4.761   5.647  17.216  0.00  0.00    +0.000 A 
ATOM     34  C   UNL     1       5.734   6.774  17.235  0.00  0.00    +0.000 C 
ENDBRANCH  25  29
ENDBRANCH  20  22
ENDBRANCH   4  18
TORSDOF 4
ENDMDL
MODEL 5
REMARK VINA RESULT:      -8.0      1.875      2.307
REMARK  Name = 
REMARK  6 active torsions:
REMARK  status: ('A' for Active; 'I' for Inactive)
REMARK    1  A    between atoms: C_1  and  C_2
REMARK    2  A    between atoms: C_4  and  C_5
REMARK    3  A    between atoms: N_7  and  C_8
REMARK    4  A    between atoms: C_11  and  N_12
REMARK    5  A    between atoms: C_16  and  C_17
REMARK    6  A    between atoms: N_21  and  C_22
REMARK                            x       y       z     vdW  Elec       q    Type
REMARK                         _______ _______ _______ _____ _____    ______ ____
ROOT
ATOM      1  C   UNL     1       1.943   2.235  21.696  0.00  0.00    +0.000 C 
ATOM      2  C   UNL     1       2.325   3.438  20.918  0.00  0.00    +0.000 A 
ATOM      3  C   UNL     1       1.957   4.777  21.149  0.00  0.00    +0.000 A 
ATOM      4  C   UNL     1       2.545   5.498  20.122  0.00  0.00    +0.000 A 
ATOM      5  N   UNL     1       3.319   4.591  19.414  0.00  0.00    +0.000 N 
ATOM      6  N   UNL     1       3.093   3.320  19.834  0.00  0.00    +0.000 NA
ENDROOT
BRANCH   5   7
ATOM      7  C   UNL     1       4.334   4.826  18.444  0.00  0.00    +0.000 A 
ATOM      8  C   UNL     1       5.562   5.391  18.800  0.00  0.00    +0.000 A 
ATOM      9  C   UNL     1       6.562   5.556  17.836  0.00  0.00    +0.000 A 
ATOM     10  C   UNL     1       6.346   5.175  16.505  0.00  0.00    +0.000 A 
ATOM     11  C   UNL     1       7.347   5.332  15.530  0.00  0.00    +0.000 A 
ATOM     12  C   UNL     1       7.109   4.958  14.209  0.00  0.00    +0.000 A 
ATOM     13 CL   UNL     1       8.354   5.145  13.036  0.00  0.00    +0.000 Cl
ATOM     14  C   UNL     1       5.880   4.430  13.834  0.00  0.00    +0.000 A 
ATOM     15  C   UNL     1       4.879   4.259  14.793  0.00  0.00    +0.000 A 
ATOM     16  C   UNL     1       5.102   4.616  16.135  0.00  0.00    +0.000 A 
ATOM     17  C   UNL     1       4.113   4.427  17.117  0.00  0.00    +0.000 A 
ENDBRANCH   5   7
BRANCH   4  18
ATOM     18  C   UNL     1       2.308   6.860  19.729  0.00  0.00    +0.000 C 
ATOM     19  O   UNL     1       2.781   7.337  18.697  0.00  0.00    +0.000 OA
ATOM     20  N   UNL     1       1.559   7.594  20.633  0.00  0.00    +0.000 N 
ATOM     21  H   UNL     1       1.550   7.264  21.592  0.00  0.00    +0.000 HD
BRANCH  20  22
ATOM     22  C   UNL     1       1.245   8.954  20.424  0.00  0.00    +0.000 A 
ATOM     23  C   UNL     1       1.194   9.507  19.144  0.00  0.00    +0.000 A 
ATOM     24  C   UNL     1       0.863  10.854  18.972  0.00  0.00    +0.000 A 
ATOM     25  C   UNL     1       0.599  11.668  20.081  0.00  0.00    +0.000 A 
ATOM     26  C   UNL     1       0.702  11.127  21.369  0.00  0.00    +0.000 A 
ATOM     27  C   UNL     1       0.982   9.770  21.524  0.00  0.00    +0.000 A 
ATOM     28  F   UNL     1       1.053   9.255  22.762  0.00  0.00    +0.000 F 
BRANCH  25  29
ATOM     29  N   UNL     1       0.240  13.032  19.908  0.00  0.00    +0.000 N 
ATOM     30  C   UNL     1       1.125  14.086  19.817  0.00  0.00    +0.000 A 
ATOM     31  C   UNL     1       0.365  15.208  19.606  0.00  0.00    +0.000 A 
ATOM     32  N   UNL     1      -0.962  14.899  19.617  0.00  0.00    +0.000 NA
ATOM     33  C   UNL     1      -1.032  13.599  19.837  0.00  0.00    +0.000 A 
ATOM     34  C   UNL     1      -2.305  12.889  20.140  0.00  0.00    +0.000 C 
ENDBRANCH  25  29
ENDBRANCH  20  22
ENDBRANCH   4  18
TORSDOF 4
ENDMDL
MODEL 6
REMARK VINA RESULT:      -7.9      3.740      9.168
REMARK  Name = 
REMARK  6 active torsions:
REMARK  status: ('A' for Active; 'I' for Inactive)
REMARK    1  A    between atoms: C_1  and  C_2
REMARK    2  A    between atoms: C_4  and  C_5
REMARK    3  A    between atoms: N_7  and  C_8
REMARK    4  A    between atoms: C_11  and  N_12
REMARK    5  A    between atoms: C_16  and  C_17
REMARK    6  A    between atoms: N_21  and  C_22
REMARK                            x       y       z     vdW  Elec       q    Type
REMARK                         _______ _______ _______ _____ _____    ______ ____
ROOT
ATOM      1  C   UNL     1      -2.254  13.875  23.441  0.00  0.00    +0.000 C 
ATOM      2  C   UNL     1      -1.421  13.165  22.441  0.00  0.00    +0.000 A 
ATOM      3  C   UNL     1      -1.700  11.955  21.777  0.00  0.00    +0.000 A 
ATOM      4  C   UNL     1      -0.591  11.713  20.982  0.00  0.00    +0.000 A 
ATOM      5  N   UNL     1       0.223  12.827  21.112  0.00  0.00    +0.000 N 
ATOM      6  N   UNL     1      -0.233  13.656  22.087  0.00  0.00    +0.000 NA
ENDROOT
BRANCH   5   7
ATOM      7  C   UNL     1       1.339  13.234  20.328  0.00  0.00    +0.000 A 
ATOM      8  C   UNL     1       1.311  13.159  18.932  0.00  0.00    +0.000 A 
ATOM      9  C   UNL     1       2.399  13.620  18.185  0.00  0.00    +0.000 A 
ATOM     10  C   UNL     1       3.532  14.148  18.818  0.00  0.00    +0.000 A 
ATOM     11  C   UNL     1       4.630  14.620  18.075  0.00  0.00    +0.000 A 
ATOM     12  C   UNL     1       5.752  15.131  18.723  0.00  0.00    +0.000 A 
ATOM     13 CL   UNL     1       7.077  15.716  17.793  0.00  0.00    +0.000 Cl
ATOM     14  C   UNL     1       5.808  15.177  20.111  0.00  0.00    +0.000 A 
ATOM     15  C   UNL     1       4.723  14.721  20.862  0.00  0.00    +0.000 A 
ATOM     16  C   UNL     1       3.573  14.215  20.229  0.00  0.00    +0.000 A 
ATOM     17  C   UNL     1       2.462  13.776  20.971  0.00  0.00    +0.000 A 
ENDBRANCH   5   7
BRANCH   4  18
ATOM     18  C   UNL     1      -0.234  10.510  20.279  0.00  0.00    +0.000 C 
ATOM     19  O   UNL     1      -0.938  10.040  19.386  0.00  0.00    +0.000 OA
ATOM     20  N   UNL     1       0.927   9.907  20.732  0.00  0.00    +0.000 N 
ATOM     21  H   UNL     1       1.214  10.123  21.680  0.00  0.00    +0.000 HD
BRANCH  20  22
ATOM     22  C   UNL     1       1.420   8.708  20.175  0.00  0.00    +0.000 A 
ATOM     23  C   UNL     1       1.377   7.502  20.876  0.00  0.00    +0.000 A 
ATOM     24  C   UNL     1       1.858   6.328  20.288  0.00  0.00    +0.000 A 
ATOM     25  C   UNL     1       2.407   6.353  18.999  0.00  0.00    +0.000 A 
ATOM     26  C   UNL     1       2.500   7.573  18.316  0.00  0.00    +0.000 A 
ATOM     27  C   UNL     1       1.968   8.726  18.894  0.00  0.00    +0.000 A 
ATOM     28  F   UNL     1       2.039   9.885  18.219  0.00  0.00    +0.000 F 
BRANCH  25  29
ATOM     29  N   UNL     1       2.877   5.158  18.390  0.00  0.00    +0.000 N 
ATOM     30  C   UNL     1       2.093   4.236  17.729  0.00  0.00    +0.000 A 
ATOM     31  C   UNL     1       2.948   3.273  17.257  0.00  0.00    +0.000 A 
ATOM     32  N   UNL     1       4.228   3.534  17.645  0.00  0.00    +0.000 NA
ATOM     33  C   UNL     1       4.173   4.645  18.358  0.00  0.00    +0.000 A 
ATOM     34  C   UNL     1       5.320   5.163  19.153  0.00  0.00    +0.000 C 
ENDBRANCH  25  29
ENDBRANCH  20  22
ENDBRANCH   4  18
TORSDOF 4
ENDMDL
MODEL 7
REMARK VINA RESULT:      -7.8      3.871      9.713
REMARK  Name = 
REMARK  6 active torsions:
REMARK  status: ('A' for Active; 'I' for Inactive)
REMARK    1  A    between atoms: C_1  and  C_2
REMARK    2  A    between atoms: C_4  and  C_5
REMARK    3  A    between atoms: N_7  and  C_8
REMARK    4  A    between atoms: C_11  and  N_12
REMARK    5  A    between atoms: C_16  and  C_17
REMARK    6  A    between atoms: N_21  and  C_22
REMARK                            x       y       z     vdW  Elec       q    Type
REMARK                         _______ _______ _______ _____ _____    ______ ____
ROOT
ATOM      1  C   UNL     1      -2.646  14.470  24.110  0.00  0.00    +0.000 C 
ATOM      2  C   UNL     1      -2.179  13.628  22.982  0.00  0.00    +0.000 A 
ATOM      3  C   UNL     1      -1.049  12.790  22.931  0.00  0.00    +0.000 A 
ATOM      4  C   UNL     1      -1.045  12.263  21.649  0.00  0.00    +0.000 A 
ATOM      5  N   UNL     1      -2.215  12.705  21.052  0.00  0.00    +0.000 N 
ATOM      6  N   UNL     1      -2.844  13.626  21.826  0.00  0.00    +0.000 NA
ENDROOT
BRANCH   5   7
ATOM      7  C   UNL     1      -2.849  12.261  19.857  0.00  0.00    +0.000 A 
ATOM      8  C   UNL     1      -4.210  12.486  19.631  0.00  0.00    +0.000 A 
ATOM      9  C   UNL     1      -4.794  12.091  18.424  0.00  0.00    +0.000 A 
ATOM     10  C   UNL     1      -4.034  11.454  17.434  0.00  0.00    +0.000 A 
ATOM     11  C   UNL     1      -4.610  11.057  16.214  0.00  0.00    +0.000 A 
ATOM     12  C   UNL     1      -3.841  10.416  15.246  0.00  0.00    +0.000 A 
ATOM     13 CL   UNL     1      -4.564   9.953  13.754  0.00  0.00    +0.000 Cl
ATOM     14  C   UNL     1      -2.495  10.153  15.472  0.00  0.00    +0.000 A 
ATOM     15  C   UNL     1      -1.906  10.549  16.675  0.00  0.00    +0.000 A 
ATOM     16  C   UNL     1      -2.660  11.211  17.660  0.00  0.00    +0.000 A 
ATOM     17  C   UNL     1      -2.076  11.639  18.865  0.00  0.00    +0.000 A 
ENDBRANCH   5   7
BRANCH   4  18
ATOM     18  C   UNL     1       0.000  11.540  20.977  0.00  0.00    +0.000 C 
ATOM     19  O   UNL     1       1.056  12.077  20.642  0.00  0.00    +0.000 OA
ATOM     20  N   UNL     1      -0.307  10.221  20.693  0.00  0.00    +0.000 N 
ATOM     21  H   UNL     1      -1.292   9.982  20.643  0.00  0.00    +0.000 HD
BRANCH  20  22
ATOM     22  C   UNL     1       0.590   9.366  20.019  0.00  0.00    +0.000 A 
ATOM     23  C   UNL     1       0.848   9.502  18.654  0.00  0.00    +0.000 A 
ATOM     24  C   UNL     1       1.757   8.649  18.021  0.00  0.00    +0.000 A 
ATOM     25  C   UNL     1       2.401   7.636  18.742  0.00  0.00    +0.000 A 
ATOM     26  C   UNL     1       2.103   7.464  20.101  0.00  0.00    +0.000 A 
ATOM     27  C   UNL     1       1.234   8.355  20.731  0.00  0.00    +0.000 A 
ATOM     28  F   UNL     1       0.975   8.198  22.039  0.00  0.00    +0.000 F 
BRANCH  25  29
ATOM     29  N   UNL     1       3.342   6.781  18.106  0.00  0.00    +0.000 N 
ATOM     30  C   UNL     1       4.575   7.167  17.624  0.00  0.00    +0.000 A 
ATOM     31  C   UNL     1       5.171   6.031  17.141  0.00  0.00    +0.000 A 
ATOM     32  N   UNL     1       4.333   4.962  17.255  0.00  0.00    +0.000 NA
ATOM     33  C   UNL     1       3.223   5.427  17.799  0.00  0.00    +0.000 A 
ATOM     34  C   UNL     1       1.968   4.632  17.898  0.00  0.00    +0.000 C 
ENDBRANCH  25  29
ENDBRANCH  20  22
ENDBRANCH   4  18
TORSDOF 4
ENDMDL
MODEL 8
REMARK VINA RESULT:      -7.8      4.664     10.762
REMARK  Name = 
REMARK  6 active torsions:
REMARK  status: ('A' for Active; 'I' for Inactive)
REMARK    1  A    between atoms: C_1  and  C_2
REMARK    2  A    between atoms: C_4  and  C_5
REMARK    3  A    between atoms: N_7  and  C_8
REMARK    4  A    between atoms: C_11  and  N_12
REMARK    5  A    between atoms: C_16  and  C_17
REMARK    6  A    between atoms: N_21  and  C_22
REMARK                            x       y       z     vdW  Elec       q    Type
REMARK                         _______ _______ _______ _____ _____    ______ ____
ROOT
ATOM      1  C   UNL     1       2.669  15.149  17.926  0.00  0.00    +0.000 C 
ATOM      2  C   UNL     1       1.969  13.953  18.454  0.00  0.00    +0.000 A 
ATOM      3  C   UNL     1       2.338  12.601  18.324  0.00  0.00    +0.000 A 
ATOM      4  C   UNL     1       1.335  11.888  18.962  0.00  0.00    +0.000 A 
ATOM      5  N   UNL     1       0.500  12.834  19.535  0.00  0.00    +0.000 N 
ATOM      6  N   UNL     1       0.827  14.087  19.129  0.00  0.00    +0.000 NA
ENDROOT
BRANCH   5   7
ATOM      7  C   UNL     1      -0.518  12.671  20.517  0.00  0.00    +0.000 A 
ATOM      8  C   UNL     1      -0.211  12.270  21.821  0.00  0.00    +0.000 A 
ATOM      9  C   UNL     1      -1.224  12.175  22.780  0.00  0.00    +0.000 A 
ATOM     10  C   UNL     1      -2.555  12.463  22.449  0.00  0.00    +0.000 A 
ATOM     11  C   UNL     1      -3.580  12.376  23.408  0.00  0.00    +0.000 A 
ATOM     12  C   UNL     1      -4.899  12.656  23.058  0.00  0.00    +0.000 A 
ATOM     13 CL   UNL     1      -6.135  12.557  24.251  0.00  0.00    +0.000 Cl
ATOM     14  C   UNL     1      -5.223  13.019  21.756  0.00  0.00    +0.000 A 
ATOM     15  C   UNL     1      -4.215  13.120  20.795  0.00  0.00    +0.000 A 
ATOM     16  C   UNL     1      -2.875  12.856  21.130  0.00  0.00    +0.000 A 
ATOM     17  C   UNL     1      -1.845  12.977  20.180  0.00  0.00    +0.000 A 
ENDBRANCH   5   7
BRANCH   4  18
ATOM     18  C   UNL     1       1.077  10.474  18.929  0.00  0.00    +0.000 C 
ATOM     19  O   UNL     1      -0.063  10.018  18.835  0.00  0.00    +0.000 OA
ATOM     20  N   UNL     1       2.204   9.682  19.070  0.00  0.00    +0.000 N 
ATOM     21  H   UNL     1       3.007  10.108  19.521  0.00  0.00    +0.000 HD
BRANCH  20  22
ATOM     22  C   UNL     1       2.140   8.273  19.082  0.00  0.00    +0.000 A 
ATOM     23  C   UNL     1       2.322   7.520  17.921  0.00  0.00    +0.000 A 
ATOM     24  C   UNL     1       2.269   6.125  17.972  0.00  0.00    +0.000 A 
ATOM     25  C   UNL     1       2.014   5.467  19.182  0.00  0.00    +0.000 A 
ATOM     26  C   UNL     1       1.779   6.223  20.338  0.00  0.00    +0.000 A 
ATOM     27  C   UNL     1       1.886   7.613  20.283  0.00  0.00    +0.000 A 
ATOM     28  F   UNL     1       1.685   8.326  21.402  0.00  0.00    +0.000 F 
BRANCH  25  29
ATOM     29  N   UNL     1       1.982   4.047  19.241  0.00  0.00    +0.000 N 
ATOM     30  C   UNL     1       1.015   3.295  19.874  0.00  0.00    +0.000 A 
ATOM     31  C   UNL     1       1.338   1.982  19.644  0.00  0.00    +0.000 A 
ATOM     32  N   UNL     1       2.499   1.889  18.938  0.00  0.00    +0.000 NA
ATOM     33  C   UNL     1       2.902   3.131  18.734  0.00  0.00    +0.000 A 
ATOM     34  C   UNL     1       4.244   3.475  18.188  0.00  0.00    +0.000 C 
ENDBRANCH  25  29
ENDBRANCH  20  22
ENDBRANCH   4  18
TORSDOF 4
ENDMDL
MODEL 9
REMARK VINA RESULT:      -7.8      3.749      9.146
REMARK  Name = 
REMARK  6 active torsions:
REMARK  status: ('A' for Active; 'I' for Inactive)
REMARK    1  A    between atoms: C_1  and  C_2
REMARK    2  A    between atoms: C_4  and  C_5
REMARK    3  A    between atoms: N_7  and  C_8
REMARK    4  A    between atoms: C_11  and  N_12
REMARK    5  A    between atoms: C_16  and  C_17
REMARK    6  A    between atoms: N_21  and  C_22
REMARK                            x       y       z     vdW  Elec       q    Type
REMARK                         _______ _______ _______ _____ _____    ______ ____
ROOT
ATOM      1  C   UNL     1      -2.568  13.786  23.010  0.00  0.00    +0.000 C 
ATOM      2  C   UNL     1      -1.650  13.128  22.049  0.00  0.00    +0.000 A 
ATOM      3  C   UNL     1      -1.852  11.935  21.329  0.00  0.00    +0.000 A 
ATOM      4  C   UNL     1      -0.684  11.744  20.608  0.00  0.00    +0.000 A 
ATOM      5  N   UNL     1       0.092  12.870  20.832  0.00  0.00    +0.000 N 
ATOM      6  N   UNL     1      -0.451  13.656  21.797  0.00  0.00    +0.000 NA
ENDROOT
BRANCH   5   7
ATOM      7  C   UNL     1       1.250  13.327  20.143  0.00  0.00    +0.000 A 
ATOM      8  C   UNL     1       1.286  13.393  18.747  0.00  0.00    +0.000 A 
ATOM      9  C   UNL     1       2.416  13.901  18.099  0.00  0.00    +0.000 A 
ATOM     10  C   UNL     1       3.529  14.335  18.832  0.00  0.00    +0.000 A 
ATOM     11  C   UNL     1       4.668  14.852  18.190  0.00  0.00    +0.000 A 
ATOM     12  C   UNL     1       5.769  15.269  18.934  0.00  0.00    +0.000 A 
ATOM     13 CL   UNL     1       7.147  15.913  18.129  0.00  0.00    +0.000 Cl
ATOM     14  C   UNL     1       5.762  15.174  20.321  0.00  0.00    +0.000 A 
ATOM     15  C   UNL     1       4.635  14.671  20.974  0.00  0.00    +0.000 A 
ATOM     16  C   UNL     1       3.506  14.259  20.243  0.00  0.00    +0.000 A 
ATOM     17  C   UNL     1       2.354  13.774  20.886  0.00  0.00    +0.000 A 
ENDBRANCH   5   7
BRANCH   4  18
ATOM     18  C   UNL     1      -0.249  10.573  19.895  0.00  0.00    +0.000 C 
ATOM     19  O   UNL     1      -0.964  10.007  19.068  0.00  0.00    +0.000 OA
ATOM     20  N   UNL     1       1.004  10.113  20.260  0.00  0.00    +0.000 N 
ATOM     21  H   UNL     1       1.339  10.382  21.180  0.00  0.00    +0.000 HD
BRANCH  20  22
ATOM     22  C   UNL     1       1.585   8.965  19.682  0.00  0.00    +0.000 A 
ATOM     23  C   UNL     1       1.718   7.772  20.394  0.00  0.00    +0.000 A 
ATOM     24  C   UNL     1       2.281   6.648  19.784  0.00  0.00    +0.000 A 
ATOM     25  C   UNL     1       2.737   6.710  18.461  0.00  0.00    +0.000 A 
ATOM     26  C   UNL     1       2.652   7.922  17.762  0.00  0.00    +0.000 A 
ATOM     27  C   UNL     1       2.041   9.021  18.365  0.00  0.00    +0.000 A 
ATOM     28  F   UNL     1       1.941  10.170  17.678  0.00  0.00    +0.000 F 
BRANCH  25  29
ATOM     29  N   UNL     1       3.291   5.562  17.831  0.00  0.00    +0.000 N 
ATOM     30  C   UNL     1       4.506   5.516  17.181  0.00  0.00    +0.000 A 
ATOM     31  C   UNL     1       4.672   4.218  16.770  0.00  0.00    +0.000 A 
ATOM     32  N   UNL     1       3.581   3.468  17.093  0.00  0.00    +0.000 NA
ATOM     33  C   UNL     1       2.739   4.290  17.694  0.00  0.00    +0.000 A 
ATOM     34  C   UNL     1       1.331   3.926  18.015  0.00  0.00    +0.000 C 
ENDBRANCH  25  29
ENDBRANCH  20  22
ENDBRANCH   4  18
TORSDOF 4
ENDMDL
