MODEL 1
REMARK VINA RESULT:      -7.2      0.000      0.000
REMARK  Name = 
REMARK  9 active torsions:
REMARK  status: ('A' for Active; 'I' for Inactive)
REMARK    1  A    between atoms: C_2  and  C_3
REMARK    2  A    between atoms: C_3  and  C_4
REMARK    3  A    between atoms: C_11  and  C_12
REMARK    4  A    between atoms: C_12  and  C_13
REMARK    5  A    between atoms: C_13  and  C_14
REMARK    6  A    between atoms: C_14  and  C_15
REMARK    7  A    between atoms: C_15  and  C_16
REMARK    8  A    between atoms: C_21  and  C_23
REMARK    9  A    between atoms: C_23  and  C_24
REMARK                            x       y       z     vdW  Elec       q    Type
REMARK                         _______ _______ _______ _____ _____    ______ ____
ROOT
ATOM      1  C   UNL     1       4.495   3.251  17.353  0.00  0.00    +0.000 C 
ENDROOT
BRANCH   1   2
ATOM      2  C   UNL     1       5.488   4.119  16.576  0.00  0.00    +0.000 C 
BRANCH   2   9
ATOM      3  O   UNL     1       7.567   9.224  17.563  0.00  0.00    +0.000 OA
ATOM      4  C   UNL     1       8.398   8.863  18.396  0.00  0.00    +0.000 C 
ATOM      5  N   UNL     1       8.496   7.604  18.942  0.00  0.00    +0.000 N 
ATOM      6  C   UNL     1       7.774   6.508  18.537  0.00  0.00    +0.000 A 
ATOM      7  N   UNL     1       7.707   5.387  19.228  0.00  0.00    +0.000 NA
ATOM      8  N   UNL     1       6.887   4.450  18.622  0.00  0.00    +0.000 NA
ATOM      9  C   UNL     1       6.410   4.882  17.472  0.00  0.00    +0.000 A 
ATOM     10  S   UNL     1       6.947   6.450  17.045  0.00  0.00    +0.000 S 
ATOM     11  H   UNL     1       9.028   7.466  19.790  0.00  0.00    +0.000 HD
BRANCH   4  12
ATOM     12  C   UNL     1       9.360   9.893  18.962  0.00  0.00    +0.000 C 
BRANCH  12  13
ATOM     13  C   UNL     1       9.645  11.093  18.102  0.00  0.00    +0.000 C 
ATOM     14  C   UNL     1       9.881  12.420  18.784  0.00  0.00    +0.000 C 
ATOM     15  C   UNL     1      11.014  11.725  18.087  0.00  0.00    +0.000 C 
ENDBRANCH  12  13
ENDBRANCH   4  12
ENDBRANCH   2   9
ENDBRANCH   1   2
BRANCH   1  16
ATOM     16  C   UNL     1       3.091   3.857  17.515  0.00  0.00    +0.000 C 
BRANCH  16  17
ATOM     17  C   UNL     1       2.804   4.464  18.892  0.00  0.00    +0.000 C 
BRANCH  17  18
ATOM     18  C   UNL     1       2.552   5.935  18.816  0.00  0.00    +0.000 A 
ATOM     19  N   UNL     1       2.837   6.702  17.784  0.00  0.00    +0.000 NA
ATOM     20  N   UNL     1       2.464   8.016  18.001  0.00  0.00    +0.000 NA
ATOM     21  C   UNL     1       1.873   8.177  19.165  0.00  0.00    +0.000 A 
ATOM     22  N   UNL     1       1.396   9.392  19.596  0.00  0.00    +0.000 N 
ATOM     23  C   UNL     1       0.550   9.594  20.660  0.00  0.00    +0.000 C 
ATOM     24  O   UNL     1       0.098   8.727  21.403  0.00  0.00    +0.000 OA
ATOM     25  S   UNL     1       1.807   6.766  20.117  0.00  0.00    +0.000 S 
ATOM     26  H   UNL     1       1.607  10.153  18.964  0.00  0.00    +0.000 HD
BRANCH  23  27
ATOM     27  C   UNL     1       0.207  11.052  20.930  0.00  0.00    +0.000 C 
BRANCH  27  28
ATOM     28  C   UNL     1      -0.372  11.824  19.777  0.00  0.00    +0.000 C 
ATOM     29  C   UNL     1      -1.500  11.219  18.981  0.00  0.00    +0.000 C 
ATOM     30  C   UNL     1      -1.760  12.406  19.864  0.00  0.00    +0.000 C 
ENDBRANCH  27  28
ENDBRANCH  23  27
ENDBRANCH  17  18
ENDBRANCH  16  17
ENDBRANCH   1  16
TORSDOF 9
ENDMDL
MODEL 2
REMARK VINA RESULT:      -7.0      1.459      1.519
REMARK  Name = 
REMARK  9 active torsions:
REMARK  status: ('A' for Active; 'I' for Inactive)
REMARK    1  A    between atoms: C_2  and  C_3
REMARK    2  A    between atoms: C_3  and  C_4
REMARK    3  A    between atoms: C_11  and  C_12
REMARK    4  A    between atoms: C_12  and  C_13
REMARK    5  A    between atoms: C_13  and  C_14
REMARK    6  A    between atoms: C_14  and  C_15
REMARK    7  A    between atoms: C_15  and  C_16
REMARK    8  A    between atoms: C_21  and  C_23
REMARK    9  A    between atoms: C_23  and  C_24
REMARK                            x       y       z     vdW  Elec       q    Type
REMARK                         _______ _______ _______ _____ _____    ______ ____
ROOT
ATOM      1  C   UNL     1       4.539   3.959  16.747  0.00  0.00    +0.000 C 
ENDROOT
BRANCH   1   2
ATOM      2  C   UNL     1       6.013   4.073  16.346  0.00  0.00    +0.000 C 
BRANCH   2   9
ATOM      3  O   UNL     1       7.587   9.311  17.548  0.00  0.00    +0.000 OA
ATOM      4  C   UNL     1       8.393   9.002  18.425  0.00  0.00    +0.000 C 
ATOM      5  N   UNL     1       8.564   7.744  18.955  0.00  0.00    +0.000 N 
ATOM      6  C   UNL     1       7.964   6.600  18.487  0.00  0.00    +0.000 A 
ATOM      7  N   UNL     1       7.950   5.463  19.153  0.00  0.00    +0.000 NA
ATOM      8  N   UNL     1       7.251   4.474  18.481  0.00  0.00    +0.000 NA
ATOM      9  C   UNL     1       6.810   4.890  17.311  0.00  0.00    +0.000 A 
ATOM     10  S   UNL     1       7.237   6.506  16.945  0.00  0.00    +0.000 S 
ATOM     11  H   UNL     1       9.054   7.632  19.832  0.00  0.00    +0.000 HD
BRANCH   4  12
ATOM     12  C   UNL     1       9.228  10.096  19.067  0.00  0.00    +0.000 C 
BRANCH  12  13
ATOM     13  C   UNL     1       9.758  11.165  18.152  0.00  0.00    +0.000 C 
ATOM     14  C   UNL     1       8.926  12.409  17.951  0.00  0.00    +0.000 C 
ATOM     15  C   UNL     1      10.224  12.490  18.701  0.00  0.00    +0.000 C 
ENDBRANCH  12  13
ENDBRANCH   4  12
ENDBRANCH   2   9
ENDBRANCH   1   2
BRANCH   1  16
ATOM     16  C   UNL     1       3.952   5.209  17.421  0.00  0.00    +0.000 C 
BRANCH  16  17
ATOM     17  C   UNL     1       2.754   4.946  18.340  0.00  0.00    +0.000 C 
BRANCH  17  18
ATOM     18  C   UNL     1       2.281   6.191  19.018  0.00  0.00    +0.000 A 
ATOM     19  N   UNL     1       2.052   6.312  20.309  0.00  0.00    +0.000 NA
ATOM     20  N   UNL     1       1.649   7.592  20.641  0.00  0.00    +0.000 NA
ATOM     21  C   UNL     1       1.634   8.393  19.599  0.00  0.00    +0.000 A 
ATOM     22  N   UNL     1       1.285   9.720  19.685  0.00  0.00    +0.000 N 
ATOM     23  C   UNL     1       1.491  10.672  18.714  0.00  0.00    +0.000 C 
ATOM     24  O   UNL     1       2.004  10.487  17.613  0.00  0.00    +0.000 OA
ATOM     25  S   UNL     1       2.023   7.631  18.126  0.00  0.00    +0.000 S 
ATOM     26  H   UNL     1       0.977   9.995  20.607  0.00  0.00    +0.000 HD
BRANCH  23  27
ATOM     27  C   UNL     1       0.976  12.059  19.066  0.00  0.00    +0.000 C 
BRANCH  27  28
ATOM     28  C   UNL     1      -0.263  12.511  18.343  0.00  0.00    +0.000 C 
ATOM     29  C   UNL     1      -1.386  11.529  18.125  0.00  0.00    +0.000 C 
ATOM     30  C   UNL     1      -1.567  12.672  19.083  0.00  0.00    +0.000 C 
ENDBRANCH  27  28
ENDBRANCH  23  27
ENDBRANCH  17  18
ENDBRANCH  16  17
ENDBRANCH   1  16
TORSDOF 9
ENDMDL
MODEL 3
REMARK VINA RESULT:      -6.9      4.645      9.410
REMARK  Name = 
REMARK  9 active torsions:
REMARK  status: ('A' for Active; 'I' for Inactive)
REMARK    1  A    between atoms: C_2  and  C_3
REMARK    2  A    between atoms: C_3  and  C_4
REMARK    3  A    between atoms: C_11  and  C_12
REMARK    4  A    between atoms: C_12  and  C_13
REMARK    5  A    between atoms: C_13  and  C_14
REMARK    6  A    between atoms: C_14  and  C_15
REMARK    7  A    between atoms: C_15  and  C_16
REMARK    8  A    between atoms: C_21  and  C_23
REMARK    9  A    between atoms: C_23  and  C_24
REMARK                            x       y       z     vdW  Elec       q    Type
REMARK                         _______ _______ _______ _____ _____    ______ ____
ROOT
ATOM      1  C   UNL     1       8.143   9.046  17.931  0.00  0.00    +0.000 C 
ENDROOT
BRANCH   1   2
ATOM      2  C   UNL     1       8.389   7.669  18.553  0.00  0.00    +0.000 C 
BRANCH   2   9
ATOM      3  O   UNL     1       4.334   3.969  19.662  0.00  0.00    +0.000 OA
ATOM      4  C   UNL     1       4.397   3.385  18.581  0.00  0.00    +0.000 C 
ATOM      5  N   UNL     1       5.137   3.784  17.492  0.00  0.00    +0.000 N 
ATOM      6  C   UNL     1       6.037   4.822  17.484  0.00  0.00    +0.000 A 
ATOM      7  N   UNL     1       6.544   5.336  16.381  0.00  0.00    +0.000 NA
ATOM      8  N   UNL     1       7.399   6.392  16.644  0.00  0.00    +0.000 NA
ATOM      9  C   UNL     1       7.545   6.600  17.937  0.00  0.00    +0.000 A 
ATOM     10  S   UNL     1       6.665   5.507  18.917  0.00  0.00    +0.000 S 
ATOM     11  H   UNL     1       4.934   3.398  16.580  0.00  0.00    +0.000 HD
BRANCH   4  12
ATOM     12  C   UNL     1       3.528   2.159  18.361  0.00  0.00    +0.000 C 
BRANCH  12  13
ATOM     13  C   UNL     1       2.165   2.396  17.773  0.00  0.00    +0.000 C 
ATOM     14  C   UNL     1       0.968   2.317  18.690  0.00  0.00    +0.000 C 
ATOM     15  C   UNL     1       1.381   3.639  18.114  0.00  0.00    +0.000 C 
ENDBRANCH  12  13
ENDBRANCH   4  12
ENDBRANCH   2   9
ENDBRANCH   1   2
BRANCH   1  16
ATOM     16  C   UNL     1       8.797  10.221  18.676  0.00  0.00    +0.000 C 
BRANCH  16  17
ATOM     17  C   UNL     1       9.879  10.966  17.887  0.00  0.00    +0.000 C 
BRANCH  17  18
ATOM     18  C   UNL     1      10.298  12.230  18.564  0.00  0.00    +0.000 A 
ATOM     19  N   UNL     1      10.962  13.214  17.993  0.00  0.00    +0.000 NA
ATOM     20  N   UNL     1      11.182  14.262  18.868  0.00  0.00    +0.000 NA
ATOM     21  C   UNL     1      10.637  14.047  20.045  0.00  0.00    +0.000 A 
ATOM     22  N   UNL     1      10.706  14.956  21.074  0.00  0.00    +0.000 N 
ATOM     23  C   UNL     1       9.957  14.927  22.226  0.00  0.00    +0.000 C 
ATOM     24  O   UNL     1       9.120  14.079  22.527  0.00  0.00    +0.000 OA
ATOM     25  S   UNL     1       9.895  12.522  20.204  0.00  0.00    +0.000 S 
ATOM     26  H   UNL     1      11.272  15.765  20.857  0.00  0.00    +0.000 HD
BRANCH  23  27
ATOM     27  C   UNL     1      10.263  16.045  23.210  0.00  0.00    +0.000 C 
BRANCH  27  28
ATOM     28  C   UNL     1       9.319  16.185  24.373  0.00  0.00    +0.000 C 
ATOM     29  C   UNL     1       9.688  15.566  25.697  0.00  0.00    +0.000 C 
ATOM     30  C   UNL     1       9.674  17.061  25.548  0.00  0.00    +0.000 C 
ENDBRANCH  27  28
ENDBRANCH  23  27
ENDBRANCH  17  18
ENDBRANCH  16  17
ENDBRANCH   1  16
TORSDOF 9
ENDMDL
MODEL 4
REMARK VINA RESULT:      -6.8      4.332      6.143
REMARK  Name = 
REMARK  9 active torsions:
REMARK  status: ('A' for Active; 'I' for Inactive)
REMARK    1  A    between atoms: C_2  and  C_3
REMARK    2  A    between atoms: C_3  and  C_4
REMARK    3  A    between atoms: C_11  and  C_12
REMARK    4  A    between atoms: C_12  and  C_13
REMARK    5  A    between atoms: C_13  and  C_14
REMARK    6  A    between atoms: C_14  and  C_15
REMARK    7  A    between atoms: C_15  and  C_16
REMARK    8  A    between atoms: C_21  and  C_23
REMARK    9  A    between atoms: C_23  and  C_24
REMARK                            x       y       z     vdW  Elec       q    Type
REMARK                         _______ _______ _______ _____ _____    ______ ____
ROOT
ATOM      1  C   UNL     1       2.317   7.610  19.116  0.00  0.00    +0.000 C 
ENDROOT
BRANCH   1   2
ATOM      2  C   UNL     1       2.566   6.305  19.877  0.00  0.00    +0.000 C 
BRANCH   2   9
ATOM      3  O   UNL     1       5.767   5.815  15.309  0.00  0.00    +0.000 OA
ATOM      4  C   UNL     1       5.914   4.596  15.388  0.00  0.00    +0.000 C 
ATOM      5  N   UNL     1       5.524   3.805  16.443  0.00  0.00    +0.000 N 
ATOM      6  C   UNL     1       4.776   4.228  17.516  0.00  0.00    +0.000 A 
ATOM      7  N   UNL     1       4.626   3.524  18.620  0.00  0.00    +0.000 NA
ATOM      8  N   UNL     1       3.857   4.187  19.560  0.00  0.00    +0.000 NA
ATOM      9  C   UNL     1       3.413   5.343  19.109  0.00  0.00    +0.000 A 
ATOM     10  S   UNL     1       3.888   5.686  17.501  0.00  0.00    +0.000 S 
ATOM     11  H   UNL     1       5.906   2.874  16.540  0.00  0.00    +0.000 HD
BRANCH   4  12
ATOM     12  C   UNL     1       6.668   3.879  14.282  0.00  0.00    +0.000 C 
BRANCH  12  13
ATOM     13  C   UNL     1       6.204   4.133  12.875  0.00  0.00    +0.000 C 
ATOM     14  C   UNL     1       6.757   3.261  11.773  0.00  0.00    +0.000 C 
ATOM     15  C   UNL     1       5.312   3.146  12.164  0.00  0.00    +0.000 C 
ENDBRANCH  12  13
ENDBRANCH   4  12
ENDBRANCH   2   9
ENDBRANCH   1   2
BRANCH   1  16
ATOM     16  C   UNL     1       1.401   8.615  19.833  0.00  0.00    +0.000 C 
BRANCH  16  17
ATOM     17  C   UNL     1       1.380   8.496  21.361  0.00  0.00    +0.000 C 
BRANCH  17  18
ATOM     18  C   UNL     1       0.453   9.485  21.989  0.00  0.00    +0.000 A 
ATOM     19  N   UNL     1       0.366   9.731  23.280  0.00  0.00    +0.000 NA
ATOM     20  N   UNL     1      -0.563  10.717  23.554  0.00  0.00    +0.000 NA
ATOM     21  C   UNL     1      -1.104  11.206  22.460  0.00  0.00    +0.000 A 
ATOM     22  N   UNL     1      -2.042  12.211  22.478  0.00  0.00    +0.000 N 
ATOM     23  C   UNL     1      -2.456  12.946  21.393  0.00  0.00    +0.000 C 
ATOM     24  O   UNL     1      -2.067  12.814  20.235  0.00  0.00    +0.000 OA
ATOM     25  S   UNL     1      -0.590  10.444  21.026  0.00  0.00    +0.000 S 
ATOM     26  H   UNL     1      -2.321  12.483  23.411  0.00  0.00    +0.000 HD
BRANCH  23  27
ATOM     27  C   UNL     1      -3.532  13.978  21.698  0.00  0.00    +0.000 C 
BRANCH  27  28
ATOM     28  C   UNL     1      -4.236  13.833  23.019  0.00  0.00    +0.000 C 
ATOM     29  C   UNL     1      -3.989  14.855  24.099  0.00  0.00    +0.000 C 
ATOM     30  C   UNL     1      -5.326  14.797  23.416  0.00  0.00    +0.000 C 
ENDBRANCH  27  28
ENDBRANCH  23  27
ENDBRANCH  17  18
ENDBRANCH  16  17
ENDBRANCH   1  16
TORSDOF 9
ENDMDL
MODEL 5
REMARK VINA RESULT:      -6.8      4.128      9.228
REMARK  Name = 
REMARK  9 active torsions:
REMARK  status: ('A' for Active; 'I' for Inactive)
REMARK    1  A    between atoms: C_2  and  C_3
REMARK    2  A    between atoms: C_3  and  C_4
REMARK    3  A    between atoms: C_11  and  C_12
REMARK    4  A    between atoms: C_12  and  C_13
REMARK    5  A    between atoms: C_13  and  C_14
REMARK    6  A    between atoms: C_14  and  C_15
REMARK    7  A    between atoms: C_15  and  C_16
REMARK    8  A    between atoms: C_21  and  C_23
REMARK    9  A    between atoms: C_23  and  C_24
REMARK                            x       y       z     vdW  Elec       q    Type
REMARK                         _______ _______ _______ _____ _____    ______ ____
ROOT
ATOM      1  C   UNL     1       1.540   5.810  19.801  0.00  0.00    +0.000 C 
ENDROOT
BRANCH   1   2
ATOM      2  C   UNL     1       2.340   7.115  19.846  0.00  0.00    +0.000 C 
BRANCH   2   9
ATOM      3  O   UNL     1      -0.411  10.264  23.571  0.00  0.00    +0.000 OA
ATOM      4  C   UNL     1      -1.005  10.951  22.741  0.00  0.00    +0.000 C 
ATOM      5  N   UNL     1      -0.781  10.947  21.384  0.00  0.00    +0.000 N 
ATOM      6  C   UNL     1       0.043  10.071  20.720  0.00  0.00    +0.000 A 
ATOM      7  N   UNL     1       0.428  10.240  19.471  0.00  0.00    +0.000 NA
ATOM      8  N   UNL     1       1.283   9.236  19.049  0.00  0.00    +0.000 NA
ATOM      9  C   UNL     1       1.468   8.321  19.979  0.00  0.00    +0.000 A 
ATOM     10  S   UNL     1       0.594   8.615  21.421  0.00  0.00    +0.000 S 
ATOM     11  H   UNL     1      -1.124  11.711  20.817  0.00  0.00    +0.000 HD
BRANCH   4  12
ATOM     12  C   UNL     1      -2.022  11.968  23.229  0.00  0.00    +0.000 C 
BRANCH  12  13
ATOM     13  C   UNL     1      -2.727  12.775  22.175  0.00  0.00    +0.000 C 
ATOM     14  C   UNL     1      -4.233  12.696  22.104  0.00  0.00    +0.000 C 
ATOM     15  C   UNL     1      -3.571  13.968  22.550  0.00  0.00    +0.000 C 
ENDBRANCH  12  13
ENDBRANCH   4  12
ENDBRANCH   2   9
ENDBRANCH   1   2
BRANCH   1  16
ATOM     16  C   UNL     1       1.771   4.866  20.992  0.00  0.00    +0.000 C 
BRANCH  16  17
ATOM     17  C   UNL     1       2.134   3.425  20.614  0.00  0.00    +0.000 C 
BRANCH  17  18
ATOM     18  C   UNL     1       2.686   3.330  19.229  0.00  0.00    +0.000 A 
ATOM     19  N   UNL     1       2.011   2.940  18.167  0.00  0.00    +0.000 NA
ATOM     20  N   UNL     1       2.786   2.982  17.022  0.00  0.00    +0.000 NA
ATOM     21  C   UNL     1       3.995   3.442  17.258  0.00  0.00    +0.000 A 
ATOM     22  N   UNL     1       4.940   3.592  16.271  0.00  0.00    +0.000 N 
ATOM     23  C   UNL     1       6.114   4.297  16.381  0.00  0.00    +0.000 C 
ATOM     24  O   UNL     1       6.514   4.891  17.380  0.00  0.00    +0.000 OA
ATOM     25  S   UNL     1       4.308   3.775  18.899  0.00  0.00    +0.000 S 
ATOM     26  H   UNL     1       4.636   3.250  15.369  0.00  0.00    +0.000 HD
BRANCH  23  27
ATOM     27  C   UNL     1       6.989   4.271  15.137  0.00  0.00    +0.000 C 
BRANCH  27  28
ATOM     28  C   UNL     1       6.299   4.561  13.832  0.00  0.00    +0.000 C 
ATOM     29  C   UNL     1       7.089   4.480  12.550  0.00  0.00    +0.000 C 
ATOM     30  C   UNL     1       6.031   3.455  12.844  0.00  0.00    +0.000 C 
ENDBRANCH  27  28
ENDBRANCH  23  27
ENDBRANCH  17  18
ENDBRANCH  16  17
ENDBRANCH   1  16
TORSDOF 9
ENDMDL
MODEL 6
REMARK VINA RESULT:      -6.7      4.405      9.059
REMARK  Name = 
REMARK  9 active torsions:
REMARK  status: ('A' for Active; 'I' for Inactive)
REMARK    1  A    between atoms: C_2  and  C_3
REMARK    2  A    between atoms: C_3  and  C_4
REMARK    3  A    between atoms: C_11  and  C_12
REMARK    4  A    between atoms: C_12  and  C_13
REMARK    5  A    between atoms: C_13  and  C_14
REMARK    6  A    between atoms: C_14  and  C_15
REMARK    7  A    between atoms: C_15  and  C_16
REMARK    8  A    between atoms: C_21  and  C_23
REMARK    9  A    between atoms: C_23  and  C_24
REMARK                            x       y       z     vdW  Elec       q    Type
REMARK                         _______ _______ _______ _____ _____    ______ ____
ROOT
ATOM      1  C   UNL     1       6.989   7.758  17.256  0.00  0.00    +0.000 C 
ENDROOT
BRANCH   1   2
ATOM      2  C   UNL     1       7.181   6.293  16.852  0.00  0.00    +0.000 C 
BRANCH   2   9
ATOM      3  O   UNL     1       2.393   3.394  17.002  0.00  0.00    +0.000 OA
ATOM      4  C   UNL     1       2.497   3.038  18.175  0.00  0.00    +0.000 C 
ATOM      5  N   UNL     1       3.603   3.212  18.974  0.00  0.00    +0.000 N 
ATOM      6  C   UNL     1       4.718   3.941  18.634  0.00  0.00    +0.000 A 
ATOM      7  N   UNL     1       5.852   3.890  19.305  0.00  0.00    +0.000 NA
ATOM      8  N   UNL     1       6.829   4.690  18.739  0.00  0.00    +0.000 NA
ATOM      9  C   UNL     1       6.378   5.354  17.693  0.00  0.00    +0.000 A 
ATOM     10  S   UNL     1       4.729   5.061  17.346  0.00  0.00    +0.000 S 
ATOM     11  H   UNL     1       3.699   2.673  19.823  0.00  0.00    +0.000 HD
BRANCH   4  12
ATOM     12  C   UNL     1       1.358   2.257  18.805  0.00  0.00    +0.000 C 
BRANCH  12  13
ATOM     13  C   UNL     1       0.625   2.925  19.935  0.00  0.00    +0.000 C 
ATOM     14  C   UNL     1       1.196   2.802  21.328  0.00  0.00    +0.000 C 
ATOM     15  C   UNL     1       1.208   4.130  20.629  0.00  0.00    +0.000 C 
ENDBRANCH  12  13
ENDBRANCH   4  12
ENDBRANCH   2   9
ENDBRANCH   1   2
BRANCH   1  16
ATOM     16  C   UNL     1       8.135   8.358  18.085  0.00  0.00    +0.000 C 
BRANCH  16  17
ATOM     17  C   UNL     1       8.666   9.703  17.576  0.00  0.00    +0.000 C 
BRANCH  17  18
ATOM     18  C   UNL     1       9.011  10.631  18.696  0.00  0.00    +0.000 A 
ATOM     19  N   UNL     1       9.409  10.259  19.895  0.00  0.00    +0.000 NA
ATOM     20  N   UNL     1       9.679  11.345  20.707  0.00  0.00    +0.000 NA
ATOM     21  C   UNL     1       9.519  12.487  20.075  0.00  0.00    +0.000 A 
ATOM     22  N   UNL     1       9.746  13.705  20.671  0.00  0.00    +0.000 N 
ATOM     23  C   UNL     1       9.855  14.911  20.021  0.00  0.00    +0.000 C 
ATOM     24  O   UNL     1       9.751  15.097  18.811  0.00  0.00    +0.000 OA
ATOM     25  S   UNL     1       8.944  12.329  18.480  0.00  0.00    +0.000 S 
ATOM     26  H   UNL     1       9.979  13.635  21.652  0.00  0.00    +0.000 HD
BRANCH  23  27
ATOM     27  C   UNL     1      10.079  16.107  20.935  0.00  0.00    +0.000 C 
BRANCH  27  28
ATOM     28  C   UNL     1      10.694  15.813  22.276  0.00  0.00    +0.000 C 
ATOM     29  C   UNL     1      11.116  16.961  23.158  0.00  0.00    +0.000 C 
ATOM     30  C   UNL     1       9.940  16.112  23.548  0.00  0.00    +0.000 C 
ENDBRANCH  27  28
ENDBRANCH  23  27
ENDBRANCH  17  18
ENDBRANCH  16  17
ENDBRANCH   1  16
TORSDOF 9
ENDMDL
MODEL 7
REMARK VINA RESULT:      -6.7      4.383      7.232
REMARK  Name = 
REMARK  9 active torsions:
REMARK  status: ('A' for Active; 'I' for Inactive)
REMARK    1  A    between atoms: C_2  and  C_3
REMARK    2  A    between atoms: C_3  and  C_4
REMARK    3  A    between atoms: C_11  and  C_12
REMARK    4  A    between atoms: C_12  and  C_13
REMARK    5  A    between atoms: C_13  and  C_14
REMARK    6  A    between atoms: C_14  and  C_15
REMARK    7  A    between atoms: C_15  and  C_16
REMARK    8  A    between atoms: C_21  and  C_23
REMARK    9  A    between atoms: C_23  and  C_24
REMARK                            x       y       z     vdW  Elec       q    Type
REMARK                         _______ _______ _______ _____ _____    ______ ____
ROOT
ATOM      1  C   UNL     1       8.805   9.401  18.702  0.00  0.00    +0.000 C 
ENDROOT
BRANCH   1   2
ATOM      2  C   UNL     1       9.422  10.653  18.073  0.00  0.00    +0.000 C 
BRANCH   2   9
ATOM      3  O   UNL     1       7.343  15.853  18.085  0.00  0.00    +0.000 OA
ATOM      4  C   UNL     1       7.822  16.178  19.170  0.00  0.00    +0.000 C 
ATOM      5  N   UNL     1       8.458  15.337  20.054  0.00  0.00    +0.000 N 
ATOM      6  C   UNL     1       8.787  14.027  19.803  0.00  0.00    +0.000 A 
ATOM      7  N   UNL     1       9.167  13.181  20.739  0.00  0.00    +0.000 NA
ATOM      8  N   UNL     1       9.408  11.916  20.232  0.00  0.00    +0.000 NA
ATOM      9  C   UNL     1       9.250  11.870  18.924  0.00  0.00    +0.000 A 
ATOM     10  S   UNL     1       8.819  13.372  18.227  0.00  0.00    +0.000 S 
ATOM     11  H   UNL     1       8.588  15.625  21.014  0.00  0.00    +0.000 HD
BRANCH   4  12
ATOM     12  C   UNL     1       7.639  17.607  19.651  0.00  0.00    +0.000 C 
BRANCH  12  13
ATOM     13  C   UNL     1       6.850  17.796  20.916  0.00  0.00    +0.000 C 
ATOM     14  C   UNL     1       5.593  18.631  20.856  0.00  0.00    +0.000 C 
ATOM     15  C   UNL     1       5.498  17.151  21.088  0.00  0.00    +0.000 C 
ENDBRANCH  12  13
ENDBRANCH   4  12
ENDBRANCH   2   9
ENDBRANCH   1   2
BRANCH   1  16
ATOM     16  C   UNL     1       7.877   8.600  17.775  0.00  0.00    +0.000 C 
BRANCH  16  17
ATOM     17  C   UNL     1       7.952   7.078  17.943  0.00  0.00    +0.000 C 
BRANCH  17  18
ATOM     18  C   UNL     1       6.612   6.431  17.808  0.00  0.00    +0.000 A 
ATOM     19  N   UNL     1       5.732   6.698  16.865  0.00  0.00    +0.000 NA
ATOM     20  N   UNL     1       4.596   5.919  16.987  0.00  0.00    +0.000 NA
ATOM     21  C   UNL     1       4.684   5.069  17.986  0.00  0.00    +0.000 A 
ATOM     22  N   UNL     1       3.684   4.176  18.293  0.00  0.00    +0.000 N 
ATOM     23  C   UNL     1       3.799   3.097  19.137  0.00  0.00    +0.000 C 
ATOM     24  O   UNL     1       4.805   2.768  19.762  0.00  0.00    +0.000 OA
ATOM     25  S   UNL     1       6.112   5.212  18.903  0.00  0.00    +0.000 S 
ATOM     26  H   UNL     1       2.857   4.288  17.723  0.00  0.00    +0.000 HD
BRANCH  23  27
ATOM     27  C   UNL     1       2.520   2.294  19.318  0.00  0.00    +0.000 C 
BRANCH  27  28
ATOM     28  C   UNL     1       1.638   2.698  20.467  0.00  0.00    +0.000 C 
ATOM     29  C   UNL     1       2.097   3.794  21.395  0.00  0.00    +0.000 C 
ATOM     30  C   UNL     1       0.942   4.036  20.466  0.00  0.00    +0.000 C 
ENDBRANCH  27  28
ENDBRANCH  23  27
ENDBRANCH  17  18
ENDBRANCH  16  17
ENDBRANCH   1  16
TORSDOF 9
ENDMDL
MODEL 8
REMARK VINA RESULT:      -6.6      4.194      6.027
REMARK  Name = 
REMARK  9 active torsions:
REMARK  status: ('A' for Active; 'I' for Inactive)
REMARK    1  A    between atoms: C_2  and  C_3
REMARK    2  A    between atoms: C_3  and  C_4
REMARK    3  A    between atoms: C_11  and  C_12
REMARK    4  A    between atoms: C_12  and  C_13
REMARK    5  A    between atoms: C_13  and  C_14
REMARK    6  A    between atoms: C_14  and  C_15
REMARK    7  A    between atoms: C_15  and  C_16
REMARK    8  A    between atoms: C_21  and  C_23
REMARK    9  A    between atoms: C_23  and  C_24
REMARK                            x       y       z     vdW  Elec       q    Type
REMARK                         _______ _______ _______ _____ _____    ______ ____
ROOT
ATOM      1  C   UNL     1       2.174   7.784  18.962  0.00  0.00    +0.000 C 
ENDROOT
BRANCH   1   2
ATOM      2  C   UNL     1       2.673   6.584  19.771  0.00  0.00    +0.000 C 
BRANCH   2   9
ATOM      3  O   UNL     1       5.663   6.313  15.044  0.00  0.00    +0.000 OA
ATOM      4  C   UNL     1       5.970   5.127  15.156  0.00  0.00    +0.000 C 
ATOM      5  N   UNL     1       5.742   4.338  16.259  0.00  0.00    +0.000 N 
ATOM      6  C   UNL     1       5.005   4.707  17.358  0.00  0.00    +0.000 A 
ATOM      7  N   UNL     1       5.006   4.036  18.493  0.00  0.00    +0.000 NA
ATOM      8  N   UNL     1       4.209   4.635  19.453  0.00  0.00    +0.000 NA
ATOM      9  C   UNL     1       3.596   5.705  18.988  0.00  0.00    +0.000 A 
ATOM     10  S   UNL     1       3.936   6.038  17.344  0.00  0.00    +0.000 S 
ATOM     11  H   UNL     1       6.246   3.468  16.366  0.00  0.00    +0.000 HD
BRANCH   4  12
ATOM     12  C   UNL     1       6.750   4.465  14.034  0.00  0.00    +0.000 C 
BRANCH  12  13
ATOM     13  C   UNL     1       6.070   3.333  13.316  0.00  0.00    +0.000 C 
ATOM     14  C   UNL     1       5.147   3.667  12.169  0.00  0.00    +0.000 C 
ATOM     15  C   UNL     1       6.451   2.974  11.902  0.00  0.00    +0.000 C 
ENDBRANCH  12  13
ENDBRANCH   4  12
ENDBRANCH   2   9
ENDBRANCH   1   2
BRANCH   1  16
ATOM     16  C   UNL     1       1.465   8.871  19.785  0.00  0.00    +0.000 C 
BRANCH  16  17
ATOM     17  C   UNL     1       1.300   8.551  21.275  0.00  0.00    +0.000 C 
BRANCH  17  18
ATOM     18  C   UNL     1       0.405   9.528  21.965  0.00  0.00    +0.000 A 
ATOM     19  N   UNL     1       0.315   9.686  23.269  0.00  0.00    +0.000 NA
ATOM     20  N   UNL     1      -0.580  10.686  23.605  0.00  0.00    +0.000 NA
ATOM     21  C   UNL     1      -1.091  11.270  22.544  0.00  0.00    +0.000 A 
ATOM     22  N   UNL     1      -1.991  12.306  22.626  0.00  0.00    +0.000 N 
ATOM     23  C   UNL     1      -2.366  13.130  21.592  0.00  0.00    +0.000 C 
ATOM     24  O   UNL     1      -1.972  13.064  20.430  0.00  0.00    +0.000 OA
ATOM     25  S   UNL     1      -0.592  10.591  21.064  0.00  0.00    +0.000 S 
ATOM     26  H   UNL     1      -2.269  12.522  23.574  0.00  0.00    +0.000 HD
BRANCH  23  27
ATOM     27  C   UNL     1      -3.406  14.178  21.961  0.00  0.00    +0.000 C 
BRANCH  27  28
ATOM     28  C   UNL     1      -4.766  14.013  21.340  0.00  0.00    +0.000 C 
ATOM     29  C   UNL     1      -5.499  12.707  21.515  0.00  0.00    +0.000 C 
ATOM     30  C   UNL     1      -6.000  13.944  22.204  0.00  0.00    +0.000 C 
ENDBRANCH  27  28
ENDBRANCH  23  27
ENDBRANCH  17  18
ENDBRANCH  16  17
ENDBRANCH   1  16
TORSDOF 9
ENDMDL
MODEL 9
REMARK VINA RESULT:      -6.6      4.387      9.810
REMARK  Name = 
REMARK  9 active torsions:
REMARK  status: ('A' for Active; 'I' for Inactive)
REMARK    1  A    between atoms: C_2  and  C_3
REMARK    2  A    between atoms: C_3  and  C_4
REMARK    3  A    between atoms: C_11  and  C_12
REMARK    4  A    between atoms: C_12  and  C_13
REMARK    5  A    between atoms: C_13  and  C_14
REMARK    6  A    between atoms: C_14  and  C_15
REMARK    7  A    between atoms: C_15  and  C_16
REMARK    8  A    between atoms: C_21  and  C_23
REMARK    9  A    between atoms: C_23  and  C_24
REMARK                            x       y       z     vdW  Elec       q    Type
REMARK                         _______ _______ _______ _____ _____    ______ ____
ROOT
ATOM      1  C   UNL     1       1.316   7.499  21.133  0.00  0.00    +0.000 C 
ENDROOT
BRANCH   1   2
ATOM      2  C   UNL     1       0.591   8.704  20.527  0.00  0.00    +0.000 C 
BRANCH   2   9
ATOM      3  O   UNL     1      -1.635  13.786  21.286  0.00  0.00    +0.000 OA
ATOM      4  C   UNL     1      -1.637  13.741  22.515  0.00  0.00    +0.000 C 
ATOM      5  N   UNL     1      -1.347  12.635  23.281  0.00  0.00    +0.000 N 
ATOM      6  C   UNL     1      -0.868  11.441  22.797  0.00  0.00    +0.000 A 
ATOM      7  N   UNL     1      -0.833  10.331  23.508  0.00  0.00    +0.000 NA
ATOM      8  N   UNL     1      -0.339   9.263  22.780  0.00  0.00    +0.000 NA
ATOM      9  C   UNL     1       0.028   9.620  21.566  0.00  0.00    +0.000 A 
ATOM     10  S   UNL     1      -0.186  11.286  21.240  0.00  0.00    +0.000 S 
ATOM     11  H   UNL     1      -1.619  12.614  24.254  0.00  0.00    +0.000 HD
BRANCH   4  12
ATOM     12  C   UNL     1      -2.079  14.969  23.291  0.00  0.00    +0.000 C 
BRANCH  12  13
ATOM     13  C   UNL     1      -1.542  15.114  24.687  0.00  0.00    +0.000 C 
ATOM     14  C   UNL     1      -0.837  16.399  25.052  0.00  0.00    +0.000 C 
ATOM     15  C   UNL     1      -2.172  16.079  25.661  0.00  0.00    +0.000 C 
ENDBRANCH  12  13
ENDBRANCH   4  12
ENDBRANCH   2   9
ENDBRANCH   1   2
BRANCH   1  16
ATOM     16  C   UNL     1       2.269   6.766  20.175  0.00  0.00    +0.000 C 
BRANCH  16  17
ATOM     17  C   UNL     1       2.071   5.248  20.101  0.00  0.00    +0.000 C 
BRANCH  17  18
ATOM     18  C   UNL     1       2.750   4.651  18.911  0.00  0.00    +0.000 A 
ATOM     19  N   UNL     1       2.490   3.464  18.405  0.00  0.00    +0.000 NA
ATOM     20  N   UNL     1       3.263   3.200  17.289  0.00  0.00    +0.000 NA
ATOM     21  C   UNL     1       4.039   4.213  16.974  0.00  0.00    +0.000 A 
ATOM     22  N   UNL     1       4.885   4.193  15.890  0.00  0.00    +0.000 N 
ATOM     23  C   UNL     1       5.524   5.282  15.347  0.00  0.00    +0.000 C 
ATOM     24  O   UNL     1       5.454   6.441  15.750  0.00  0.00    +0.000 OA
ATOM     25  S   UNL     1       3.953   5.524  18.058  0.00  0.00    +0.000 S 
ATOM     26  H   UNL     1       4.900   3.304  15.409  0.00  0.00    +0.000 HD
BRANCH  23  27
ATOM     27  C   UNL     1       6.428   4.964  14.166  0.00  0.00    +0.000 C 
BRANCH  27  28
ATOM     28  C   UNL     1       6.214   3.630  13.505  0.00  0.00    +0.000 C 
ATOM     29  C   UNL     1       5.172   3.505  12.423  0.00  0.00    +0.000 C 
ATOM     30  C   UNL     1       6.629   3.409  12.072  0.00  0.00    +0.000 C 
ENDBRANCH  27  28
ENDBRANCH  23  27
ENDBRANCH  17  18
ENDBRANCH  16  17
ENDBRANCH   1  16
TORSDOF 9
ENDMDL
