MODEL 1
REMARK VINA RESULT:      -8.2      0.000      0.000
REMARK  Name = 
REMARK  6 active torsions:
REMARK  status: ('A' for Active; 'I' for Inactive)
REMARK    1  A    between atoms: C_1  and  N_2
REMARK    2  A    between atoms: N_2  and  C_3
REMARK    3  A    between atoms: N_2  and  C_4
REMARK    4  A    between atoms: C_7  and  N_8
REMARK    5  A    between atoms: N_12  and  C_13
REMARK    6  A    between atoms: N_12  and  C_14
REMARK                            x       y       z     vdW  Elec       q    Type
REMARK                         _______ _______ _______ _____ _____    ______ ____
ROOT
ATOM      1  N   UNL     1       2.024   6.698  20.185  0.00  0.00    +0.000 N 
ATOM      2  C   UNL     1       2.893   6.079  19.290  0.00  0.00    +0.000 A 
ATOM      3  N   UNL     1       3.005   4.756  19.484  0.00  0.00    +0.000 NA
ATOM      4  C   UNL     1       3.696   4.022  18.591  0.00  0.00    +0.000 A 
ATOM      5  N   UNL     1       4.055   2.700  18.929  0.00  0.00    +0.000 N 
ATOM      6  C   UNL     1       4.296   2.517  20.360  0.00  0.00    +0.000 C 
ATOM      7  C   UNL     1       3.243   1.658  18.308  0.00  0.00    +0.000 C 
ATOM      8  C   UNL     1       4.229   4.596  17.427  0.00  0.00    +0.000 A 
ATOM      9  C   UNL     1       4.851   3.875  16.372  0.00  0.00    +0.000 A 
ATOM     10  C   UNL     1       5.485   4.529  15.323  0.00  0.00    +0.000 A 
ATOM     11  C   UNL     1       5.535   5.914  15.343  0.00  0.00    +0.000 A 
ATOM     12  C   UNL     1       4.877   6.624  16.358  0.00  0.00    +0.000 A 
ATOM     13  C   UNL     1       4.178   5.992  17.384  0.00  0.00    +0.000 A 
ATOM     14  N   UNL     1       3.518   6.727  18.297  0.00  0.00    +0.000 NA
ATOM     15  H   UNL     1       1.611   5.978  20.760  0.00  0.00    +0.000 HD
ENDROOT
BRANCH   1  19
ATOM     16  C   UNL     1       0.577  10.634  21.092  0.00  0.00    +0.000 A 
ATOM     17  C   UNL     1       0.768   9.645  22.066  0.00  0.00    +0.000 A 
ATOM     18  C   UNL     1       1.257   8.366  21.746  0.00  0.00    +0.000 A 
ATOM     19  C   UNL     1       1.584   8.000  20.432  0.00  0.00    +0.000 A 
ATOM     20  C   UNL     1       1.392   8.965  19.452  0.00  0.00    +0.000 A 
ATOM     21  C   UNL     1       0.923  10.256  19.782  0.00  0.00    +0.000 A 
BRANCH  16  23
ATOM     22  C   UNL     1       0.721  13.107  20.874  0.00  0.00    +0.000 C 
ATOM     23  N   UNL     1       0.092  11.901  21.406  0.00  0.00    +0.000 N 
ATOM     24  C   UNL     1      -0.873  12.078  22.486  0.00  0.00    +0.000 C 
ENDBRANCH  16  23
ENDBRANCH   1  19
TORSDOF 2
ENDMDL
MODEL 2
REMARK VINA RESULT:      -8.1      1.618      3.266
REMARK  Name = 
REMARK  6 active torsions:
REMARK  status: ('A' for Active; 'I' for Inactive)
REMARK    1  A    between atoms: C_1  and  N_2
REMARK    2  A    between atoms: N_2  and  C_3
REMARK    3  A    between atoms: N_2  and  C_4
REMARK    4  A    between atoms: C_7  and  N_8
REMARK    5  A    between atoms: N_12  and  C_13
REMARK    6  A    between atoms: N_12  and  C_14
REMARK                            x       y       z     vdW  Elec       q    Type
REMARK                         _______ _______ _______ _____ _____    ______ ____
ROOT
ATOM      1  N   UNL     1       2.628   8.081  18.350  0.00  0.00    +0.000 N 
ATOM      2  C   UNL     1       2.809   6.728  18.074  0.00  0.00    +0.000 A 
ATOM      3  N   UNL     1       3.976   6.459  17.467  0.00  0.00    +0.000 NA
ATOM      4  C   UNL     1       4.334   5.173  17.285  0.00  0.00    +0.000 A 
ATOM      5  N   UNL     1       5.402   4.882  16.410  0.00  0.00    +0.000 N 
ATOM      6  C   UNL     1       5.514   5.831  15.302  0.00  0.00    +0.000 C 
ATOM      7  C   UNL     1       6.666   4.553  17.062  0.00  0.00    +0.000 C 
ATOM      8  C   UNL     1       3.556   4.118  17.785  0.00  0.00    +0.000 A 
ATOM      9  C   UNL     1       3.927   2.745  17.756  0.00  0.00    +0.000 A 
ATOM     10  C   UNL     1       3.039   1.747  18.137  0.00  0.00    +0.000 A 
ATOM     11  C   UNL     1       1.756   2.114  18.513  0.00  0.00    +0.000 A 
ATOM     12  C   UNL     1       1.409   3.471  18.589  0.00  0.00    +0.000 A 
ATOM     13  C   UNL     1       2.304   4.493  18.277  0.00  0.00    +0.000 A 
ATOM     14  N   UNL     1       1.933   5.777  18.425  0.00  0.00    +0.000 NA
ATOM     15  H   UNL     1       3.472   8.565  18.077  0.00  0.00    +0.000 HD
ENDROOT
BRANCH   1  19
ATOM     16  C   UNL     1      -0.403  10.648  19.971  0.00  0.00    +0.000 A 
ATOM     17  C   UNL     1      -0.012  10.679  18.627  0.00  0.00    +0.000 A 
ATOM     18  C   UNL     1       0.975   9.818  18.115  0.00  0.00    +0.000 A 
ATOM     19  C   UNL     1       1.629   8.873  18.919  0.00  0.00    +0.000 A 
ATOM     20  C   UNL     1       1.261   8.833  20.257  0.00  0.00    +0.000 A 
ATOM     21  C   UNL     1       0.252   9.684  20.760  0.00  0.00    +0.000 A 
BRANCH  16  23
ATOM     22  C   UNL     1      -2.259  12.260  19.600  0.00  0.00    +0.000 C 
ATOM     23  N   UNL     1      -1.379  11.499  20.482  0.00  0.00    +0.000 N 
ATOM     24  C   UNL     1      -1.371  11.873  21.893  0.00  0.00    +0.000 C 
ENDBRANCH  16  23
ENDBRANCH   1  19
TORSDOF 2
ENDMDL
MODEL 3
REMARK VINA RESULT:      -8.0      0.208      1.008
REMARK  Name = 
REMARK  6 active torsions:
REMARK  status: ('A' for Active; 'I' for Inactive)
REMARK    1  A    between atoms: C_1  and  N_2
REMARK    2  A    between atoms: N_2  and  C_3
REMARK    3  A    between atoms: N_2  and  C_4
REMARK    4  A    between atoms: C_7  and  N_8
REMARK    5  A    between atoms: N_12  and  C_13
REMARK    6  A    between atoms: N_12  and  C_14
REMARK                            x       y       z     vdW  Elec       q    Type
REMARK                         _______ _______ _______ _____ _____    ______ ____
ROOT
ATOM      1  N   UNL     1       1.983   6.696  20.257  0.00  0.00    +0.000 N 
ATOM      2  C   UNL     1       2.852   6.089  19.353  0.00  0.00    +0.000 A 
ATOM      3  N   UNL     1       2.969   4.764  19.534  0.00  0.00    +0.000 NA
ATOM      4  C   UNL     1       3.661   4.041  18.631  0.00  0.00    +0.000 A 
ATOM      5  N   UNL     1       4.026   2.718  18.955  0.00  0.00    +0.000 N 
ATOM      6  C   UNL     1       4.271   2.522  20.384  0.00  0.00    +0.000 C 
ATOM      7  C   UNL     1       3.215   1.679  18.327  0.00  0.00    +0.000 C 
ATOM      8  C   UNL     1       4.188   4.630  17.472  0.00  0.00    +0.000 A 
ATOM      9  C   UNL     1       4.810   3.921  16.408  0.00  0.00    +0.000 A 
ATOM     10  C   UNL     1       5.438   4.587  15.364  0.00  0.00    +0.000 A 
ATOM     11  C   UNL     1       5.484   5.972  15.398  0.00  0.00    +0.000 A 
ATOM     12  C   UNL     1       4.826   6.670  16.421  0.00  0.00    +0.000 A 
ATOM     13  C   UNL     1       4.132   6.025  17.442  0.00  0.00    +0.000 A 
ATOM     14  N   UNL     1       3.471   6.748  18.365  0.00  0.00    +0.000 NA
ATOM     15  H   UNL     1       1.575   5.968  20.826  0.00  0.00    +0.000 HD
ENDROOT
BRANCH   1  19
ATOM     16  C   UNL     1       0.708  10.741  20.901  0.00  0.00    +0.000 A 
ATOM     17  C   UNL     1       0.961  10.211  19.630  0.00  0.00    +0.000 A 
ATOM     18  C   UNL     1       1.365   8.878  19.442  0.00  0.00    +0.000 A 
ATOM     19  C   UNL     1       1.539   7.994  20.517  0.00  0.00    +0.000 A 
ATOM     20  C   UNL     1       1.301   8.504  21.786  0.00  0.00    +0.000 A 
ATOM     21  C   UNL     1       0.872   9.838  21.967  0.00  0.00    +0.000 A 
BRANCH  16  23
ATOM     22  C   UNL     1       0.993  13.165  20.422  0.00  0.00    +0.000 C 
ATOM     23  N   UNL     1       0.308  12.062  21.090  0.00  0.00    +0.000 N 
ATOM     24  C   UNL     1      -0.614  12.409  22.167  0.00  0.00    +0.000 C 
ENDBRANCH  16  23
ENDBRANCH   1  19
TORSDOF 2
ENDMDL
MODEL 4
REMARK VINA RESULT:      -8.0      1.587      3.117
REMARK  Name = 
REMARK  6 active torsions:
REMARK  status: ('A' for Active; 'I' for Inactive)
REMARK    1  A    between atoms: C_1  and  N_2
REMARK    2  A    between atoms: N_2  and  C_3
REMARK    3  A    between atoms: N_2  and  C_4
REMARK    4  A    between atoms: C_7  and  N_8
REMARK    5  A    between atoms: N_12  and  C_13
REMARK    6  A    between atoms: N_12  and  C_14
REMARK                            x       y       z     vdW  Elec       q    Type
REMARK                         _______ _______ _______ _____ _____    ______ ____
ROOT
ATOM      1  N   UNL     1       2.811   8.062  18.199  0.00  0.00    +0.000 N 
ATOM      2  C   UNL     1       2.954   6.693  17.982  0.00  0.00    +0.000 A 
ATOM      3  N   UNL     1       4.102   6.369  17.367  0.00  0.00    +0.000 NA
ATOM      4  C   UNL     1       4.426   5.067  17.236  0.00  0.00    +0.000 A 
ATOM      5  N   UNL     1       5.470   4.711  16.356  0.00  0.00    +0.000 N 
ATOM      6  C   UNL     1       5.583   5.607  15.205  0.00  0.00    +0.000 C 
ATOM      7  C   UNL     1       6.738   4.381  16.999  0.00  0.00    +0.000 C 
ATOM      8  C   UNL     1       3.634   4.055  17.798  0.00  0.00    +0.000 A 
ATOM      9  C   UNL     1       3.971   2.674  17.824  0.00  0.00    +0.000 A 
ATOM     10  C   UNL     1       3.067   1.716  18.266  0.00  0.00    +0.000 A 
ATOM     11  C   UNL     1       1.801   2.131  18.648  0.00  0.00    +0.000 A 
ATOM     12  C   UNL     1       1.488   3.498  18.670  0.00  0.00    +0.000 A 
ATOM     13  C   UNL     1       2.400   4.482  18.296  0.00  0.00    +0.000 A 
ATOM     14  N   UNL     1       2.062   5.781  18.392  0.00  0.00    +0.000 NA
ATOM     15  H   UNL     1       3.660   8.512  17.890  0.00  0.00    +0.000 HD
ENDROOT
BRANCH   1  19
ATOM     16  C   UNL     1      -0.214  10.505  20.011  0.00  0.00    +0.000 A 
ATOM     17  C   UNL     1       0.460   9.487  20.697  0.00  0.00    +0.000 A 
ATOM     18  C   UNL     1       1.459   8.708  20.086  0.00  0.00    +0.000 A 
ATOM     19  C   UNL     1       1.842   8.902  18.750  0.00  0.00    +0.000 A 
ATOM     20  C   UNL     1       1.177   9.901  18.052  0.00  0.00    +0.000 A 
ATOM     21  C   UNL     1       0.192  10.697  18.678  0.00  0.00    +0.000 A 
BRANCH  16  23
ATOM     22  C   UNL     1      -2.124  12.086  19.819  0.00  0.00    +0.000 C 
ATOM     23  N   UNL     1      -1.204  11.278  20.614  0.00  0.00    +0.000 N 
ATOM     24  C   UNL     1      -1.176  11.526  22.052  0.00  0.00    +0.000 C 
ENDBRANCH  16  23
ENDBRANCH   1  19
TORSDOF 2
ENDMDL
MODEL 5
REMARK VINA RESULT:      -7.7      1.287      1.555
REMARK  Name = 
REMARK  6 active torsions:
REMARK  status: ('A' for Active; 'I' for Inactive)
REMARK    1  A    between atoms: C_1  and  N_2
REMARK    2  A    between atoms: N_2  and  C_3
REMARK    3  A    between atoms: N_2  and  C_4
REMARK    4  A    between atoms: C_7  and  N_8
REMARK    5  A    between atoms: N_12  and  C_13
REMARK    6  A    between atoms: N_12  and  C_14
REMARK                            x       y       z     vdW  Elec       q    Type
REMARK                         _______ _______ _______ _____ _____    ______ ____
ROOT
ATOM      1  N   UNL     1       0.901   7.305  21.073  0.00  0.00    +0.000 N 
ATOM      2  C   UNL     1       1.770   6.566  20.273  0.00  0.00    +0.000 A 
ATOM      3  N   UNL     1       1.678   5.241  20.469  0.00  0.00    +0.000 NA
ATOM      4  C   UNL     1       2.355   4.412  19.651  0.00  0.00    +0.000 A 
ATOM      5  N   UNL     1       2.491   3.056  20.016  0.00  0.00    +0.000 N 
ATOM      6  C   UNL     1       2.548   2.854  21.464  0.00  0.00    +0.000 C 
ATOM      7  C   UNL     1       1.616   2.130  19.304  0.00  0.00    +0.000 C 
ATOM      8  C   UNL     1       3.084   4.899  18.555  0.00  0.00    +0.000 A 
ATOM      9  C   UNL     1       3.712   4.091  17.568  0.00  0.00    +0.000 A 
ATOM     10  C   UNL     1       4.539   4.644  16.599  0.00  0.00    +0.000 A 
ATOM     11  C   UNL     1       4.776   6.009  16.634  0.00  0.00    +0.000 A 
ATOM     12  C   UNL     1       4.115   6.811  17.577  0.00  0.00    +0.000 A 
ATOM     13  C   UNL     1       3.229   6.288  18.516  0.00  0.00    +0.000 A 
ATOM     14  N   UNL     1       2.581   7.113  19.358  0.00  0.00    +0.000 NA
ATOM     15  H   UNL     1       0.335   6.652  21.595  0.00  0.00    +0.000 HD
ENDROOT
BRANCH   1  19
ATOM     16  C   UNL     1      -0.113  11.407  21.812  0.00  0.00    +0.000 A 
ATOM     17  C   UNL     1      -0.421  10.370  22.701  0.00  0.00    +0.000 A 
ATOM     18  C   UNL     1      -0.065   9.034  22.444  0.00  0.00    +0.000 A 
ATOM     19  C   UNL     1       0.620   8.656  21.280  0.00  0.00    +0.000 A 
ATOM     20  C   UNL     1       0.925   9.670  20.382  0.00  0.00    +0.000 A 
ATOM     21  C   UNL     1       0.587  11.014  20.657  0.00  0.00    +0.000 A 
BRANCH  16  23
ATOM     22  C   UNL     1       0.251  13.838  21.435  0.00  0.00    +0.000 C 
ATOM     23  N   UNL     1      -0.464  12.731  22.063  0.00  0.00    +0.000 N 
ATOM     24  C   UNL     1      -1.363  13.062  23.165  0.00  0.00    +0.000 C 
ENDBRANCH  16  23
ENDBRANCH   1  19
TORSDOF 2
ENDMDL
MODEL 6
REMARK VINA RESULT:      -7.7      1.699      8.454
REMARK  Name = 
REMARK  6 active torsions:
REMARK  status: ('A' for Active; 'I' for Inactive)
REMARK    1  A    between atoms: C_1  and  N_2
REMARK    2  A    between atoms: N_2  and  C_3
REMARK    3  A    between atoms: N_2  and  C_4
REMARK    4  A    between atoms: C_7  and  N_8
REMARK    5  A    between atoms: N_12  and  C_13
REMARK    6  A    between atoms: N_12  and  C_14
REMARK                            x       y       z     vdW  Elec       q    Type
REMARK                         _______ _______ _______ _____ _____    ______ ____
ROOT
ATOM      1  N   UNL     1       2.107   8.149  18.706  0.00  0.00    +0.000 N 
ATOM      2  C   UNL     1       1.470   9.100  19.500  0.00  0.00    +0.000 A 
ATOM      3  N   UNL     1       1.307  10.283  18.887  0.00  0.00    +0.000 NA
ATOM      4  C   UNL     1       0.572  11.236  19.492  0.00  0.00    +0.000 A 
ATOM      5  N   UNL     1       0.630  12.557  18.999  0.00  0.00    +0.000 N 
ATOM      6  C   UNL     1       1.930  12.899  18.423  0.00  0.00    +0.000 C 
ATOM      7  C   UNL     1      -0.520  12.972  18.201  0.00  0.00    +0.000 C 
ATOM      8  C   UNL     1      -0.090  10.990  20.705  0.00  0.00    +0.000 A 
ATOM      9  C   UNL     1      -0.990  11.888  21.341  0.00  0.00    +0.000 A 
ATOM     10  C   UNL     1      -1.489  11.634  22.612  0.00  0.00    +0.000 A 
ATOM     11  C   UNL     1      -1.058  10.495  23.274  0.00  0.00    +0.000 A 
ATOM     12  C   UNL     1      -0.210   9.585  22.626  0.00  0.00    +0.000 A 
ATOM     13  C   UNL     1       0.250   9.785  21.326  0.00  0.00    +0.000 A 
ATOM     14  N   UNL     1       1.015   8.849  20.734  0.00  0.00    +0.000 NA
ATOM     15  H   UNL     1       2.253   8.558  17.794  0.00  0.00    +0.000 HD
ENDROOT
BRANCH   1  19
ATOM     16  C   UNL     1       3.405   4.069  18.973  0.00  0.00    +0.000 A 
ATOM     17  C   UNL     1       3.716   4.902  17.892  0.00  0.00    +0.000 A 
ATOM     18  C   UNL     1       3.291   6.241  17.833  0.00  0.00    +0.000 A 
ATOM     19  C   UNL     1       2.528   6.826  18.854  0.00  0.00    +0.000 A 
ATOM     20  C   UNL     1       2.202   6.013  19.930  0.00  0.00    +0.000 A 
ATOM     21  C   UNL     1       2.653   4.675  19.996  0.00  0.00    +0.000 A 
BRANCH  16  23
ATOM     22  C   UNL     1       3.404   1.767  18.032  0.00  0.00    +0.000 C 
ATOM     23  N   UNL     1       3.824   2.742  19.034  0.00  0.00    +0.000 N 
ATOM     24  C   UNL     1       4.458   2.221  20.241  0.00  0.00    +0.000 C 
ENDBRANCH  16  23
ENDBRANCH   1  19
TORSDOF 2
ENDMDL
MODEL 7
REMARK VINA RESULT:      -7.6      1.641      8.337
REMARK  Name = 
REMARK  6 active torsions:
REMARK  status: ('A' for Active; 'I' for Inactive)
REMARK    1  A    between atoms: C_1  and  N_2
REMARK    2  A    between atoms: N_2  and  C_3
REMARK    3  A    between atoms: N_2  and  C_4
REMARK    4  A    between atoms: C_7  and  N_8
REMARK    5  A    between atoms: N_12  and  C_13
REMARK    6  A    between atoms: N_12  and  C_14
REMARK                            x       y       z     vdW  Elec       q    Type
REMARK                         _______ _______ _______ _____ _____    ______ ____
ROOT
ATOM      1  N   UNL     1       2.169   8.082  18.535  0.00  0.00    +0.000 N 
ATOM      2  C   UNL     1       1.559   9.002  19.385  0.00  0.00    +0.000 A 
ATOM      3  N   UNL     1       1.392  10.212  18.829  0.00  0.00    +0.000 NA
ATOM      4  C   UNL     1       0.680  11.142  19.493  0.00  0.00    +0.000 A 
ATOM      5  N   UNL     1       0.737  12.483  19.058  0.00  0.00    +0.000 N 
ATOM      6  C   UNL     1       2.026  12.841  18.466  0.00  0.00    +0.000 C 
ATOM      7  C   UNL     1      -0.427  12.942  18.307  0.00  0.00    +0.000 C 
ATOM      8  C   UNL     1       0.045  10.848  20.710  0.00  0.00    +0.000 A 
ATOM      9  C   UNL     1      -0.832  11.724  21.406  0.00  0.00    +0.000 A 
ATOM     10  C   UNL     1      -1.303  11.418  22.676  0.00  0.00    +0.000 A 
ATOM     11  C   UNL     1      -0.867  10.247  23.277  0.00  0.00    +0.000 A 
ATOM     12  C   UNL     1      -0.042   9.361  22.569  0.00  0.00    +0.000 A 
ATOM     13  C   UNL     1       0.389   9.614  21.268  0.00  0.00    +0.000 A 
ATOM     14  N   UNL     1       1.131   8.700  20.618  0.00  0.00    +0.000 NA
ATOM     15  H   UNL     1       2.297   8.530  17.639  0.00  0.00    +0.000 HD
ENDROOT
BRANCH   1  19
ATOM     16  C   UNL     1       3.434   4.005  18.969  0.00  0.00    +0.000 A 
ATOM     17  C   UNL     1       2.637   4.664  19.913  0.00  0.00    +0.000 A 
ATOM     18  C   UNL     1       2.223   5.997  19.742  0.00  0.00    +0.000 A 
ATOM     19  C   UNL     1       2.582   6.751  18.615  0.00  0.00    +0.000 A 
ATOM     20  C   UNL     1       3.379   6.116  17.672  0.00  0.00    +0.000 A 
ATOM     21  C   UNL     1       3.772   4.769  17.837  0.00  0.00    +0.000 A 
BRANCH  16  23
ATOM     22  C   UNL     1       3.474   1.648  18.178  0.00  0.00    +0.000 C 
ATOM     23  N   UNL     1       3.846   2.686  19.135  0.00  0.00    +0.000 N 
ATOM     24  C   UNL     1       4.419   2.243  20.403  0.00  0.00    +0.000 C 
ENDBRANCH  16  23
ENDBRANCH   1  19
TORSDOF 2
ENDMDL
MODEL 8
REMARK VINA RESULT:      -7.6      1.715      3.523
REMARK  Name = 
REMARK  6 active torsions:
REMARK  status: ('A' for Active; 'I' for Inactive)
REMARK    1  A    between atoms: C_1  and  N_2
REMARK    2  A    between atoms: N_2  and  C_3
REMARK    3  A    between atoms: N_2  and  C_4
REMARK    4  A    between atoms: C_7  and  N_8
REMARK    5  A    between atoms: N_12  and  C_13
REMARK    6  A    between atoms: N_12  and  C_14
REMARK                            x       y       z     vdW  Elec       q    Type
REMARK                         _______ _______ _______ _____ _____    ______ ____
ROOT
ATOM      1  N   UNL     1       2.467   8.140  18.490  0.00  0.00    +0.000 N 
ATOM      2  C   UNL     1       2.837   6.811  18.686  0.00  0.00    +0.000 A 
ATOM      3  N   UNL     1       3.918   6.449  17.977  0.00  0.00    +0.000 NA
ATOM      4  C   UNL     1       4.464   5.237  18.195  0.00  0.00    +0.000 A 
ATOM      5  N   UNL     1       5.409   4.740  17.272  0.00  0.00    +0.000 N 
ATOM      6  C   UNL     1       5.168   5.192  15.902  0.00  0.00    +0.000 C 
ATOM      7  C   UNL     1       6.801   4.820  17.705  0.00  0.00    +0.000 C 
ATOM      8  C   UNL     1       3.979   4.385  19.199  0.00  0.00    +0.000 A 
ATOM      9  C   UNL     1       4.577   3.154  19.585  0.00  0.00    +0.000 A 
ATOM     10  C   UNL     1       3.955   2.297  20.483  0.00  0.00    +0.000 A 
ATOM     11  C   UNL     1       2.706   2.648  20.973  0.00  0.00    +0.000 A 
ATOM     12  C   UNL     1       2.142   3.885  20.631  0.00  0.00    +0.000 A 
ATOM     13  C   UNL     1       2.778   4.791  19.785  0.00  0.00    +0.000 A 
ATOM     14  N   UNL     1       2.213   5.988  19.538  0.00  0.00    +0.000 NA
ATOM     15  H   UNL     1       3.155   8.564  17.884  0.00  0.00    +0.000 HD
ENDROOT
BRANCH   1  19
ATOM     16  C   UNL     1      -0.631  10.840  19.720  0.00  0.00    +0.000 A 
ATOM     17  C   UNL     1      -0.299  10.616  18.378  0.00  0.00    +0.000 A 
ATOM     18  C   UNL     1       0.711   9.715  17.998  0.00  0.00    +0.000 A 
ATOM     19  C   UNL     1       1.451   8.984  18.940  0.00  0.00    +0.000 A 
ATOM     20  C   UNL     1       1.142   9.201  20.276  0.00  0.00    +0.000 A 
ATOM     21  C   UNL     1       0.109  10.089  20.651  0.00  0.00    +0.000 A 
BRANCH  16  23
ATOM     22  C   UNL     1      -1.747  12.200  21.478  0.00  0.00    +0.000 C 
ATOM     23  N   UNL     1      -1.631  11.732  20.100  0.00  0.00    +0.000 N 
ATOM     24  C   UNL     1      -2.754  12.008  19.209  0.00  0.00    +0.000 C 
ENDBRANCH  16  23
ENDBRANCH   1  19
TORSDOF 2
ENDMDL
MODEL 9
REMARK VINA RESULT:      -7.6      1.627      3.330
REMARK  Name = 
REMARK  6 active torsions:
REMARK  status: ('A' for Active; 'I' for Inactive)
REMARK    1  A    between atoms: C_1  and  N_2
REMARK    2  A    between atoms: N_2  and  C_3
REMARK    3  A    between atoms: N_2  and  C_4
REMARK    4  A    between atoms: C_7  and  N_8
REMARK    5  A    between atoms: N_12  and  C_13
REMARK    6  A    between atoms: N_12  and  C_14
REMARK                            x       y       z     vdW  Elec       q    Type
REMARK                         _______ _______ _______ _____ _____    ______ ____
ROOT
ATOM      1  N   UNL     1       2.563   8.034  18.383  0.00  0.00    +0.000 N 
ATOM      2  C   UNL     1       2.905   6.707  18.637  0.00  0.00    +0.000 A 
ATOM      3  N   UNL     1       3.969   6.287  17.934  0.00  0.00    +0.000 NA
ATOM      4  C   UNL     1       4.489   5.074  18.202  0.00  0.00    +0.000 A 
ATOM      5  N   UNL     1       5.412   4.513  17.293  0.00  0.00    +0.000 N 
ATOM      6  C   UNL     1       5.165   4.907  15.906  0.00  0.00    +0.000 C 
ATOM      7  C   UNL     1       6.810   4.580  17.708  0.00  0.00    +0.000 C 
ATOM      8  C   UNL     1       3.996   4.281  19.249  0.00  0.00    +0.000 A 
ATOM      9  C   UNL     1       4.570   3.055  19.685  0.00  0.00    +0.000 A 
ATOM     10  C   UNL     1       3.939   2.255  20.628  0.00  0.00    +0.000 A 
ATOM     11  C   UNL     1       2.705   2.657  21.115  0.00  0.00    +0.000 A 
ATOM     12  C   UNL     1       2.164   3.891  20.721  0.00  0.00    +0.000 A 
ATOM     13  C   UNL     1       2.811   4.742  19.828  0.00  0.00    +0.000 A 
ATOM     14  N   UNL     1       2.272   5.939  19.533  0.00  0.00    +0.000 NA
ATOM     15  H   UNL     1       3.254   8.413  17.751  0.00  0.00    +0.000 HD
ENDROOT
BRANCH   1  19
ATOM     16  C   UNL     1      -0.506  10.656  19.835  0.00  0.00    +0.000 A 
ATOM     17  C   UNL     1       0.324   9.908  20.678  0.00  0.00    +0.000 A 
ATOM     18  C   UNL     1       1.334   9.066  20.180  0.00  0.00    +0.000 A 
ATOM     19  C   UNL     1       1.572   8.921  18.805  0.00  0.00    +0.000 A 
ATOM     20  C   UNL     1       0.752   9.648  17.953  0.00  0.00    +0.000 A 
ATOM     21  C   UNL     1      -0.245  10.512  18.460  0.00  0.00    +0.000 A 
BRANCH  16  23
ATOM     22  C   UNL     1      -2.466  12.132  19.431  0.00  0.00    +0.000 C 
ATOM     23  N   UNL     1      -1.507  11.490  20.325  0.00  0.00    +0.000 N 
ATOM     24  C   UNL     1      -1.460  11.972  21.703  0.00  0.00    +0.000 C 
ENDBRANCH  16  23
ENDBRANCH   1  19
TORSDOF 2
ENDMDL
