MODEL 1
REMARK VINA RESULT:      -7.1      0.000      0.000
REMARK  Name = 
REMARK  7 active torsions:
REMARK  status: ('A' for Active; 'I' for Inactive)
REMARK    1  A    between atoms: C_1  and  C_2
REMARK    2  A    between atoms: C_2  and  C_3
REMARK    3  A    between atoms: N_7  and  C_8
REMARK    4  A    between atoms: C_8  and  C_9
REMARK    5  A    between atoms: C_9  and  C_10
REMARK    6  A    between atoms: C_10  and  C_11
REMARK    7  A    between atoms: C_11  and  C_12
REMARK                            x       y       z     vdW  Elec       q    Type
REMARK                         _______ _______ _______ _____ _____    ______ ____
ROOT
ATOM      1  C   UNL     1       5.443   6.210  16.767  0.00  0.00    +0.000 C 
ENDROOT
BRANCH   1   2
ATOM      2  C   UNL     1       6.555   5.190  16.509  0.00  0.00    +0.000 C 
BRANCH   2   7
ATOM      3  C   UNL     1       6.364   3.712  12.567  0.00  0.00    +0.000 A 
ATOM      4  N   UNL     1       7.283   4.298  11.796  0.00  0.00    +0.000 NA
ATOM      5  S   UNL     1       8.099   5.377  12.774  0.00  0.00    +0.000 S 
ATOM      6  C   UNL     1       7.159   4.993  14.174  0.00  0.00    +0.000 A 
ATOM      7  N   UNL     1       7.359   5.583  15.371  0.00  0.00    +0.000 N 
ATOM      8  N   UNL     1       6.256   4.076  13.905  0.00  0.00    +0.000 NA
ATOM      9  H   UNL     1       8.130   6.223  15.509  0.00  0.00    +0.000 HD
BRANCH   3  11
ATOM     10  C   UNL     1       4.222   3.255  11.371  0.00  0.00    +0.000 C 
ATOM     11  C   UNL     1       5.468   2.662  12.009  0.00  0.00    +0.000 C 
ENDBRANCH   3  11
ENDBRANCH   2   7
ENDBRANCH   1   2
BRANCH   1  12
ATOM     12  C   UNL     1       4.720   5.893  18.079  0.00  0.00    +0.000 C 
BRANCH  12  13
ATOM     13  C   UNL     1       3.209   5.748  17.890  0.00  0.00    +0.000 C 
BRANCH  13  14
ATOM     14  C   UNL     1       2.747   4.344  18.192  0.00  0.00    +0.000 A 
ATOM     15  C   UNL     1       1.407   4.070  18.468  0.00  0.00    +0.000 A 
ATOM     16  C   UNL     1       1.041   2.755  18.711  0.00  0.00    +0.000 A 
ATOM     17  N   UNL     1       1.903   1.714  18.696  0.00  0.00    +0.000 NA
ATOM     18  C   UNL     1       3.188   1.988  18.424  0.00  0.00    +0.000 A 
ATOM     19  N   UNL     1       4.058   0.901  18.369  0.00  0.00    +0.000 N 
ATOM     20  C   UNL     1       3.646   3.274  18.160  0.00  0.00    +0.000 A 
ATOM     21  H   UNL     1       3.517   0.085  18.644  0.00  0.00    +0.000 HD
ATOM     22  H   UNL     1       4.865   1.039  18.966  0.00  0.00    +0.000 HD
ENDBRANCH  13  14
ENDBRANCH  12  13
ENDBRANCH   1  12
TORSDOF 6
ENDMDL
MODEL 2
REMARK VINA RESULT:      -6.8      2.510      3.499
REMARK  Name = 
REMARK  7 active torsions:
REMARK  status: ('A' for Active; 'I' for Inactive)
REMARK    1  A    between atoms: C_1  and  C_2
REMARK    2  A    between atoms: C_2  and  C_3
REMARK    3  A    between atoms: N_7  and  C_8
REMARK    4  A    between atoms: C_8  and  C_9
REMARK    5  A    between atoms: C_9  and  C_10
REMARK    6  A    between atoms: C_10  and  C_11
REMARK    7  A    between atoms: C_11  and  C_12
REMARK                            x       y       z     vdW  Elec       q    Type
REMARK                         _______ _______ _______ _____ _____    ______ ____
ROOT
ATOM      1  C   UNL     1       2.146   5.727  18.411  0.00  0.00    +0.000 C 
ENDROOT
BRANCH   1   2
ATOM      2  C   UNL     1       3.231   6.602  17.780  0.00  0.00    +0.000 C 
BRANCH   2   7
ATOM      3  C   UNL     1       6.564   4.605  16.148  0.00  0.00    +0.000 A 
ATOM      4  N   UNL     1       7.564   4.551  17.031  0.00  0.00    +0.000 NA
ATOM      5  S   UNL     1       7.019   5.325  18.405  0.00  0.00    +0.000 S 
ATOM      6  C   UNL     1       5.473   5.691  17.723  0.00  0.00    +0.000 A 
ATOM      7  N   UNL     1       4.515   6.357  18.402  0.00  0.00    +0.000 N 
ATOM      8  N   UNL     1       5.376   5.239  16.493  0.00  0.00    +0.000 NA
ATOM      9  H   UNL     1       4.646   6.600  19.376  0.00  0.00    +0.000 HD
BRANCH   3  11
ATOM     10  C   UNL     1       5.562   4.346  13.876  0.00  0.00    +0.000 C 
ATOM     11  C   UNL     1       6.708   3.975  14.806  0.00  0.00    +0.000 C 
ENDBRANCH   3  11
ENDBRANCH   2   7
ENDBRANCH   1   2
BRANCH   1  12
ATOM     12  C   UNL     1       1.792   4.562  17.482  0.00  0.00    +0.000 C 
BRANCH  12  13
ATOM     13  C   UNL     1       1.106   3.413  18.225  0.00  0.00    +0.000 C 
BRANCH  13  14
ATOM     14  C   UNL     1       1.863   3.034  19.473  0.00  0.00    +0.000 A 
ATOM     15  C   UNL     1       1.254   3.079  20.727  0.00  0.00    +0.000 A 
ATOM     16  C   UNL     1       1.995   2.692  21.834  0.00  0.00    +0.000 A 
ATOM     17  N   UNL     1       3.277   2.270  21.776  0.00  0.00    +0.000 NA
ATOM     18  C   UNL     1       3.852   2.226  20.564  0.00  0.00    +0.000 A 
ATOM     19  N   UNL     1       5.160   1.748  20.514  0.00  0.00    +0.000 N 
ATOM     20  C   UNL     1       3.186   2.586  19.399  0.00  0.00    +0.000 A 
ATOM     21  H   UNL     1       5.451   1.600  21.477  0.00  0.00    +0.000 HD
ATOM     22  H   UNL     1       5.773   2.392  20.028  0.00  0.00    +0.000 HD
ENDBRANCH  13  14
ENDBRANCH  12  13
ENDBRANCH   1  12
TORSDOF 6
ENDMDL
MODEL 3
REMARK VINA RESULT:      -6.8      1.149      1.392
REMARK  Name = 
REMARK  7 active torsions:
REMARK  status: ('A' for Active; 'I' for Inactive)
REMARK    1  A    between atoms: C_1  and  C_2
REMARK    2  A    between atoms: C_2  and  C_3
REMARK    3  A    between atoms: N_7  and  C_8
REMARK    4  A    between atoms: C_8  and  C_9
REMARK    5  A    between atoms: C_9  and  C_10
REMARK    6  A    between atoms: C_10  and  C_11
REMARK    7  A    between atoms: C_11  and  C_12
REMARK                            x       y       z     vdW  Elec       q    Type
REMARK                         _______ _______ _______ _____ _____    ______ ____
ROOT
ATOM      1  C   UNL     1       5.787   5.872  17.271  0.00  0.00    +0.000 C 
ENDROOT
BRANCH   1   2
ATOM      2  C   UNL     1       6.648   4.768  16.653  0.00  0.00    +0.000 C 
BRANCH   2   7
ATOM      3  C   UNL     1       6.304   3.652  12.604  0.00  0.00    +0.000 A 
ATOM      4  N   UNL     1       7.183   4.318  11.851  0.00  0.00    +0.000 NA
ATOM      5  S   UNL     1       8.029   5.314  12.889  0.00  0.00    +0.000 S 
ATOM      6  C   UNL     1       7.154   4.791  14.286  0.00  0.00    +0.000 A 
ATOM      7  N   UNL     1       7.399   5.273  15.523  0.00  0.00    +0.000 N 
ATOM      8  N   UNL     1       6.249   3.890  13.972  0.00  0.00    +0.000 NA
ATOM      9  H   UNL     1       8.169   5.909  15.686  0.00  0.00    +0.000 HD
BRANCH   3  11
ATOM     10  C   UNL     1       4.200   3.293  11.309  0.00  0.00    +0.000 C 
ATOM     11  C   UNL     1       5.395   2.644  11.989  0.00  0.00    +0.000 C 
ENDBRANCH   3  11
ENDBRANCH   2   7
ENDBRANCH   1   2
BRANCH   1  12
ATOM     12  C   UNL     1       4.338   5.398  17.423  0.00  0.00    +0.000 C 
BRANCH  12  13
ATOM     13  C   UNL     1       3.701   5.883  18.726  0.00  0.00    +0.000 C 
BRANCH  13  14
ATOM     14  C   UNL     1       2.857   4.806  19.362  0.00  0.00    +0.000 A 
ATOM     15  C   UNL     1       2.386   4.936  20.668  0.00  0.00    +0.000 A 
ATOM     16  C   UNL     1       1.594   3.923  21.186  0.00  0.00    +0.000 A 
ATOM     17  N   UNL     1       1.243   2.812  20.503  0.00  0.00    +0.000 NA
ATOM     18  C   UNL     1       1.697   2.699  19.245  0.00  0.00    +0.000 A 
ATOM     19  N   UNL     1       1.293   1.569  18.537  0.00  0.00    +0.000 N 
ATOM     20  C   UNL     1       2.490   3.666  18.639  0.00  0.00    +0.000 A 
ATOM     21  H   UNL     1       0.771   0.990  19.191  0.00  0.00    +0.000 HD
ATOM     22  H   UNL     1       2.084   1.075  18.141  0.00  0.00    +0.000 HD
ENDBRANCH  13  14
ENDBRANCH  12  13
ENDBRANCH   1  12
TORSDOF 6
ENDMDL
MODEL 4
REMARK VINA RESULT:      -6.6      3.662      4.926
REMARK  Name = 
REMARK  7 active torsions:
REMARK  status: ('A' for Active; 'I' for Inactive)
REMARK    1  A    between atoms: C_1  and  C_2
REMARK    2  A    between atoms: C_2  and  C_3
REMARK    3  A    between atoms: N_7  and  C_8
REMARK    4  A    between atoms: C_8  and  C_9
REMARK    5  A    between atoms: C_9  and  C_10
REMARK    6  A    between atoms: C_10  and  C_11
REMARK    7  A    between atoms: C_11  and  C_12
REMARK                            x       y       z     vdW  Elec       q    Type
REMARK                         _______ _______ _______ _____ _____    ______ ____
ROOT
ATOM      1  C   UNL     1       2.438   4.056  17.853  0.00  0.00    +0.000 C 
ENDROOT
BRANCH   1   2
ATOM      2  C   UNL     1       3.590   3.075  17.623  0.00  0.00    +0.000 C 
BRANCH   2   7
ATOM      3  C   UNL     1       6.602   4.410  14.994  0.00  0.00    +0.000 A 
ATOM      4  N   UNL     1       7.644   4.896  15.674  0.00  0.00    +0.000 NA
ATOM      5  S   UNL     1       7.258   4.751  17.291  0.00  0.00    +0.000 S 
ATOM      6  C   UNL     1       5.709   4.049  16.976  0.00  0.00    +0.000 A 
ATOM      7  N   UNL     1       4.860   3.685  17.959  0.00  0.00    +0.000 N 
ATOM      8  N   UNL     1       5.494   3.930  15.684  0.00  0.00    +0.000 NA
ATOM      9  H   UNL     1       5.140   3.740  18.930  0.00  0.00    +0.000 HD
BRANCH   3  11
ATOM     10  C   UNL     1       5.415   3.640  12.937  0.00  0.00    +0.000 C 
ATOM     11  C   UNL     1       6.627   4.363  13.506  0.00  0.00    +0.000 C 
ENDBRANCH   3  11
ENDBRANCH   2   7
ENDBRANCH   1   2
BRANCH   1  12
ATOM     12  C   UNL     1       2.882   5.195  18.775  0.00  0.00    +0.000 C 
BRANCH  12  13
ATOM     13  C   UNL     1       3.014   6.526  18.034  0.00  0.00    +0.000 C 
BRANCH  13  14
ATOM     14  C   UNL     1       2.263   7.628  18.740  0.00  0.00    +0.000 A 
ATOM     15  C   UNL     1       1.972   7.543  20.101  0.00  0.00    +0.000 A 
ATOM     16  C   UNL     1       1.302   8.600  20.698  0.00  0.00    +0.000 A 
ATOM     17  N   UNL     1       0.913   9.716  20.043  0.00  0.00    +0.000 NA
ATOM     18  C   UNL     1       1.204   9.790  18.735  0.00  0.00    +0.000 A 
ATOM     19  N   UNL     1       0.835  10.964  18.082  0.00  0.00    +0.000 N 
ATOM     20  C   UNL     1       1.878   8.784  18.053  0.00  0.00    +0.000 A 
ATOM     21  H   UNL     1       0.318  11.521  18.758  0.00  0.00    +0.000 HD
ATOM     22  H   UNL     1       0.287  10.771  17.251  0.00  0.00    +0.000 HD
ENDBRANCH  13  14
ENDBRANCH  12  13
ENDBRANCH   1  12
TORSDOF 6
ENDMDL
MODEL 5
REMARK VINA RESULT:      -6.6      3.177      4.707
REMARK  Name = 
REMARK  7 active torsions:
REMARK  status: ('A' for Active; 'I' for Inactive)
REMARK    1  A    between atoms: C_1  and  C_2
REMARK    2  A    between atoms: C_2  and  C_3
REMARK    3  A    between atoms: N_7  and  C_8
REMARK    4  A    between atoms: C_8  and  C_9
REMARK    5  A    between atoms: C_9  and  C_10
REMARK    6  A    between atoms: C_10  and  C_11
REMARK    7  A    between atoms: C_11  and  C_12
REMARK                            x       y       z     vdW  Elec       q    Type
REMARK                         _______ _______ _______ _____ _____    ______ ____
ROOT
ATOM      1  C   UNL     1       3.771   2.180  20.536  0.00  0.00    +0.000 C 
ENDROOT
BRANCH   1   2
ATOM      2  C   UNL     1       4.289   2.609  19.161  0.00  0.00    +0.000 C 
BRANCH   2   7
ATOM      3  C   UNL     1       6.095   4.986  16.186  0.00  0.00    +0.000 A 
ATOM      4  N   UNL     1       7.149   5.642  16.678  0.00  0.00    +0.000 NA
ATOM      5  S   UNL     1       7.263   5.210  18.286  0.00  0.00    +0.000 S 
ATOM      6  C   UNL     1       5.881   4.172  18.222  0.00  0.00    +0.000 A 
ATOM      7  N   UNL     1       5.435   3.485  19.295  0.00  0.00    +0.000 N 
ATOM      8  N   UNL     1       5.352   4.156  17.018  0.00  0.00    +0.000 NA
ATOM      9  H   UNL     1       5.950   3.495  20.165  0.00  0.00    +0.000 HD
BRANCH   3  11
ATOM     10  C   UNL     1       6.440   4.111  13.874  0.00  0.00    +0.000 C 
ATOM     11  C   UNL     1       5.722   5.125  14.751  0.00  0.00    +0.000 C 
ENDBRANCH   3  11
ENDBRANCH   2   7
ENDBRANCH   1   2
BRANCH   1  12
ATOM     12  C   UNL     1       2.681   3.141  21.020  0.00  0.00    +0.000 C 
BRANCH  12  13
ATOM     13  C   UNL     1       1.786   3.628  19.879  0.00  0.00    +0.000 C 
BRANCH  13  14
ATOM     14  C   UNL     1       1.952   5.109  19.641  0.00  0.00    +0.000 A 
ATOM     15  C   UNL     1       2.339   5.600  18.395  0.00  0.00    +0.000 A 
ATOM     16  C   UNL     1       2.448   6.973  18.233  0.00  0.00    +0.000 A 
ATOM     17  N   UNL     1       2.200   7.872  19.210  0.00  0.00    +0.000 NA
ATOM     18  C   UNL     1       1.822   7.389  20.404  0.00  0.00    +0.000 A 
ATOM     19  N   UNL     1       1.528   8.329  21.390  0.00  0.00    +0.000 N 
ATOM     20  C   UNL     1       1.678   6.031  20.658  0.00  0.00    +0.000 A 
ATOM     21  H   UNL     1       1.753   9.240  20.997  0.00  0.00    +0.000 HD
ATOM     22  H   UNL     1       2.042   8.147  22.243  0.00  0.00    +0.000 HD
ENDBRANCH  13  14
ENDBRANCH  12  13
ENDBRANCH   1  12
TORSDOF 6
ENDMDL
MODEL 6
REMARK VINA RESULT:      -6.5      2.831      4.882
REMARK  Name = 
REMARK  7 active torsions:
REMARK  status: ('A' for Active; 'I' for Inactive)
REMARK    1  A    between atoms: C_1  and  C_2
REMARK    2  A    between atoms: C_2  and  C_3
REMARK    3  A    between atoms: N_7  and  C_8
REMARK    4  A    between atoms: C_8  and  C_9
REMARK    5  A    between atoms: C_9  and  C_10
REMARK    6  A    between atoms: C_10  and  C_11
REMARK    7  A    between atoms: C_11  and  C_12
REMARK                            x       y       z     vdW  Elec       q    Type
REMARK                         _______ _______ _______ _____ _____    ______ ____
ROOT
ATOM      1  C   UNL     1       2.648   2.440  17.565  0.00  0.00    +0.000 C 
ENDROOT
BRANCH   1   2
ATOM      2  C   UNL     1       4.064   2.967  17.806  0.00  0.00    +0.000 C 
BRANCH   2   7
ATOM      3  C   UNL     1       6.890   5.886  16.687  0.00  0.00    +0.000 A 
ATOM      4  N   UNL     1       7.334   5.666  15.447  0.00  0.00    +0.000 NA
ATOM      5  S   UNL     1       6.548   4.299  14.903  0.00  0.00    +0.000 S 
ATOM      6  C   UNL     1       5.664   4.083  16.374  0.00  0.00    +0.000 A 
ATOM      7  N   UNL     1       4.793   3.069  16.560  0.00  0.00    +0.000 N 
ATOM      8  N   UNL     1       5.958   5.020  17.248  0.00  0.00    +0.000 NA
ATOM      9  H   UNL     1       4.569   2.437  15.803  0.00  0.00    +0.000 HD
BRANCH   3  11
ATOM     10  C   UNL     1       8.036   6.647  18.771  0.00  0.00    +0.000 C 
ATOM     11  C   UNL     1       7.374   7.061  17.465  0.00  0.00    +0.000 C 
ENDBRANCH   3  11
ENDBRANCH   2   7
ENDBRANCH   1   2
BRANCH   1  12
ATOM     12  C   UNL     1       1.628   3.269  18.352  0.00  0.00    +0.000 C 
BRANCH  12  13
ATOM     13  C   UNL     1       2.220   3.852  19.637  0.00  0.00    +0.000 C 
BRANCH  13  14
ATOM     14  C   UNL     1       2.085   5.354  19.675  0.00  0.00    +0.000 A 
ATOM     15  C   UNL     1       1.608   6.006  20.812  0.00  0.00    +0.000 A 
ATOM     16  C   UNL     1       1.532   7.391  20.794  0.00  0.00    +0.000 A 
ATOM     17  N   UNL     1       1.896   8.154  19.740  0.00  0.00    +0.000 NA
ATOM     18  C   UNL     1       2.358   7.517  18.653  0.00  0.00    +0.000 A 
ATOM     19  N   UNL     1       2.769   8.319  17.590  0.00  0.00    +0.000 N 
ATOM     20  C   UNL     1       2.477   6.134  18.582  0.00  0.00    +0.000 A 
ATOM     21  H   UNL     1       2.543   9.277  17.846  0.00  0.00    +0.000 HD
ATOM     22  H   UNL     1       2.325   8.043  16.723  0.00  0.00    +0.000 HD
ENDBRANCH  13  14
ENDBRANCH  12  13
ENDBRANCH   1  12
TORSDOF 6
ENDMDL
MODEL 7
REMARK VINA RESULT:      -6.5      0.954      1.717
REMARK  Name = 
REMARK  7 active torsions:
REMARK  status: ('A' for Active; 'I' for Inactive)
REMARK    1  A    between atoms: C_1  and  C_2
REMARK    2  A    between atoms: C_2  and  C_3
REMARK    3  A    between atoms: N_7  and  C_8
REMARK    4  A    between atoms: C_8  and  C_9
REMARK    5  A    between atoms: C_9  and  C_10
REMARK    6  A    between atoms: C_10  and  C_11
REMARK    7  A    between atoms: C_11  and  C_12
REMARK                            x       y       z     vdW  Elec       q    Type
REMARK                         _______ _______ _______ _____ _____    ______ ____
ROOT
ATOM      1  C   UNL     1       5.825   6.458  17.051  0.00  0.00    +0.000 C 
ENDROOT
BRANCH   1   2
ATOM      2  C   UNL     1       6.655   5.249  16.614  0.00  0.00    +0.000 C 
BRANCH   2   7
ATOM      3  C   UNL     1       6.234   3.771  12.689  0.00  0.00    +0.000 A 
ATOM      4  N   UNL     1       7.175   4.277  11.888  0.00  0.00    +0.000 NA
ATOM      5  S   UNL     1       8.103   5.291  12.835  0.00  0.00    +0.000 S 
ATOM      6  C   UNL     1       7.175   4.991  14.264  0.00  0.00    +0.000 A 
ATOM      7  N   UNL     1       7.456   5.569  15.451  0.00  0.00    +0.000 N 
ATOM      8  N   UNL     1       6.194   4.149  14.027  0.00  0.00    +0.000 NA
ATOM      9  H   UNL     1       8.280   6.145  15.562  0.00  0.00    +0.000 HD
BRANCH   3  11
ATOM     10  C   UNL     1       5.898   1.698  11.339  0.00  0.00    +0.000 C 
ATOM     11  C   UNL     1       5.241   2.794  12.164  0.00  0.00    +0.000 C 
ENDBRANCH   3  11
ENDBRANCH   2   7
ENDBRANCH   1   2
BRANCH   1  12
ATOM     12  C   UNL     1       4.479   6.002  17.623  0.00  0.00    +0.000 C 
BRANCH  12  13
ATOM     13  C   UNL     1       3.889   4.821  16.852  0.00  0.00    +0.000 C 
BRANCH  13  14
ATOM     14  C   UNL     1       3.202   3.846  17.776  0.00  0.00    +0.000 A 
ATOM     15  C   UNL     1       3.644   2.529  17.893  0.00  0.00    +0.000 A 
ATOM     16  C   UNL     1       2.987   1.690  18.779  0.00  0.00    +0.000 A 
ATOM     17  N   UNL     1       1.940   2.068  19.545  0.00  0.00    +0.000 NA
ATOM     18  C   UNL     1       1.526   3.339  19.430  0.00  0.00    +0.000 A 
ATOM     19  N   UNL     1       0.473   3.728  20.256  0.00  0.00    +0.000 N 
ATOM     20  C   UNL     1       2.127   4.254  18.573  0.00  0.00    +0.000 A 
ATOM     21  H   UNL     1       0.167   2.891  20.747  0.00  0.00    +0.000 HD
ATOM     22  H   UNL     1      -0.279   4.153  19.726  0.00  0.00    +0.000 HD
ENDBRANCH  13  14
ENDBRANCH  12  13
ENDBRANCH   1  12
TORSDOF 6
ENDMDL
MODEL 8
REMARK VINA RESULT:      -6.4      2.755      6.987
REMARK  Name = 
REMARK  7 active torsions:
REMARK  status: ('A' for Active; 'I' for Inactive)
REMARK    1  A    between atoms: C_1  and  C_2
REMARK    2  A    between atoms: C_2  and  C_3
REMARK    3  A    between atoms: N_7  and  C_8
REMARK    4  A    between atoms: C_8  and  C_9
REMARK    5  A    between atoms: C_9  and  C_10
REMARK    6  A    between atoms: C_10  and  C_11
REMARK    7  A    between atoms: C_11  and  C_12
REMARK                            x       y       z     vdW  Elec       q    Type
REMARK                         _______ _______ _______ _____ _____    ______ ____
ROOT
ATOM      1  C   UNL     1       7.108   5.714  17.851  0.00  0.00    +0.000 C 
ENDROOT
BRANCH   1   2
ATOM      2  C   UNL     1       6.384   5.318  19.140  0.00  0.00    +0.000 C 
BRANCH   2   7
ATOM      3  C   UNL     1       2.526   3.846  19.983  0.00  0.00    +0.000 A 
ATOM      4  N   UNL     1       2.480   2.520  19.830  0.00  0.00    +0.000 NA
ATOM      5  S   UNL     1       4.010   2.049  19.357  0.00  0.00    +0.000 S 
ATOM      6  C   UNL     1       4.637   3.660  19.382  0.00  0.00    +0.000 A 
ATOM      7  N   UNL     1       5.918   3.949  19.068  0.00  0.00    +0.000 N 
ATOM      8  N   UNL     1       3.713   4.526  19.737  0.00  0.00    +0.000 NA
ATOM      9  H   UNL     1       6.583   3.210  18.882  0.00  0.00    +0.000 HD
BRANCH   3  11
ATOM     10  C   UNL     1       1.621   6.067  20.677  0.00  0.00    +0.000 C 
ATOM     11  C   UNL     1       1.320   4.596  20.432  0.00  0.00    +0.000 C 
ENDBRANCH   3  11
ENDBRANCH   2   7
ENDBRANCH   1   2
BRANCH   1  12
ATOM     12  C   UNL     1       6.991   4.598  16.809  0.00  0.00    +0.000 C 
BRANCH  12  13
ATOM     13  C   UNL     1       5.854   4.846  15.815  0.00  0.00    +0.000 C 
BRANCH  13  14
ATOM     14  C   UNL     1       6.292   4.574  14.397  0.00  0.00    +0.000 A 
ATOM     15  C   UNL     1       7.375   5.248  13.835  0.00  0.00    +0.000 A 
ATOM     16  C   UNL     1       7.744   4.935  12.536  0.00  0.00    +0.000 A 
ATOM     17  N   UNL     1       7.120   4.009  11.775  0.00  0.00    +0.000 NA
ATOM     18  C   UNL     1       6.083   3.362  12.327  0.00  0.00    +0.000 A 
ATOM     19  N   UNL     1       5.475   2.380  11.546  0.00  0.00    +0.000 N 
ATOM     20  C   UNL     1       5.645   3.604  13.624  0.00  0.00    +0.000 A 
ATOM     21  H   UNL     1       5.923   2.419  10.634  0.00  0.00    +0.000 HD
ATOM     22  H   UNL     1       4.474   2.522  11.483  0.00  0.00    +0.000 HD
ENDBRANCH  13  14
ENDBRANCH  12  13
ENDBRANCH   1  12
TORSDOF 6
ENDMDL
MODEL 9
REMARK VINA RESULT:      -6.4      3.048      4.830
REMARK  Name = 
REMARK  7 active torsions:
REMARK  status: ('A' for Active; 'I' for Inactive)
REMARK    1  A    between atoms: C_1  and  C_2
REMARK    2  A    between atoms: C_2  and  C_3
REMARK    3  A    between atoms: N_7  and  C_8
REMARK    4  A    between atoms: C_8  and  C_9
REMARK    5  A    between atoms: C_9  and  C_10
REMARK    6  A    between atoms: C_10  and  C_11
REMARK    7  A    between atoms: C_11  and  C_12
REMARK                            x       y       z     vdW  Elec       q    Type
REMARK                         _______ _______ _______ _____ _____    ______ ____
ROOT
ATOM      1  C   UNL     1       3.549   2.352  19.556  0.00  0.00    +0.000 C 
ENDROOT
BRANCH   1   2
ATOM      2  C   UNL     1       4.742   3.278  19.311  0.00  0.00    +0.000 C 
BRANCH   2   7
ATOM      3  C   UNL     1       6.506   6.338  17.011  0.00  0.00    +0.000 A 
ATOM      4  N   UNL     1       6.729   5.923  15.761  0.00  0.00    +0.000 NA
ATOM      5  S   UNL     1       6.198   4.343  15.689  0.00  0.00    +0.000 S 
ATOM      6  C   UNL     1       5.707   4.313  17.347  0.00  0.00    +0.000 A 
ATOM      7  N   UNL     1       5.159   3.223  17.925  0.00  0.00    +0.000 N 
ATOM      8  N   UNL     1       5.940   5.466  17.934  0.00  0.00    +0.000 NA
ATOM      9  H   UNL     1       4.942   2.401  17.376  0.00  0.00    +0.000 HD
BRANCH   3  11
ATOM     10  C   UNL     1       8.174   7.806  18.149  0.00  0.00    +0.000 C 
ATOM     11  C   UNL     1       6.844   7.731  17.416  0.00  0.00    +0.000 C 
ENDBRANCH   3  11
ENDBRANCH   2   7
ENDBRANCH   1   2
BRANCH   1  12
ATOM     12  C   UNL     1       2.643   2.309  18.322  0.00  0.00    +0.000 C 
BRANCH  12  13
ATOM     13  C   UNL     1       1.366   3.130  18.510  0.00  0.00    +0.000 C 
BRANCH  13  14
ATOM     14  C   UNL     1       1.674   4.534  18.965  0.00  0.00    +0.000 A 
ATOM     15  C   UNL     1       1.396   4.947  20.267  0.00  0.00    +0.000 A 
ATOM     16  C   UNL     1       1.728   6.243  20.632  0.00  0.00    +0.000 A 
ATOM     17  N   UNL     1       2.309   7.138  19.803  0.00  0.00    +0.000 NA
ATOM     18  C   UNL     1       2.578   6.728  18.554  0.00  0.00    +0.000 A 
ATOM     19  N   UNL     1       3.217   7.646  17.722  0.00  0.00    +0.000 N 
ATOM     20  C   UNL     1       2.289   5.447  18.100  0.00  0.00    +0.000 A 
ATOM     21  H   UNL     1       3.276   8.517  18.245  0.00  0.00    +0.000 HD
ATOM     22  H   UNL     1       2.720   7.764  16.847  0.00  0.00    +0.000 HD
ENDBRANCH  13  14
ENDBRANCH  12  13
ENDBRANCH   1  12
TORSDOF 6
ENDMDL
