MODEL 1
REMARK VINA RESULT:      -9.2      0.000      0.000
REMARK  Name = 
REMARK  4 active torsions:
REMARK  status: ('A' for Active; 'I' for Inactive)
REMARK    1  A    between atoms: C_1  and  N_2
REMARK    2  A    between atoms: C_4  and  C_5
REMARK    3  A    between atoms: C_8  and  C_9
REMARK    4  A    between atoms: C_12  and  C_13
REMARK                            x       y       z     vdW  Elec       q    Type
REMARK                         _______ _______ _______ _____ _____    ______ ____
ROOT
ATOM      1  C   UNL     1       1.527   7.338  20.624  0.00  0.00    +0.000 A 
ATOM      2  N   UNL     1       2.606   7.109  19.908  0.00  0.00    +0.000 NA
ATOM      3  C   UNL     1       2.669   5.740  19.738  0.00  0.00    +0.000 A 
ATOM      4  C   UNL     1       3.660   4.949  19.121  0.00  0.00    +0.000 A 
ATOM      5  C   UNL     1       3.358   3.583  19.122  0.00  0.00    +0.000 A 
ATOM      6  N   UNL     1       2.247   3.003  19.650  0.00  0.00    +0.000 NA
ATOM      7  C   UNL     1       1.325   3.779  20.259  0.00  0.00    +0.000 A 
ATOM      8  C   UNL     1       1.548   5.143  20.308  0.00  0.00    +0.000 A 
ATOM      9  N   UNL     1       0.847   6.176  20.873  0.00  0.00    +0.000 N 
ATOM     10  H   UNL     1      -0.007   6.124  21.410  0.00  0.00    +0.000 HD
ENDROOT
BRANCH   1  14
ATOM     11  C   UNL     1      -1.298  10.706  19.058  0.00  0.00    +0.000 A 
ATOM     12  C   UNL     1      -0.529   9.575  19.306  0.00  0.00    +0.000 A 
ATOM     13  C   UNL     1       0.233   9.572  20.483  0.00  0.00    +0.000 A 
ATOM     14  C   UNL     1       1.109   8.670  21.141  0.00  0.00    +0.000 A 
ATOM     15  N   UNL     1       1.556   9.153  22.310  0.00  0.00    +0.000 NA
ATOM     16  N   UNL     1       1.001  10.380  22.371  0.00  0.00    +0.000 N 
ATOM     17  C   UNL     1       0.193  10.684  21.310  0.00  0.00    +0.000 A 
ATOM     18  C   UNL     1      -0.555  11.807  21.001  0.00  0.00    +0.000 A 
ATOM     19  N   UNL     1      -1.302  11.798  19.871  0.00  0.00    +0.000 NA
ATOM     20  H   UNL     1       1.210  10.962  23.175  0.00  0.00    +0.000 HD
BRANCH  11  24
ATOM     21  C   UNL     1      -3.193  10.042  14.518  0.00  0.00    +0.000 C 
ATOM     22  N   UNL     1      -3.000  10.448  15.888  0.00  0.00    +0.000 N 
ATOM     23  C   UNL     1      -1.964  10.112  16.707  0.00  0.00    +0.000 A 
ATOM     24  C   UNL     1      -2.187  10.757  17.907  0.00  0.00    +0.000 A 
ATOM     25  C   UNL     1      -3.400  11.454  17.692  0.00  0.00    +0.000 A 
ATOM     26  N   UNL     1      -3.901  11.262  16.469  0.00  0.00    +0.000 NA
ENDBRANCH  11  24
ENDBRANCH   1  14
BRANCH   4  27
ATOM     27  C   UNL     1       4.896   5.531  18.566  0.00  0.00    +0.000 A 
ATOM     28  C   UNL     1       4.890   6.272  17.364  0.00  0.00    +0.000 A 
ATOM     29  C   UNL     1       6.057   6.824  16.824  0.00  0.00    +0.000 A 
ATOM     30  C   UNL     1       7.265   6.667  17.490  0.00  0.00    +0.000 A 
ATOM     31  C   UNL     1       7.291   5.955  18.681  0.00  0.00    +0.000 A 
ATOM     32  F   UNL     1       8.453   5.807  19.332  0.00  0.00    +0.000 F 
ATOM     33  C   UNL     1       6.133   5.391  19.216  0.00  0.00    +0.000 A 
ENDBRANCH   4  27
TORSDOF 3
ENDMDL
MODEL 2
REMARK VINA RESULT:      -8.9      1.036      1.343
REMARK  Name = 
REMARK  4 active torsions:
REMARK  status: ('A' for Active; 'I' for Inactive)
REMARK    1  A    between atoms: C_1  and  N_2
REMARK    2  A    between atoms: C_4  and  C_5
REMARK    3  A    between atoms: C_8  and  C_9
REMARK    4  A    between atoms: C_12  and  C_13
REMARK                            x       y       z     vdW  Elec       q    Type
REMARK                         _______ _______ _______ _____ _____    ______ ____
ROOT
ATOM      1  C   UNL     1       1.469   7.328  20.652  0.00  0.00    +0.000 A 
ATOM      2  N   UNL     1       2.441   7.045  19.812  0.00  0.00    +0.000 NA
ATOM      3  C   UNL     1       2.501   5.667  19.745  0.00  0.00    +0.000 A 
ATOM      4  C   UNL     1       3.408   4.832  19.062  0.00  0.00    +0.000 A 
ATOM      5  C   UNL     1       3.129   3.470  19.214  0.00  0.00    +0.000 A 
ATOM      6  N   UNL     1       2.112   2.930  19.937  0.00  0.00    +0.000 NA
ATOM      7  C   UNL     1       1.272   3.750  20.604  0.00  0.00    +0.000 A 
ATOM      8  C   UNL     1       1.478   5.114  20.513  0.00  0.00    +0.000 A 
ATOM      9  N   UNL     1       0.847   6.188  21.086  0.00  0.00    +0.000 N 
ATOM     10  H   UNL     1       0.077   6.177  21.739  0.00  0.00    +0.000 HD
ENDROOT
BRANCH   1  14
ATOM     11  C   UNL     1      -1.271  10.717  18.983  0.00  0.00    +0.000 A 
ATOM     12  C   UNL     1      -0.536   9.572  19.269  0.00  0.00    +0.000 A 
ATOM     13  C   UNL     1       0.249   9.596  20.430  0.00  0.00    +0.000 A 
ATOM     14  C   UNL     1       1.107   8.696  21.113  0.00  0.00    +0.000 A 
ATOM     15  N   UNL     1       1.594   9.217  22.250  0.00  0.00    +0.000 NA
ATOM     16  N   UNL     1       1.081  10.463  22.264  0.00  0.00    +0.000 N 
ATOM     17  C   UNL     1       0.264  10.746  21.205  0.00  0.00    +0.000 A 
ATOM     18  C   UNL     1      -0.452  11.880  20.857  0.00  0.00    +0.000 A 
ATOM     19  N   UNL     1      -1.222  11.844  19.743  0.00  0.00    +0.000 NA
ATOM     20  H   UNL     1       1.326  11.074  23.036  0.00  0.00    +0.000 HD
BRANCH  11  24
ATOM     21  C   UNL     1      -3.229  10.001  14.477  0.00  0.00    +0.000 C 
ATOM     22  N   UNL     1      -3.021  10.415  15.842  0.00  0.00    +0.000 N 
ATOM     23  C   UNL     1      -1.964  10.103  16.644  0.00  0.00    +0.000 A 
ATOM     24  C   UNL     1      -2.181  10.745  17.847  0.00  0.00    +0.000 A 
ATOM     25  C   UNL     1      -3.412  11.415  17.652  0.00  0.00    +0.000 A 
ATOM     26  N   UNL     1      -3.930  11.210  16.438  0.00  0.00    +0.000 NA
ENDBRANCH  11  24
ENDBRANCH   1  14
BRANCH   4  27
ATOM     27  C   UNL     1       4.545   5.372  18.294  0.00  0.00    +0.000 A 
ATOM     28  C   UNL     1       5.851   5.404  18.830  0.00  0.00    +0.000 A 
ATOM     29  C   UNL     1       6.937   5.918  18.113  0.00  0.00    +0.000 A 
ATOM     30  C   UNL     1       6.748   6.396  16.824  0.00  0.00    +0.000 A 
ATOM     31  C   UNL     1       5.475   6.361  16.272  0.00  0.00    +0.000 A 
ATOM     32  F   UNL     1       5.287   6.814  15.025  0.00  0.00    +0.000 F 
ATOM     33  C   UNL     1       4.386   5.862  16.987  0.00  0.00    +0.000 A 
ENDBRANCH   4  27
TORSDOF 3
ENDMDL
MODEL 3
REMARK VINA RESULT:      -8.6      0.689      1.022
REMARK  Name = 
REMARK  4 active torsions:
REMARK  status: ('A' for Active; 'I' for Inactive)
REMARK    1  A    between atoms: C_1  and  N_2
REMARK    2  A    between atoms: C_4  and  C_5
REMARK    3  A    between atoms: C_8  and  C_9
REMARK    4  A    between atoms: C_12  and  C_13
REMARK                            x       y       z     vdW  Elec       q    Type
REMARK                         _______ _______ _______ _____ _____    ______ ____
ROOT
ATOM      1  C   UNL     1       1.658   7.014  20.513  0.00  0.00    +0.000 A 
ATOM      2  N   UNL     1       2.681   6.791  19.717  0.00  0.00    +0.000 NA
ATOM      3  C   UNL     1       2.679   5.434  19.460  0.00  0.00    +0.000 A 
ATOM      4  C   UNL     1       3.598   4.649  18.735  0.00  0.00    +0.000 A 
ATOM      5  C   UNL     1       3.243   3.298  18.673  0.00  0.00    +0.000 A 
ATOM      6  N   UNL     1       2.144   2.725  19.234  0.00  0.00    +0.000 NA
ATOM      7  C   UNL     1       1.292   3.495  19.945  0.00  0.00    +0.000 A 
ATOM      8  C   UNL     1       1.572   4.843  20.063  0.00  0.00    +0.000 A 
ATOM      9  N   UNL     1       0.948   5.864  20.734  0.00  0.00    +0.000 N 
ATOM     10  H   UNL     1       0.127   5.809  21.319  0.00  0.00    +0.000 HD
ENDROOT
BRANCH   1  14
ATOM     11  C   UNL     1      -1.107  10.581  19.327  0.00  0.00    +0.000 A 
ATOM     12  C   UNL     1      -0.373   9.408  19.459  0.00  0.00    +0.000 A 
ATOM     13  C   UNL     1       0.453   9.300  20.586  0.00  0.00    +0.000 A 
ATOM     14  C   UNL     1       1.325   8.325  21.135  0.00  0.00    +0.000 A 
ATOM     15  N   UNL     1       1.857   8.714  22.304  0.00  0.00    +0.000 NA
ATOM     16  N   UNL     1       1.358   9.955  22.473  0.00  0.00    +0.000 N 
ATOM     17  C   UNL     1       0.506  10.357  21.482  0.00  0.00    +0.000 A 
ATOM     18  C   UNL     1      -0.211  11.526  21.287  0.00  0.00    +0.000 A 
ATOM     19  N   UNL     1      -1.020  11.618  20.205  0.00  0.00    +0.000 NA
ATOM     20  H   UNL     1       1.636  10.475  23.298  0.00  0.00    +0.000 HD
BRANCH  11  24
ATOM     21  C   UNL     1      -5.093  11.921  16.687  0.00  0.00    +0.000 C 
ATOM     22  N   UNL     1      -3.834  11.345  17.092  0.00  0.00    +0.000 N 
ATOM     23  C   UNL     1      -3.211  11.495  18.295  0.00  0.00    +0.000 A 
ATOM     24  C   UNL     1      -2.056  10.740  18.236  0.00  0.00    +0.000 A 
ATOM     25  C   UNL     1      -2.090  10.179  16.937  0.00  0.00    +0.000 A 
ATOM     26  N   UNL     1      -3.164  10.551  16.236  0.00  0.00    +0.000 NA
ENDBRANCH  11  24
ENDBRANCH   1  14
BRANCH   4  27
ATOM     27  C   UNL     1       4.820   5.220  18.139  0.00  0.00    +0.000 A 
ATOM     28  C   UNL     1       4.877   5.587  16.777  0.00  0.00    +0.000 A 
ATOM     29  C   UNL     1       6.032   6.125  16.199  0.00  0.00    +0.000 A 
ATOM     30  C   UNL     1       7.161   6.331  16.979  0.00  0.00    +0.000 A 
ATOM     31  C   UNL     1       7.123   5.991  18.324  0.00  0.00    +0.000 A 
ATOM     32  F   UNL     1       8.207   6.195  19.085  0.00  0.00    +0.000 F 
ATOM     33  C   UNL     1       5.978   5.442  18.903  0.00  0.00    +0.000 A 
ENDBRANCH   4  27
TORSDOF 3
ENDMDL
MODEL 4
REMARK VINA RESULT:      -8.5      2.429      3.767
REMARK  Name = 
REMARK  4 active torsions:
REMARK  status: ('A' for Active; 'I' for Inactive)
REMARK    1  A    between atoms: C_1  and  N_2
REMARK    2  A    between atoms: C_4  and  C_5
REMARK    3  A    between atoms: C_8  and  C_9
REMARK    4  A    between atoms: C_12  and  C_13
REMARK                            x       y       z     vdW  Elec       q    Type
REMARK                         _______ _______ _______ _____ _____    ______ ____
ROOT
ATOM      1  C   UNL     1       1.757   8.794  19.347  0.00  0.00    +0.000 A 
ATOM      2  N   UNL     1       1.810   7.511  19.631  0.00  0.00    +0.000 NA
ATOM      3  C   UNL     1       2.679   6.951  18.715  0.00  0.00    +0.000 A 
ATOM      4  C   UNL     1       3.036   5.603  18.513  0.00  0.00    +0.000 A 
ATOM      5  C   UNL     1       3.976   5.426  17.493  0.00  0.00    +0.000 A 
ATOM      6  N   UNL     1       4.529   6.404  16.726  0.00  0.00    +0.000 NA
ATOM      7  C   UNL     1       4.151   7.686  16.922  0.00  0.00    +0.000 A 
ATOM      8  C   UNL     1       3.219   7.950  17.908  0.00  0.00    +0.000 A 
ATOM      9  N   UNL     1       2.609   9.106  18.321  0.00  0.00    +0.000 N 
ATOM     10  H   UNL     1       2.722  10.035  17.942  0.00  0.00    +0.000 HD
ENDROOT
BRANCH   1  14
ATOM     11  C   UNL     1      -2.129  11.049  18.085  0.00  0.00    +0.000 A 
ATOM     12  C   UNL     1      -0.990  10.265  18.223  0.00  0.00    +0.000 A 
ATOM     13  C   UNL     1      -0.286  10.376  19.430  0.00  0.00    +0.000 A 
ATOM     14  C   UNL     1       0.864   9.783  20.011  0.00  0.00    +0.000 A 
ATOM     15  N   UNL     1       1.093  10.223  21.258  0.00  0.00    +0.000 NA
ATOM     16  N   UNL     1       0.114  11.130  21.450  0.00  0.00    +0.000 N 
ATOM     17  C   UNL     1      -0.746  11.261  20.394  0.00  0.00    +0.000 A 
ATOM     18  C   UNL     1      -1.863  12.054  20.195  0.00  0.00    +0.000 A 
ATOM     19  N   UNL     1      -2.548  11.930  19.033  0.00  0.00    +0.000 NA
ATOM     20  H   UNL     1       0.085  11.625  22.335  0.00  0.00    +0.000 HD
BRANCH  11  24
ATOM     21  C   UNL     1      -3.723   9.954  13.512  0.00  0.00    +0.000 C 
ATOM     22  N   UNL     1      -3.646  10.434  14.869  0.00  0.00    +0.000 N 
ATOM     23  C   UNL     1      -2.607  10.280  15.738  0.00  0.00    +0.000 A 
ATOM     24  C   UNL     1      -2.969  10.929  16.902  0.00  0.00    +0.000 A 
ATOM     25  C   UNL     1      -4.258  11.437  16.614  0.00  0.00    +0.000 A 
ATOM     26  N   UNL     1      -4.676  11.131  15.383  0.00  0.00    +0.000 NA
ENDBRANCH  11  24
ENDBRANCH   1  14
BRANCH   4  27
ATOM     27  C   UNL     1       2.438   4.506  19.297  0.00  0.00    +0.000 A 
ATOM     28  C   UNL     1       2.639   4.397  20.690  0.00  0.00    +0.000 A 
ATOM     29  C   UNL     1       2.081   3.358  21.443  0.00  0.00    +0.000 A 
ATOM     30  C   UNL     1       1.283   2.408  20.821  0.00  0.00    +0.000 A 
ATOM     31  C   UNL     1       1.059   2.505  19.455  0.00  0.00    +0.000 A 
ATOM     32  F   UNL     1       0.284   1.595  18.849  0.00  0.00    +0.000 F 
ATOM     33  C   UNL     1       1.625   3.531  18.697  0.00  0.00    +0.000 A 
ENDBRANCH   4  27
TORSDOF 3
ENDMDL
MODEL 5
REMARK VINA RESULT:      -8.5      2.213      3.566
REMARK  Name = 
REMARK  4 active torsions:
REMARK  status: ('A' for Active; 'I' for Inactive)
REMARK    1  A    between atoms: C_1  and  N_2
REMARK    2  A    between atoms: C_4  and  C_5
REMARK    3  A    between atoms: C_8  and  C_9
REMARK    4  A    between atoms: C_12  and  C_13
REMARK                            x       y       z     vdW  Elec       q    Type
REMARK                         _______ _______ _______ _____ _____    ______ ____
ROOT
ATOM      1  C   UNL     1       1.870   8.600  19.274  0.00  0.00    +0.000 A 
ATOM      2  N   UNL     1       1.859   7.299  19.466  0.00  0.00    +0.000 NA
ATOM      3  C   UNL     1       2.732   6.767  18.538  0.00  0.00    +0.000 A 
ATOM      4  C   UNL     1       3.037   5.421  18.251  0.00  0.00    +0.000 A 
ATOM      5  C   UNL     1       4.002   5.275  17.248  0.00  0.00    +0.000 A 
ATOM      6  N   UNL     1       4.620   6.279  16.570  0.00  0.00    +0.000 NA
ATOM      7  C   UNL     1       4.291   7.559  16.846  0.00  0.00    +0.000 A 
ATOM      8  C   UNL     1       3.340   7.794  17.821  0.00  0.00    +0.000 A 
ATOM      9  N   UNL     1       2.768   8.945  18.299  0.00  0.00    +0.000 N 
ATOM     10  H   UNL     1       2.932   9.892  17.990  0.00  0.00    +0.000 HD
ENDROOT
BRANCH   1  14
ATOM     11  C   UNL     1      -2.007  10.938  18.140  0.00  0.00    +0.000 A 
ATOM     12  C   UNL     1      -0.875  10.137  18.237  0.00  0.00    +0.000 A 
ATOM     13  C   UNL     1      -0.152  10.203  19.437  0.00  0.00    +0.000 A 
ATOM     14  C   UNL     1       0.999   9.579  19.982  0.00  0.00    +0.000 A 
ATOM     15  N   UNL     1       1.252   9.978  21.238  0.00  0.00    +0.000 NA
ATOM     16  N   UNL     1       0.288  10.890  21.472  0.00  0.00    +0.000 N 
ATOM     17  C   UNL     1      -0.586  11.063  20.434  0.00  0.00    +0.000 A 
ATOM     18  C   UNL     1      -1.696  11.876  20.276  0.00  0.00    +0.000 A 
ATOM     19  N   UNL     1      -2.400  11.795  19.122  0.00  0.00    +0.000 NA
ATOM     20  H   UNL     1       0.279  11.359  22.372  0.00  0.00    +0.000 HD
BRANCH  11  24
ATOM     21  C   UNL     1      -3.697   9.965  13.575  0.00  0.00    +0.000 C 
ATOM     22  N   UNL     1      -3.585  10.422  14.938  0.00  0.00    +0.000 N 
ATOM     23  C   UNL     1      -2.541  10.220  15.790  0.00  0.00    +0.000 A 
ATOM     24  C   UNL     1      -2.865  10.865  16.968  0.00  0.00    +0.000 A 
ATOM     25  C   UNL     1      -4.139  11.421  16.705  0.00  0.00    +0.000 A 
ATOM     26  N   UNL     1      -4.584  11.147  15.475  0.00  0.00    +0.000 NA
ENDBRANCH  11  24
ENDBRANCH   1  14
BRANCH   4  27
ATOM     27  C   UNL     1       2.368   4.300  18.936  0.00  0.00    +0.000 A 
ATOM     28  C   UNL     1       1.475   3.444  18.256  0.00  0.00    +0.000 A 
ATOM     29  C   UNL     1       0.830   2.381  18.896  0.00  0.00    +0.000 A 
ATOM     30  C   UNL     1       1.080   2.131  20.239  0.00  0.00    +0.000 A 
ATOM     31  C   UNL     1       1.965   2.952  20.924  0.00  0.00    +0.000 A 
ATOM     32  F   UNL     1       2.216   2.712  22.218  0.00  0.00    +0.000 F 
ATOM     33  C   UNL     1       2.601   4.022  20.293  0.00  0.00    +0.000 A 
ENDBRANCH   4  27
TORSDOF 3
ENDMDL
MODEL 6
REMARK VINA RESULT:      -8.4      3.485      8.689
REMARK  Name = 
REMARK  4 active torsions:
REMARK  status: ('A' for Active; 'I' for Inactive)
REMARK    1  A    between atoms: C_1  and  N_2
REMARK    2  A    between atoms: C_4  and  C_5
REMARK    3  A    between atoms: C_8  and  C_9
REMARK    4  A    between atoms: C_12  and  C_13
REMARK                            x       y       z     vdW  Elec       q    Type
REMARK                         _______ _______ _______ _____ _____    ______ ____
ROOT
ATOM      1  C   UNL     1       1.130   9.580  19.586  0.00  0.00    +0.000 A 
ATOM      2  N   UNL     1      -0.002   9.935  19.020  0.00  0.00    +0.000 NA
ATOM      3  C   UNL     1       0.098  11.291  18.780  0.00  0.00    +0.000 A 
ATOM      4  C   UNL     1      -0.857  12.192  18.266  0.00  0.00    +0.000 A 
ATOM      5  C   UNL     1      -0.374  13.500  18.143  0.00  0.00    +0.000 A 
ATOM      6  N   UNL     1       0.873  13.933  18.469  0.00  0.00    +0.000 NA
ATOM      7  C   UNL     1       1.761  13.056  18.983  0.00  0.00    +0.000 A 
ATOM      8  C   UNL     1       1.364  11.742  19.145  0.00  0.00    +0.000 A 
ATOM      9  N   UNL     1       1.993  10.641  19.664  0.00  0.00    +0.000 N 
ATOM     10  H   UNL     1       2.918  10.589  20.068  0.00  0.00    +0.000 HD
ENDROOT
BRANCH   1  14
ATOM     11  C   UNL     1       3.592   5.941  18.012  0.00  0.00    +0.000 A 
ATOM     12  C   UNL     1       2.937   7.142  18.258  0.00  0.00    +0.000 A 
ATOM     13  C   UNL     1       2.208   7.234  19.452  0.00  0.00    +0.000 A 
ATOM     14  C   UNL     1       1.436   8.222  20.115  0.00  0.00    +0.000 A 
ATOM     15  N   UNL     1       0.973   7.800  21.301  0.00  0.00    +0.000 NA
ATOM     16  N   UNL     1       1.414   6.528  21.370  0.00  0.00    +0.000 N 
ATOM     17  C   UNL     1       2.164   6.135  20.296  0.00  0.00    +0.000 A 
ATOM     18  C   UNL     1       2.797   4.942  19.989  0.00  0.00    +0.000 A 
ATOM     19  N   UNL     1       3.514   4.865  18.842  0.00  0.00    +0.000 NA
ATOM     20  H   UNL     1       1.171   5.980  22.188  0.00  0.00    +0.000 HD
BRANCH  11  24
ATOM     21  C   UNL     1       6.286   3.941  14.352  0.00  0.00    +0.000 C 
ATOM     22  N   UNL     1       5.633   4.877  15.234  0.00  0.00    +0.000 N 
ATOM     23  C   UNL     1       4.798   4.585  16.270  0.00  0.00    +0.000 A 
ATOM     24  C   UNL     1       4.445   5.791  16.842  0.00  0.00    +0.000 A 
ATOM     25  C   UNL     1       5.131   6.747  16.057  0.00  0.00    +0.000 A 
ATOM     26  N   UNL     1       5.847   6.196  15.074  0.00  0.00    +0.000 NA
ENDBRANCH  11  24
ENDBRANCH   1  14
BRANCH   4  27
ATOM     27  C   UNL     1      -2.231  11.774  17.930  0.00  0.00    +0.000 A 
ATOM     28  C   UNL     1      -3.298  11.941  18.839  0.00  0.00    +0.000 A 
ATOM     29  C   UNL     1      -4.605  11.544  18.534  0.00  0.00    +0.000 A 
ATOM     30  C   UNL     1      -4.882  10.984  17.294  0.00  0.00    +0.000 A 
ATOM     31  C   UNL     1      -3.851  10.823  16.380  0.00  0.00    +0.000 A 
ATOM     32  F   UNL     1      -4.114  10.291  15.179  0.00  0.00    +0.000 F 
ATOM     33  C   UNL     1      -2.543  11.206  16.684  0.00  0.00    +0.000 A 
ENDBRANCH   4  27
TORSDOF 3
ENDMDL
MODEL 7
REMARK VINA RESULT:      -8.4      1.002      1.163
REMARK  Name = 
REMARK  4 active torsions:
REMARK  status: ('A' for Active; 'I' for Inactive)
REMARK    1  A    between atoms: C_1  and  N_2
REMARK    2  A    between atoms: C_4  and  C_5
REMARK    3  A    between atoms: C_8  and  C_9
REMARK    4  A    between atoms: C_12  and  C_13
REMARK                            x       y       z     vdW  Elec       q    Type
REMARK                         _______ _______ _______ _____ _____    ______ ____
ROOT
ATOM      1  C   UNL     1       1.562   6.924  20.430  0.00  0.00    +0.000 A 
ATOM      2  N   UNL     1       2.396   6.638  19.454  0.00  0.00    +0.000 NA
ATOM      3  C   UNL     1       2.412   5.261  19.354  0.00  0.00    +0.000 A 
ATOM      4  C   UNL     1       3.192   4.423  18.532  0.00  0.00    +0.000 A 
ATOM      5  C   UNL     1       2.906   3.063  18.699  0.00  0.00    +0.000 A 
ATOM      6  N   UNL     1       1.990   2.530  19.550  0.00  0.00    +0.000 NA
ATOM      7  C   UNL     1       1.274   3.353  20.346  0.00  0.00    +0.000 A 
ATOM      8  C   UNL     1       1.498   4.714  20.251  0.00  0.00    +0.000 A 
ATOM      9  N   UNL     1       0.982   5.788  20.928  0.00  0.00    +0.000 N 
ATOM     10  H   UNL     1       0.313   5.779  21.685  0.00  0.00    +0.000 HD
ENDROOT
BRANCH   1  14
ATOM     11  C   UNL     1      -1.030  10.541  19.021  0.00  0.00    +0.000 A 
ATOM     12  C   UNL     1      -0.355   9.343  19.228  0.00  0.00    +0.000 A 
ATOM     13  C   UNL     1       0.474   9.268  20.355  0.00  0.00    +0.000 A 
ATOM     14  C   UNL     1       1.302   8.289  20.963  0.00  0.00    +0.000 A 
ATOM     15  N   UNL     1       1.864   8.729  22.100  0.00  0.00    +0.000 NA
ATOM     16  N   UNL     1       1.430  10.001  22.188  0.00  0.00    +0.000 N 
ATOM     17  C   UNL     1       0.590  10.380  21.176  0.00  0.00    +0.000 A 
ATOM     18  C   UNL     1      -0.069  11.568  20.908  0.00  0.00    +0.000 A 
ATOM     19  N   UNL     1      -0.882  11.628  19.826  0.00  0.00    +0.000 NA
ATOM     20  H   UNL     1       1.741  10.562  22.974  0.00  0.00    +0.000 HD
BRANCH  11  24
ATOM     21  C   UNL     1      -3.252  10.062  14.607  0.00  0.00    +0.000 C 
ATOM     22  N   UNL     1      -2.939  10.445  15.962  0.00  0.00    +0.000 N 
ATOM     23  C   UNL     1      -1.889  10.016  16.716  0.00  0.00    +0.000 A 
ATOM     24  C   UNL     1      -1.980  10.674  17.927  0.00  0.00    +0.000 A 
ATOM     25  C   UNL     1      -3.137  11.477  17.785  0.00  0.00    +0.000 A 
ATOM     26  N   UNL     1      -3.727  11.334  16.596  0.00  0.00    +0.000 NA
ENDBRANCH  11  24
ENDBRANCH   1  14
BRANCH   4  27
ATOM     27  C   UNL     1       4.220   4.955  17.618  0.00  0.00    +0.000 A 
ATOM     28  C   UNL     1       4.495   4.341  16.377  0.00  0.00    +0.000 A 
ATOM     29  C   UNL     1       5.472   4.833  15.504  0.00  0.00    +0.000 A 
ATOM     30  C   UNL     1       6.188   5.973  15.844  0.00  0.00    +0.000 A 
ATOM     31  C   UNL     1       5.924   6.600  17.053  0.00  0.00    +0.000 A 
ATOM     32  F   UNL     1       6.607   7.705  17.384  0.00  0.00    +0.000 F 
ATOM     33  C   UNL     1       4.960   6.106  17.933  0.00  0.00    +0.000 A 
ENDBRANCH   4  27
TORSDOF 3
ENDMDL
MODEL 8
REMARK VINA RESULT:      -8.4      1.465      1.553
REMARK  Name = 
REMARK  4 active torsions:
REMARK  status: ('A' for Active; 'I' for Inactive)
REMARK    1  A    between atoms: C_1  and  N_2
REMARK    2  A    between atoms: C_4  and  C_5
REMARK    3  A    between atoms: C_8  and  C_9
REMARK    4  A    between atoms: C_12  and  C_13
REMARK                            x       y       z     vdW  Elec       q    Type
REMARK                         _______ _______ _______ _____ _____    ______ ____
ROOT
ATOM      1  C   UNL     1       1.496   7.093  20.482  0.00  0.00    +0.000 A 
ATOM      2  N   UNL     1       2.219   6.757  19.435  0.00  0.00    +0.000 NA
ATOM      3  C   UNL     1       2.273   5.377  19.434  0.00  0.00    +0.000 A 
ATOM      4  C   UNL     1       2.980   4.500  18.586  0.00  0.00    +0.000 A 
ATOM      5  C   UNL     1       2.765   3.150  18.884  0.00  0.00    +0.000 A 
ATOM      6  N   UNL     1       1.977   2.658  19.876  0.00  0.00    +0.000 NA
ATOM      7  C   UNL     1       1.331   3.519  20.691  0.00  0.00    +0.000 A 
ATOM      8  C   UNL     1       1.492   4.874  20.471  0.00  0.00    +0.000 A 
ATOM      9  N   UNL     1       1.021   5.982  21.127  0.00  0.00    +0.000 N 
ATOM     10  H   UNL     1       0.447   6.012  21.957  0.00  0.00    +0.000 HD
ENDROOT
BRANCH   1  14
ATOM     11  C   UNL     1      -1.110  10.637  18.924  0.00  0.00    +0.000 A 
ATOM     12  C   UNL     1      -0.436   9.449  19.184  0.00  0.00    +0.000 A 
ATOM     13  C   UNL     1       0.416   9.434  20.297  0.00  0.00    +0.000 A 
ATOM     14  C   UNL     1       1.252   8.487  20.943  0.00  0.00    +0.000 A 
ATOM     15  N   UNL     1       1.838   8.986  22.042  0.00  0.00    +0.000 NA
ATOM     16  N   UNL     1       1.410  10.264  22.067  0.00  0.00    +0.000 N 
ATOM     17  C   UNL     1       0.552  10.589  21.053  0.00  0.00    +0.000 A 
ATOM     18  C   UNL     1      -0.107  11.764  20.731  0.00  0.00    +0.000 A 
ATOM     19  N   UNL     1      -0.942  11.767  19.664  0.00  0.00    +0.000 NA
ATOM     20  H   UNL     1       1.740  10.866  22.814  0.00  0.00    +0.000 HD
BRANCH  11  24
ATOM     21  C   UNL     1      -3.334  10.076  14.521  0.00  0.00    +0.000 C 
ATOM     22  N   UNL     1      -3.040  10.451  15.882  0.00  0.00    +0.000 N 
ATOM     23  C   UNL     1      -1.947  10.097  16.615  0.00  0.00    +0.000 A 
ATOM     24  C   UNL     1      -2.081  10.713  17.843  0.00  0.00    +0.000 A 
ATOM     25  C   UNL     1      -3.306  11.414  17.734  0.00  0.00    +0.000 A 
ATOM     26  N   UNL     1      -3.896  11.250  16.547  0.00  0.00    +0.000 NA
ENDBRANCH  11  24
ENDBRANCH   1  14
BRANCH   4  27
ATOM     27  C   UNL     1       3.873   4.989  17.519  0.00  0.00    +0.000 A 
ATOM     28  C   UNL     1       4.182   6.360  17.383  0.00  0.00    +0.000 A 
ATOM     29  C   UNL     1       5.024   6.836  16.372  0.00  0.00    +0.000 A 
ATOM     30  C   UNL     1       5.599   5.944  15.477  0.00  0.00    +0.000 A 
ATOM     31  C   UNL     1       5.320   4.590  15.601  0.00  0.00    +0.000 A 
ATOM     32  F   UNL     1       5.877   3.723  14.745  0.00  0.00    +0.000 F 
ATOM     33  C   UNL     1       4.470   4.111  16.600  0.00  0.00    +0.000 A 
ENDBRANCH   4  27
TORSDOF 3
ENDMDL
MODEL 9
REMARK VINA RESULT:      -8.3      1.202      1.638
REMARK  Name = 
REMARK  4 active torsions:
REMARK  status: ('A' for Active; 'I' for Inactive)
REMARK    1  A    between atoms: C_1  and  N_2
REMARK    2  A    between atoms: C_4  and  C_5
REMARK    3  A    between atoms: C_8  and  C_9
REMARK    4  A    between atoms: C_12  and  C_13
REMARK                            x       y       z     vdW  Elec       q    Type
REMARK                         _______ _______ _______ _____ _____    ______ ____
ROOT
ATOM      1  C   UNL     1       1.637   6.957  20.547  0.00  0.00    +0.000 A 
ATOM      2  N   UNL     1       2.618   6.689  19.713  0.00  0.00    +0.000 NA
ATOM      3  C   UNL     1       2.594   5.322  19.517  0.00  0.00    +0.000 A 
ATOM      4  C   UNL     1       3.470   4.497  18.784  0.00  0.00    +0.000 A 
ATOM      5  C   UNL     1       3.102   3.148  18.799  0.00  0.00    +0.000 A 
ATOM      6  N   UNL     1       2.028   2.611  19.437  0.00  0.00    +0.000 NA
ATOM      7  C   UNL     1       1.218   3.419  20.155  0.00  0.00    +0.000 A 
ATOM      8  C   UNL     1       1.513   4.769  20.199  0.00  0.00    +0.000 A 
ATOM      9  N   UNL     1       0.931   5.824  20.853  0.00  0.00    +0.000 N 
ATOM     10  H   UNL     1       0.139   5.803  21.479  0.00  0.00    +0.000 HD
ENDROOT
BRANCH   1  14
ATOM     11  C   UNL     1      -1.051  10.550  19.266  0.00  0.00    +0.000 A 
ATOM     12  C   UNL     1      -0.345   9.363  19.431  0.00  0.00    +0.000 A 
ATOM     13  C   UNL     1       0.491   9.274  20.552  0.00  0.00    +0.000 A 
ATOM     14  C   UNL     1       1.345   8.297  21.126  0.00  0.00    +0.000 A 
ATOM     15  N   UNL     1       1.901   8.713  22.274  0.00  0.00    +0.000 NA
ATOM     16  N   UNL     1       1.435   9.971  22.404  0.00  0.00    +0.000 N 
ATOM     17  C   UNL     1       0.582  10.360  21.409  0.00  0.00    +0.000 A 
ATOM     18  C   UNL     1      -0.108  11.540  21.181  0.00  0.00    +0.000 A 
ATOM     19  N   UNL     1      -0.927  11.614  20.105  0.00  0.00    +0.000 NA
ATOM     20  H   UNL     1       1.736  10.514  23.207  0.00  0.00    +0.000 HD
BRANCH  11  24
ATOM     21  C   UNL     1      -5.038  11.888  16.627  0.00  0.00    +0.000 C 
ATOM     22  N   UNL     1      -3.787  11.300  17.037  0.00  0.00    +0.000 N 
ATOM     23  C   UNL     1      -3.148  11.474  18.228  0.00  0.00    +0.000 A 
ATOM     24  C   UNL     1      -2.009  10.694  18.180  0.00  0.00    +0.000 A 
ATOM     25  C   UNL     1      -2.068  10.094  16.899  0.00  0.00    +0.000 A 
ATOM     26  N   UNL     1      -3.143  10.467  16.199  0.00  0.00    +0.000 NA
ENDBRANCH  11  24
ENDBRANCH   1  14
BRANCH   4  27
ATOM     27  C   UNL     1       4.666   5.030  18.105  0.00  0.00    +0.000 A 
ATOM     28  C   UNL     1       5.840   5.355  18.818  0.00  0.00    +0.000 A 
ATOM     29  C   UNL     1       6.978   5.865  18.185  0.00  0.00    +0.000 A 
ATOM     30  C   UNL     1       6.979   6.045  16.809  0.00  0.00    +0.000 A 
ATOM     31  C   UNL     1       5.841   5.718  16.085  0.00  0.00    +0.000 A 
ATOM     32  F   UNL     1       5.838   5.882  14.755  0.00  0.00    +0.000 F 
ATOM     33  C   UNL     1       4.698   5.221  16.713  0.00  0.00    +0.000 A 
ENDBRANCH   4  27
TORSDOF 3
ENDMDL
