MODEL 1
REMARK VINA RESULT:      -6.6      0.000      0.000
REMARK  Name = 
REMARK  6 active torsions:
REMARK  status: ('A' for Active; 'I' for Inactive)
REMARK    1  A    between atoms: N_1  and  O_2
REMARK    2  A    between atoms: O_2  and  C_3
REMARK    3  A    between atoms: C_3  and  C_4
REMARK    4  A    between atoms: C_3  and  C_13
REMARK    5  A    between atoms: C_4  and  C_5
REMARK    6  A    between atoms: C_5  and  C_6
REMARK                            x       y       z     vdW  Elec       q    Type
REMARK                         _______ _______ _______ _____ _____    ______ ____
ROOT
ATOM      1  C   UNL     1       2.274   5.761  19.114  0.00  0.00    +0.000 C 
ENDROOT
BRANCH   1   2
ATOM      2  C   UNL     1       2.703   4.326  18.851  0.00  0.00    +0.000 A 
ATOM      3  C   UNL     1       3.631   3.696  19.695  0.00  0.00    +0.000 A 
ATOM      4  C   UNL     1       4.029   2.380  19.452  0.00  0.00    +0.000 A 
ATOM      5  C   UNL     1       3.510   1.678  18.366  0.00  0.00    +0.000 A 
ATOM      6  C   UNL     1       2.590   2.291  17.518  0.00  0.00    +0.000 A 
ATOM      7  C   UNL     1       2.191   3.607  17.758  0.00  0.00    +0.000 A 
ENDBRANCH   1   2
BRANCH   1   8
ATOM      8  O   UNL     1       1.750   5.781  20.463  0.00  0.00    +0.000 OA
BRANCH   8   9
ATOM      9  N   UNL     1       1.731   7.145  20.986  0.00  0.00    +0.000 NA
ATOM     10  H   UNL     1       2.557   7.529  20.521  0.00  0.00    +0.000 HD
ATOM     11  H   UNL     1       2.016   6.995  21.956  0.00  0.00    +0.000 HD
ENDBRANCH   8   9
ENDBRANCH   1   8
BRANCH   1  12
ATOM     12  C   UNL     1       3.426   6.765  18.944  0.00  0.00    +0.000 C 
BRANCH  12  13
ATOM     13  C   UNL     1       3.859   6.942  17.489  0.00  0.00    +0.000 C 
BRANCH  13  14
ATOM     14  C   UNL     1       5.029   6.041  17.169  0.00  0.00    +0.000 A 
ATOM     15  C   UNL     1       6.085   5.902  18.082  0.00  0.00    +0.000 A 
ATOM     16  C   UNL     1       7.197   5.121  17.763  0.00  0.00    +0.000 A 
ATOM     17  C   UNL     1       7.267   4.474  16.531  0.00  0.00    +0.000 A 
ATOM     18  C   UNL     1       6.218   4.609  15.620  0.00  0.00    +0.000 A 
ATOM     19 CL   UNL     1       6.311   3.822  14.092  0.00  0.00    +0.000 Cl
ATOM     20  C   UNL     1       5.105   5.389  15.932  0.00  0.00    +0.000 A 
ENDBRANCH  13  14
ENDBRANCH  12  13
ENDBRANCH   1  12
TORSDOF 6
ENDMDL
MODEL 2
REMARK VINA RESULT:      -6.6      3.462      5.697
REMARK  Name = 
REMARK  6 active torsions:
REMARK  status: ('A' for Active; 'I' for Inactive)
REMARK    1  A    between atoms: N_1  and  O_2
REMARK    2  A    between atoms: O_2  and  C_3
REMARK    3  A    between atoms: C_3  and  C_4
REMARK    4  A    between atoms: C_3  and  C_13
REMARK    5  A    between atoms: C_4  and  C_5
REMARK    6  A    between atoms: C_5  and  C_6
REMARK                            x       y       z     vdW  Elec       q    Type
REMARK                         _______ _______ _______ _____ _____    ______ ____
ROOT
ATOM      1  C   UNL     1       6.195   5.008  15.980  0.00  0.00    +0.000 C 
ENDROOT
BRANCH   1   2
ATOM      2  C   UNL     1       6.473   4.668  14.525  0.00  0.00    +0.000 A 
ATOM      3  C   UNL     1       7.520   5.298  13.834  0.00  0.00    +0.000 A 
ATOM      4  C   UNL     1       7.773   4.989  12.496  0.00  0.00    +0.000 A 
ATOM      5  C   UNL     1       6.986   4.051  11.831  0.00  0.00    +0.000 A 
ATOM      6  C   UNL     1       5.942   3.419  12.503  0.00  0.00    +0.000 A 
ATOM      7  C   UNL     1       5.686   3.726  13.839  0.00  0.00    +0.000 A 
ENDBRANCH   1   2
BRANCH   1   8
ATOM      8  O   UNL     1       7.476   5.343  16.564  0.00  0.00    +0.000 OA
BRANCH   8   9
ATOM      9  N   UNL     1       7.992   4.223  17.348  0.00  0.00    +0.000 NA
ATOM     10  H   UNL     1       7.165   3.995  17.904  0.00  0.00    +0.000 HD
ATOM     11  H   UNL     1       8.625   4.701  17.993  0.00  0.00    +0.000 HD
ENDBRANCH   8   9
ENDBRANCH   1   8
BRANCH   1  12
ATOM     12  C   UNL     1       5.188   6.159  16.138  0.00  0.00    +0.000 C 
BRANCH  12  13
ATOM     13  C   UNL     1       4.715   6.350  17.579  0.00  0.00    +0.000 C 
BRANCH  13  14
ATOM     14  C   UNL     1       3.949   5.137  18.053  0.00  0.00    +0.000 A 
ATOM     15  C   UNL     1       2.601   4.972  17.704  0.00  0.00    +0.000 A 
ATOM     16  C   UNL     1       1.872   3.885  18.192  0.00  0.00    +0.000 A 
ATOM     17  C   UNL     1       2.480   2.957  19.034  0.00  0.00    +0.000 A 
ATOM     18  C   UNL     1       3.822   3.118  19.384  0.00  0.00    +0.000 A 
ATOM     19 CL   UNL     1       4.571   1.980  20.436  0.00  0.00    +0.000 Cl
ATOM     20  C   UNL     1       4.556   4.202  18.900  0.00  0.00    +0.000 A 
ENDBRANCH  13  14
ENDBRANCH  12  13
ENDBRANCH   1  12
TORSDOF 6
ENDMDL
MODEL 3
REMARK VINA RESULT:      -6.6      0.058      1.139
REMARK  Name = 
REMARK  6 active torsions:
REMARK  status: ('A' for Active; 'I' for Inactive)
REMARK    1  A    between atoms: N_1  and  O_2
REMARK    2  A    between atoms: O_2  and  C_3
REMARK    3  A    between atoms: C_3  and  C_4
REMARK    4  A    between atoms: C_3  and  C_13
REMARK    5  A    between atoms: C_4  and  C_5
REMARK    6  A    between atoms: C_5  and  C_6
REMARK                            x       y       z     vdW  Elec       q    Type
REMARK                         _______ _______ _______ _____ _____    ______ ____
ROOT
ATOM      1  C   UNL     1       2.293   5.822  19.095  0.00  0.00    +0.000 C 
ENDROOT
BRANCH   1   2
ATOM      2  C   UNL     1       2.706   4.381  18.840  0.00  0.00    +0.000 A 
ATOM      3  C   UNL     1       2.147   3.659  17.774  0.00  0.00    +0.000 A 
ATOM      4  C   UNL     1       2.523   2.334  17.542  0.00  0.00    +0.000 A 
ATOM      5  C   UNL     1       3.458   1.714  18.367  0.00  0.00    +0.000 A 
ATOM      6  C   UNL     1       4.021   2.418  19.430  0.00  0.00    +0.000 A 
ATOM      7  C   UNL     1       3.646   3.741  19.666  0.00  0.00    +0.000 A 
ENDBRANCH   1   2
BRANCH   1   8
ATOM      8  O   UNL     1       1.778   5.856  20.447  0.00  0.00    +0.000 OA
BRANCH   8   9
ATOM      9  N   UNL     1       1.757   7.226  20.953  0.00  0.00    +0.000 NA
ATOM     10  H   UNL     1       2.501   7.640  20.387  0.00  0.00    +0.000 HD
ATOM     11  H   UNL     1       2.164   7.106  21.883  0.00  0.00    +0.000 HD
ENDBRANCH   8   9
ENDBRANCH   1   8
BRANCH   1  12
ATOM     12  C   UNL     1       3.454   6.813  18.911  0.00  0.00    +0.000 C 
BRANCH  12  13
ATOM     13  C   UNL     1       3.880   6.975  17.452  0.00  0.00    +0.000 C 
BRANCH  13  14
ATOM     14  C   UNL     1       5.043   6.064  17.134  0.00  0.00    +0.000 A 
ATOM     15  C   UNL     1       6.099   5.922  18.044  0.00  0.00    +0.000 A 
ATOM     16  C   UNL     1       7.205   5.131  17.726  0.00  0.00    +0.000 A 
ATOM     17  C   UNL     1       7.268   4.478  16.497  0.00  0.00    +0.000 A 
ATOM     18  C   UNL     1       6.217   4.616  15.588  0.00  0.00    +0.000 A 
ATOM     19 CL   UNL     1       6.300   3.821  14.064  0.00  0.00    +0.000 Cl
ATOM     20  C   UNL     1       5.110   5.406  15.900  0.00  0.00    +0.000 A 
ENDBRANCH  13  14
ENDBRANCH  12  13
ENDBRANCH   1  12
TORSDOF 6
ENDMDL
MODEL 4
REMARK VINA RESULT:      -6.5      3.615      5.842
REMARK  Name = 
REMARK  6 active torsions:
REMARK  status: ('A' for Active; 'I' for Inactive)
REMARK    1  A    between atoms: N_1  and  O_2
REMARK    2  A    between atoms: O_2  and  C_3
REMARK    3  A    between atoms: C_3  and  C_4
REMARK    4  A    between atoms: C_3  and  C_13
REMARK    5  A    between atoms: C_4  and  C_5
REMARK    6  A    between atoms: C_5  and  C_6
REMARK                            x       y       z     vdW  Elec       q    Type
REMARK                         _______ _______ _______ _____ _____    ______ ____
ROOT
ATOM      1  C   UNL     1       5.046   5.073  16.275  0.00  0.00    +0.000 C 
ENDROOT
BRANCH   1   2
ATOM      2  C   UNL     1       6.126   5.716  17.130  0.00  0.00    +0.000 A 
ATOM      3  C   UNL     1       6.607   6.998  16.823  0.00  0.00    +0.000 A 
ATOM      4  C   UNL     1       7.602   7.588  17.605  0.00  0.00    +0.000 A 
ATOM      5  C   UNL     1       8.131   6.907  18.700  0.00  0.00    +0.000 A 
ATOM      6  C   UNL     1       7.665   5.632  19.015  0.00  0.00    +0.000 A 
ATOM      7  C   UNL     1       6.672   5.040  18.234  0.00  0.00    +0.000 A 
ENDBRANCH   1   2
BRANCH   1   8
ATOM      8  O   UNL     1       5.627   4.898  14.961  0.00  0.00    +0.000 OA
BRANCH   8   9
ATOM      9  N   UNL     1       6.227   3.571  14.838  0.00  0.00    +0.000 NA
ATOM     10  H   UNL     1       5.395   2.986  14.946  0.00  0.00    +0.000 HD
ATOM     11  H   UNL     1       6.728   3.491  15.725  0.00  0.00    +0.000 HD
ENDBRANCH   8   9
ENDBRANCH   1   8
BRANCH   1  12
ATOM     12  C   UNL     1       4.551   3.736  16.852  0.00  0.00    +0.000 C 
BRANCH  12  13
ATOM     13  C   UNL     1       3.028   3.660  16.969  0.00  0.00    +0.000 C 
BRANCH  13  14
ATOM     14  C   UNL     1       2.574   4.155  18.323  0.00  0.00    +0.000 A 
ATOM     15  C   UNL     1       2.589   5.526  18.615  0.00  0.00    +0.000 A 
ATOM     16  C   UNL     1       2.230   5.982  19.885  0.00  0.00    +0.000 A 
ATOM     17  C   UNL     1       1.858   5.075  20.875  0.00  0.00    +0.000 A 
ATOM     18  C   UNL     1       1.842   3.709  20.587  0.00  0.00    +0.000 A 
ATOM     19 CL   UNL     1       1.396   2.586  21.813  0.00  0.00    +0.000 Cl
ATOM     20  C   UNL     1       2.199   3.247  19.320  0.00  0.00    +0.000 A 
ENDBRANCH  13  14
ENDBRANCH  12  13
ENDBRANCH   1  12
TORSDOF 6
ENDMDL
MODEL 5
REMARK VINA RESULT:      -6.5      3.446      5.762
REMARK  Name = 
REMARK  6 active torsions:
REMARK  status: ('A' for Active; 'I' for Inactive)
REMARK    1  A    between atoms: N_1  and  O_2
REMARK    2  A    between atoms: O_2  and  C_3
REMARK    3  A    between atoms: C_3  and  C_4
REMARK    4  A    between atoms: C_3  and  C_13
REMARK    5  A    between atoms: C_4  and  C_5
REMARK    6  A    between atoms: C_5  and  C_6
REMARK                            x       y       z     vdW  Elec       q    Type
REMARK                         _______ _______ _______ _____ _____    ______ ____
ROOT
ATOM      1  C   UNL     1       6.197   4.934  15.985  0.00  0.00    +0.000 C 
ENDROOT
BRANCH   1   2
ATOM      2  C   UNL     1       6.479   4.636  14.521  0.00  0.00    +0.000 A 
ATOM      3  C   UNL     1       5.697   3.704  13.822  0.00  0.00    +0.000 A 
ATOM      4  C   UNL     1       5.957   3.425  12.479  0.00  0.00    +0.000 A 
ATOM      5  C   UNL     1       7.000   4.072  11.818  0.00  0.00    +0.000 A 
ATOM      6  C   UNL     1       7.786   4.999  12.499  0.00  0.00    +0.000 A 
ATOM      7  C   UNL     1       7.529   5.277  13.842  0.00  0.00    +0.000 A 
ENDBRANCH   1   2
BRANCH   1   8
ATOM      8  O   UNL     1       7.469   5.300  16.571  0.00  0.00    +0.000 OA
BRANCH   8   9
ATOM      9  N   UNL     1       7.855   4.339  17.601  0.00  0.00    +0.000 NA
ATOM     10  H   UNL     1       7.744   3.464  17.083  0.00  0.00    +0.000 HD
ATOM     11  H   UNL     1       7.052   4.382  18.230  0.00  0.00    +0.000 HD
ENDBRANCH   8   9
ENDBRANCH   1   8
BRANCH   1  12
ATOM     12  C   UNL     1       5.152   6.047  16.173  0.00  0.00    +0.000 C 
BRANCH  12  13
ATOM     13  C   UNL     1       4.702   6.210  17.625  0.00  0.00    +0.000 C 
BRANCH  13  14
ATOM     14  C   UNL     1       3.952   4.983  18.090  0.00  0.00    +0.000 A 
ATOM     15  C   UNL     1       2.635   4.758  17.669  0.00  0.00    +0.000 A 
ATOM     16  C   UNL     1       1.917   3.659  18.146  0.00  0.00    +0.000 A 
ATOM     17  C   UNL     1       2.507   2.778  19.051  0.00  0.00    +0.000 A 
ATOM     18  C   UNL     1       3.820   2.999  19.472  0.00  0.00    +0.000 A 
ATOM     19 CL   UNL     1       4.545   1.919  20.599  0.00  0.00    +0.000 Cl
ATOM     20  C   UNL     1       4.541   4.095  18.998  0.00  0.00    +0.000 A 
ENDBRANCH  13  14
ENDBRANCH  12  13
ENDBRANCH   1  12
TORSDOF 6
ENDMDL
MODEL 6
REMARK VINA RESULT:      -6.5      3.471      5.899
REMARK  Name = 
REMARK  6 active torsions:
REMARK  status: ('A' for Active; 'I' for Inactive)
REMARK    1  A    between atoms: N_1  and  O_2
REMARK    2  A    between atoms: O_2  and  C_3
REMARK    3  A    between atoms: C_3  and  C_4
REMARK    4  A    between atoms: C_3  and  C_13
REMARK    5  A    between atoms: C_4  and  C_5
REMARK    6  A    between atoms: C_5  and  C_6
REMARK                            x       y       z     vdW  Elec       q    Type
REMARK                         _______ _______ _______ _____ _____    ______ ____
ROOT
ATOM      1  C   UNL     1       6.121   4.079  16.020  0.00  0.00    +0.000 C 
ENDROOT
BRANCH   1   2
ATOM      2  C   UNL     1       6.490   4.203  14.550  0.00  0.00    +0.000 A 
ATOM      3  C   UNL     1       7.488   5.100  14.140  0.00  0.00    +0.000 A 
ATOM      4  C   UNL     1       7.824   5.218  12.790  0.00  0.00    +0.000 A 
ATOM      5  C   UNL     1       7.169   4.445  11.833  0.00  0.00    +0.000 A 
ATOM      6  C   UNL     1       6.175   3.551  12.225  0.00  0.00    +0.000 A 
ATOM      7  C   UNL     1       5.836   3.432  13.573  0.00  0.00    +0.000 A 
ENDBRANCH   1   2
BRANCH   1   8
ATOM      8  O   UNL     1       6.948   5.037  16.721  0.00  0.00    +0.000 OA
BRANCH   8   9
ATOM      9  N   UNL     1       7.835   4.358  17.662  0.00  0.00    +0.000 NA
ATOM     10  H   UNL     1       7.348   4.550  18.541  0.00  0.00    +0.000 HD
ATOM     11  H   UNL     1       8.645   4.981  17.663  0.00  0.00    +0.000 HD
ENDBRANCH   8   9
ENDBRANCH   1   8
BRANCH   1  12
ATOM     12  C   UNL     1       4.626   4.331  16.279  0.00  0.00    +0.000 C 
BRANCH  12  13
ATOM     13  C   UNL     1       4.370   5.509  17.219  0.00  0.00    +0.000 C 
BRANCH  13  14
ATOM     14  C   UNL     1       3.277   5.172  18.207  0.00  0.00    +0.000 A 
ATOM     15  C   UNL     1       3.100   5.953  19.358  0.00  0.00    +0.000 A 
ATOM     16  C   UNL     1       2.133   5.608  20.304  0.00  0.00    +0.000 A 
ATOM     17  C   UNL     1       1.338   4.480  20.113  0.00  0.00    +0.000 A 
ATOM     18  C   UNL     1       1.511   3.701  18.967  0.00  0.00    +0.000 A 
ATOM     19 CL   UNL     1       0.539   2.300  18.736  0.00  0.00    +0.000 Cl
ATOM     20  C   UNL     1       2.475   4.040  18.018  0.00  0.00    +0.000 A 
ENDBRANCH  13  14
ENDBRANCH  12  13
ENDBRANCH   1  12
TORSDOF 6
ENDMDL
MODEL 7
REMARK VINA RESULT:      -6.5      3.442      5.962
REMARK  Name = 
REMARK  6 active torsions:
REMARK  status: ('A' for Active; 'I' for Inactive)
REMARK    1  A    between atoms: N_1  and  O_2
REMARK    2  A    between atoms: O_2  and  C_3
REMARK    3  A    between atoms: C_3  and  C_4
REMARK    4  A    between atoms: C_3  and  C_13
REMARK    5  A    between atoms: C_4  and  C_5
REMARK    6  A    between atoms: C_5  and  C_6
REMARK                            x       y       z     vdW  Elec       q    Type
REMARK                         _______ _______ _______ _____ _____    ______ ____
ROOT
ATOM      1  C   UNL     1       6.129   4.037  16.024  0.00  0.00    +0.000 C 
ENDROOT
BRANCH   1   2
ATOM      2  C   UNL     1       6.534   4.218  14.570  0.00  0.00    +0.000 A 
ATOM      3  C   UNL     1       5.948   3.433  13.566  0.00  0.00    +0.000 A 
ATOM      4  C   UNL     1       6.322   3.595  12.230  0.00  0.00    +0.000 A 
ATOM      5  C   UNL     1       7.286   4.539  11.881  0.00  0.00    +0.000 A 
ATOM      6  C   UNL     1       7.878   5.324  12.868  0.00  0.00    +0.000 A 
ATOM      7  C   UNL     1       7.507   5.164  14.203  0.00  0.00    +0.000 A 
ENDBRANCH   1   2
BRANCH   1   8
ATOM      8  O   UNL     1       6.923   4.980  16.781  0.00  0.00    +0.000 OA
BRANCH   8   9
ATOM      9  N   UNL     1       7.657   4.297  17.844  0.00  0.00    +0.000 NA
ATOM     10  H   UNL     1       8.221   3.651  17.288  0.00  0.00    +0.000 HD
ATOM     11  H   UNL     1       6.922   3.721  18.260  0.00  0.00    +0.000 HD
ENDBRANCH   8   9
ENDBRANCH   1   8
BRANCH   1  12
ATOM     12  C   UNL     1       4.624   4.261  16.252  0.00  0.00    +0.000 C 
BRANCH  12  13
ATOM     13  C   UNL     1       4.323   5.486  17.116  0.00  0.00    +0.000 C 
BRANCH  13  14
ATOM     14  C   UNL     1       3.257   5.166  18.139  0.00  0.00    +0.000 A 
ATOM     15  C   UNL     1       3.103   5.972  19.274  0.00  0.00    +0.000 A 
ATOM     16  C   UNL     1       2.162   5.644  20.253  0.00  0.00    +0.000 A 
ATOM     17  C   UNL     1       1.371   4.506  20.108  0.00  0.00    +0.000 A 
ATOM     18  C   UNL     1       1.521   3.701  18.977  0.00  0.00    +0.000 A 
ATOM     19 CL   UNL     1       0.553   2.288  18.804  0.00  0.00    +0.000 Cl
ATOM     20  C   UNL     1       2.459   4.024  17.997  0.00  0.00    +0.000 A 
ENDBRANCH  13  14
ENDBRANCH  12  13
ENDBRANCH   1  12
TORSDOF 6
ENDMDL
MODEL 8
REMARK VINA RESULT:      -6.4      1.409      2.128
REMARK  Name = 
REMARK  6 active torsions:
REMARK  status: ('A' for Active; 'I' for Inactive)
REMARK    1  A    between atoms: N_1  and  O_2
REMARK    2  A    between atoms: O_2  and  C_3
REMARK    3  A    between atoms: C_3  and  C_4
REMARK    4  A    between atoms: C_3  and  C_13
REMARK    5  A    between atoms: C_4  and  C_5
REMARK    6  A    between atoms: C_5  and  C_6
REMARK                            x       y       z     vdW  Elec       q    Type
REMARK                         _______ _______ _______ _____ _____    ______ ____
ROOT
ATOM      1  C   UNL     1       2.083   5.714  19.068  0.00  0.00    +0.000 C 
ENDROOT
BRANCH   1   2
ATOM      2  C   UNL     1       2.603   4.304  18.837  0.00  0.00    +0.000 A 
ATOM      3  C   UNL     1       2.076   3.512  17.806  0.00  0.00    +0.000 A 
ATOM      4  C   UNL     1       2.550   2.215  17.596  0.00  0.00    +0.000 A 
ATOM      5  C   UNL     1       3.552   1.693  18.411  0.00  0.00    +0.000 A 
ATOM      6  C   UNL     1       4.084   2.467  19.440  0.00  0.00    +0.000 A 
ATOM      7  C   UNL     1       3.611   3.763  19.654  0.00  0.00    +0.000 A 
ENDBRANCH   1   2
BRANCH   1   8
ATOM      8  O   UNL     1       1.670   5.766  20.455  0.00  0.00    +0.000 OA
BRANCH   8   9
ATOM      9  N   UNL     1       1.907   7.096  21.011  0.00  0.00    +0.000 NA
ATOM     10  H   UNL     1       0.999   7.274  21.447  0.00  0.00    +0.000 HD
ATOM     11  H   UNL     1       1.916   7.671  20.166  0.00  0.00    +0.000 HD
ENDBRANCH   8   9
ENDBRANCH   1   8
BRANCH   1  12
ATOM     12  C   UNL     1       3.133   6.792  18.755  0.00  0.00    +0.000 C 
BRANCH  12  13
ATOM     13  C   UNL     1       3.617   6.756  17.305  0.00  0.00    +0.000 C 
BRANCH  13  14
ATOM     14  C   UNL     1       4.919   5.997  17.198  0.00  0.00    +0.000 A 
ATOM     15  C   UNL     1       5.116   5.075  16.161  0.00  0.00    +0.000 A 
ATOM     16  C   UNL     1       6.293   4.325  16.095  0.00  0.00    +0.000 A 
ATOM     17  C   UNL     1       7.280   4.487  17.065  0.00  0.00    +0.000 A 
ATOM     18  C   UNL     1       7.088   5.405  18.098  0.00  0.00    +0.000 A 
ATOM     19 CL   UNL     1       8.301   5.596  19.304  0.00  0.00    +0.000 Cl
ATOM     20  C   UNL     1       5.914   6.157  18.170  0.00  0.00    +0.000 A 
ENDBRANCH  13  14
ENDBRANCH  12  13
ENDBRANCH   1  12
TORSDOF 6
ENDMDL
MODEL 9
REMARK VINA RESULT:      -6.4      2.979      5.141
REMARK  Name = 
REMARK  6 active torsions:
REMARK  status: ('A' for Active; 'I' for Inactive)
REMARK    1  A    between atoms: N_1  and  O_2
REMARK    2  A    between atoms: O_2  and  C_3
REMARK    3  A    between atoms: C_3  and  C_4
REMARK    4  A    between atoms: C_3  and  C_13
REMARK    5  A    between atoms: C_4  and  C_5
REMARK    6  A    between atoms: C_5  and  C_6
REMARK                            x       y       z     vdW  Elec       q    Type
REMARK                         _______ _______ _______ _____ _____    ______ ____
ROOT
ATOM      1  C   UNL     1       5.601   4.735  17.830  0.00  0.00    +0.000 C 
ENDROOT
BRANCH   1   2
ATOM      2  C   UNL     1       5.955   4.608  16.357  0.00  0.00    +0.000 A 
ATOM      3  C   UNL     1       7.123   5.199  15.853  0.00  0.00    +0.000 A 
ATOM      4  C   UNL     1       7.448   5.086  14.499  0.00  0.00    +0.000 A 
ATOM      5  C   UNL     1       6.611   4.384  13.633  0.00  0.00    +0.000 A 
ATOM      6  C   UNL     1       5.446   3.794  14.119  0.00  0.00    +0.000 A 
ATOM      7  C   UNL     1       5.119   3.906  15.471  0.00  0.00    +0.000 A 
ENDBRANCH   1   2
BRANCH   1   8
ATOM      8  O   UNL     1       6.815   4.442  18.561  0.00  0.00    +0.000 OA
BRANCH   8   9
ATOM      9  N   UNL     1       6.977   5.367  19.679  0.00  0.00    +0.000 NA
ATOM     10  H   UNL     1       7.844   5.008  20.087  0.00  0.00    +0.000 HD
ATOM     11  H   UNL     1       6.235   5.056  20.310  0.00  0.00    +0.000 HD
ENDBRANCH   8   9
ENDBRANCH   1   8
BRANCH   1  12
ATOM     12  C   UNL     1       5.052   6.126  18.189  0.00  0.00    +0.000 C 
BRANCH  12  13
ATOM     13  C   UNL     1       3.603   6.333  17.748  0.00  0.00    +0.000 C 
BRANCH  13  14
ATOM     14  C   UNL     1       2.658   5.583  18.658  0.00  0.00    +0.000 A 
ATOM     15  C   UNL     1       2.386   6.065  19.946  0.00  0.00    +0.000 A 
ATOM     16  C   UNL     1       1.563   5.342  20.812  0.00  0.00    +0.000 A 
ATOM     17  C   UNL     1       1.009   4.131  20.403  0.00  0.00    +0.000 A 
ATOM     18  C   UNL     1       1.278   3.648  19.121  0.00  0.00    +0.000 A 
ATOM     19 CL   UNL     1       0.605   2.146  18.618  0.00  0.00    +0.000 Cl
ATOM     20  C   UNL     1       2.099   4.366  18.251  0.00  0.00    +0.000 A 
ENDBRANCH  13  14
ENDBRANCH  12  13
ENDBRANCH   1  12
TORSDOF 6
ENDMDL
