MODEL 1
REMARK VINA RESULT:      -6.3      0.000      0.000
REMARK  Name = 
REMARK  2 active torsions:
REMARK  status: ('A' for Active; 'I' for Inactive)
REMARK    1  A    between atoms: C_1  and  N_2
REMARK    2  A    between atoms: C_6  and  C_7
REMARK                            x       y       z     vdW  Elec       q    Type
REMARK                         _______ _______ _______ _____ _____    ______ ____
ROOT
ATOM      1  C   UNL     1       1.807   2.409  18.554  0.00  0.00    +0.000 C 
ATOM      2  N   UNL     1       3.110   2.911  18.952  0.00  0.00    +0.000 NA
ATOM      3  C   UNL     1       3.071   3.946  19.982  0.00  0.00    +0.000 C 
ATOM      4  C   UNL     1       3.558   5.366  19.646  0.00  0.00    +0.000 C 
ATOM      5  C   UNL     1       4.414   5.485  18.428  0.00  0.00    +0.000 C 
ATOM      6  C   UNL     1       4.630   4.442  17.619  0.00  0.00    +0.000 C 
ATOM      7  C   UNL     1       4.047   3.071  17.844  0.00  0.00    +0.000 C 
ENDROOT
BRANCH   6   8
ATOM      8  C   UNL     1       5.464   4.604  16.425  0.00  0.00    +0.000 A 
ATOM      9  C   UNL     1       5.110   4.012  15.211  0.00  0.00    +0.000 A 
ATOM     10  C   UNL     1       5.913   4.210  14.090  0.00  0.00    +0.000 A 
ATOM     11  C   UNL     1       7.044   4.992  14.230  0.00  0.00    +0.000 A 
ATOM     12 CL   UNL     1       8.076   5.295  12.891  0.00  0.00    +0.000 Cl
ATOM     13  N   UNL     1       7.434   5.575  15.383  0.00  0.00    +0.000 NA
ATOM     14  C   UNL     1       6.634   5.362  16.455  0.00  0.00    +0.000 A 
ENDBRANCH   6   8
TORSDOF 1
ENDMDL
MODEL 2
REMARK VINA RESULT:      -6.3      1.017      1.462
REMARK  Name = 
REMARK  2 active torsions:
REMARK  status: ('A' for Active; 'I' for Inactive)
REMARK    1  A    between atoms: C_1  and  N_2
REMARK    2  A    between atoms: C_6  and  C_7
REMARK                            x       y       z     vdW  Elec       q    Type
REMARK                         _______ _______ _______ _____ _____    ______ ____
ROOT
ATOM      1  C   UNL     1       4.508   2.181  20.270  0.00  0.00    +0.000 C 
ATOM      2  N   UNL     1       4.113   3.422  19.630  0.00  0.00    +0.000 NA
ATOM      3  C   UNL     1       2.675   3.560  19.411  0.00  0.00    +0.000 C 
ATOM      4  C   UNL     1       2.132   3.624  17.973  0.00  0.00    +0.000 C 
ATOM      5  C   UNL     1       3.136   3.955  16.918  0.00  0.00    +0.000 C 
ATOM      6  C   UNL     1       4.439   4.060  17.198  0.00  0.00    +0.000 C 
ATOM      7  C   UNL     1       5.020   3.860  18.574  0.00  0.00    +0.000 C 
ENDROOT
BRANCH   6   8
ATOM      8  C   UNL     1       5.393   4.372  16.130  0.00  0.00    +0.000 A 
ATOM      9  C   UNL     1       5.277   3.790  14.865  0.00  0.00    +0.000 A 
ATOM     10  C   UNL     1       6.185   4.131  13.866  0.00  0.00    +0.000 A 
ATOM     11  C   UNL     1       7.179   5.041  14.175  0.00  0.00    +0.000 A 
ATOM     12 CL   UNL     1       8.328   5.524  12.992  0.00  0.00    +0.000 Cl
ATOM     13  N   UNL     1       7.340   5.620  15.383  0.00  0.00    +0.000 NA
ATOM     14  C   UNL     1       6.442   5.267  16.333  0.00  0.00    +0.000 A 
ENDBRANCH   6   8
TORSDOF 1
ENDMDL
MODEL 3
REMARK VINA RESULT:      -6.3      3.331      5.953
REMARK  Name = 
REMARK  2 active torsions:
REMARK  status: ('A' for Active; 'I' for Inactive)
REMARK    1  A    between atoms: C_1  and  N_2
REMARK    2  A    between atoms: C_6  and  C_7
REMARK                            x       y       z     vdW  Elec       q    Type
REMARK                         _______ _______ _______ _____ _____    ______ ____
ROOT
ATOM      1  C   UNL     1       7.482   6.956  17.097  0.00  0.00    +0.000 C 
ATOM      2  N   UNL     1       7.208   5.537  16.968  0.00  0.00    +0.000 NA
ATOM      3  C   UNL     1       7.047   5.074  15.592  0.00  0.00    +0.000 C 
ATOM      4  C   UNL     1       5.685   4.523  15.134  0.00  0.00    +0.000 C 
ATOM      5  C   UNL     1       4.751   4.118  16.227  0.00  0.00    +0.000 C 
ATOM      6  C   UNL     1       5.038   4.344  17.513  0.00  0.00    +0.000 C 
ATOM      7  C   UNL     1       6.303   5.013  17.986  0.00  0.00    +0.000 C 
ENDROOT
BRANCH   6   8
ATOM      8  C   UNL     1       4.087   3.944  18.554  0.00  0.00    +0.000 A 
ATOM      9  C   UNL     1       2.778   4.432  18.562  0.00  0.00    +0.000 A 
ATOM     10  C   UNL     1       1.894   4.009  19.551  0.00  0.00    +0.000 A 
ATOM     11  C   UNL     1       2.357   3.114  20.498  0.00  0.00    +0.000 A 
ATOM     12 CL   UNL     1       1.322   2.534  21.741  0.00  0.00    +0.000 Cl
ATOM     13  N   UNL     1       3.614   2.625  20.540  0.00  0.00    +0.000 NA
ATOM     14  C   UNL     1       4.450   3.056  19.566  0.00  0.00    +0.000 A 
ENDBRANCH   6   8
TORSDOF 1
ENDMDL
MODEL 4
REMARK VINA RESULT:      -6.2      2.528      3.183
REMARK  Name = 
REMARK  2 active torsions:
REMARK  status: ('A' for Active; 'I' for Inactive)
REMARK    1  A    between atoms: C_1  and  N_2
REMARK    2  A    between atoms: C_6  and  C_7
REMARK                            x       y       z     vdW  Elec       q    Type
REMARK                         _______ _______ _______ _____ _____    ______ ____
ROOT
ATOM      1  C   UNL     1       1.482   3.081  21.281  0.00  0.00    +0.000 C 
ATOM      2  N   UNL     1       1.415   3.512  19.896  0.00  0.00    +0.000 NA
ATOM      3  C   UNL     1       1.076   2.453  18.948  0.00  0.00    +0.000 C 
ATOM      4  C   UNL     1       2.108   2.029  17.889  0.00  0.00    +0.000 C 
ATOM      5  C   UNL     1       3.215   2.999  17.639  0.00  0.00    +0.000 C 
ATOM      6  C   UNL     1       3.363   4.101  18.383  0.00  0.00    +0.000 C 
ATOM      7  C   UNL     1       2.449   4.472  19.523  0.00  0.00    +0.000 C 
ENDROOT
BRANCH   6   8
ATOM      8  C   UNL     1       4.471   5.021  18.114  0.00  0.00    +0.000 A 
ATOM      9  C   UNL     1       4.427   5.910  17.037  0.00  0.00    +0.000 A 
ATOM     10  C   UNL     1       5.487   6.789  16.829  0.00  0.00    +0.000 A 
ATOM     11  C   UNL     1       6.554   6.740  17.706  0.00  0.00    +0.000 A 
ATOM     12 CL   UNL     1       7.892   7.802  17.524  0.00  0.00    +0.000 Cl
ATOM     13  N   UNL     1       6.649   5.892  18.751  0.00  0.00    +0.000 NA
ATOM     14  C   UNL     1       5.604   5.049  18.926  0.00  0.00    +0.000 A 
ENDBRANCH   6   8
TORSDOF 1
ENDMDL
MODEL 5
REMARK VINA RESULT:      -6.2      3.278      5.885
REMARK  Name = 
REMARK  2 active torsions:
REMARK  status: ('A' for Active; 'I' for Inactive)
REMARK    1  A    between atoms: C_1  and  N_2
REMARK    2  A    between atoms: C_6  and  C_7
REMARK                            x       y       z     vdW  Elec       q    Type
REMARK                         _______ _______ _______ _____ _____    ______ ____
ROOT
ATOM      1  C   UNL     1       7.535   7.001  17.217  0.00  0.00    +0.000 C 
ATOM      2  N   UNL     1       7.289   5.583  17.025  0.00  0.00    +0.000 NA
ATOM      3  C   UNL     1       7.192   5.169  15.627  0.00  0.00    +0.000 C 
ATOM      4  C   UNL     1       5.858   4.615  15.094  0.00  0.00    +0.000 C 
ATOM      5  C   UNL     1       4.888   4.157  16.132  0.00  0.00    +0.000 C 
ATOM      6  C   UNL     1       5.118   4.338  17.437  0.00  0.00    +0.000 C 
ATOM      7  C   UNL     1       6.352   5.008  17.985  0.00  0.00    +0.000 C 
ENDROOT
BRANCH   6   8
ATOM      8  C   UNL     1       4.133   3.886  18.422  0.00  0.00    +0.000 A 
ATOM      9  C   UNL     1       3.549   2.620  18.331  0.00  0.00    +0.000 A 
ATOM     10  C   UNL     1       2.637   2.213  19.302  0.00  0.00    +0.000 A 
ATOM     11  C   UNL     1       2.341   3.093  20.326  0.00  0.00    +0.000 A 
ATOM     12 CL   UNL     1       1.237   2.659  21.568  0.00  0.00    +0.000 Cl
ATOM     13  N   UNL     1       2.868   4.329  20.450  0.00  0.00    +0.000 NA
ATOM     14  C   UNL     1       3.750   4.696  19.490  0.00  0.00    +0.000 A 
ENDBRANCH   6   8
TORSDOF 1
ENDMDL
MODEL 6
REMARK VINA RESULT:      -6.2      2.606      3.324
REMARK  Name = 
REMARK  2 active torsions:
REMARK  status: ('A' for Active; 'I' for Inactive)
REMARK    1  A    between atoms: C_1  and  N_2
REMARK    2  A    between atoms: C_6  and  C_7
REMARK                            x       y       z     vdW  Elec       q    Type
REMARK                         _______ _______ _______ _____ _____    ______ ____
ROOT
ATOM      1  C   UNL     1       1.505   2.999  21.246  0.00  0.00    +0.000 C 
ATOM      2  N   UNL     1       1.486   3.489  19.879  0.00  0.00    +0.000 NA
ATOM      3  C   UNL     1       1.176   2.474  18.875  0.00  0.00    +0.000 C 
ATOM      4  C   UNL     1       2.242   2.091  17.834  0.00  0.00    +0.000 C 
ATOM      5  C   UNL     1       3.360   3.066  17.664  0.00  0.00    +0.000 C 
ATOM      6  C   UNL     1       3.486   4.134  18.459  0.00  0.00    +0.000 C 
ATOM      7  C   UNL     1       2.536   4.459  19.583  0.00  0.00    +0.000 C 
ENDROOT
BRANCH   6   8
ATOM      8  C   UNL     1       4.606   5.058  18.268  0.00  0.00    +0.000 A 
ATOM      9  C   UNL     1       5.801   4.901  18.976  0.00  0.00    +0.000 A 
ATOM     10  C   UNL     1       6.855   5.783  18.748  0.00  0.00    +0.000 A 
ATOM     11  C   UNL     1       6.670   6.793  17.823  0.00  0.00    +0.000 A 
ATOM     12 CL   UNL     1       7.927   7.911  17.477  0.00  0.00    +0.000 Cl
ATOM     13  N   UNL     1       5.532   6.994  17.125  0.00  0.00    +0.000 NA
ATOM     14  C   UNL     1       4.526   6.121  17.370  0.00  0.00    +0.000 A 
ENDBRANCH   6   8
TORSDOF 1
ENDMDL
MODEL 7
REMARK VINA RESULT:      -6.1      1.592      1.865
REMARK  Name = 
REMARK  2 active torsions:
REMARK  status: ('A' for Active; 'I' for Inactive)
REMARK    1  A    between atoms: C_1  and  N_2
REMARK    2  A    between atoms: C_6  and  C_7
REMARK                            x       y       z     vdW  Elec       q    Type
REMARK                         _______ _______ _______ _____ _____    ______ ____
ROOT
ATOM      1  C   UNL     1       1.131   3.678  20.122  0.00  0.00    +0.000 C 
ATOM      2  N   UNL     1       2.262   4.585  20.198  0.00  0.00    +0.000 NA
ATOM      3  C   UNL     1       1.920   5.949  20.591  0.00  0.00    +0.000 C 
ATOM      4  C   UNL     1       2.138   7.100  19.593  0.00  0.00    +0.000 C 
ATOM      5  C   UNL     1       3.060   6.805  18.457  0.00  0.00    +0.000 C 
ATOM      6  C   UNL     1       3.556   5.580  18.257  0.00  0.00    +0.000 C 
ATOM      7  C   UNL     1       3.246   4.395  19.136  0.00  0.00    +0.000 C 
ENDROOT
BRANCH   6   8
ATOM      8  C   UNL     1       4.446   5.329  17.120  0.00  0.00    +0.000 A 
ATOM      9  C   UNL     1       4.840   4.031  16.785  0.00  0.00    +0.000 A 
ATOM     10  C   UNL     1       5.665   3.827  15.681  0.00  0.00    +0.000 A 
ATOM     11  C   UNL     1       6.068   4.934  14.958  0.00  0.00    +0.000 A 
ATOM     12 CL   UNL     1       7.074   4.763  13.576  0.00  0.00    +0.000 Cl
ATOM     13  N   UNL     1       5.726   6.206  15.250  0.00  0.00    +0.000 NA
ATOM     14  C   UNL     1       4.925   6.371  16.329  0.00  0.00    +0.000 A 
ENDBRANCH   6   8
TORSDOF 1
ENDMDL
MODEL 8
REMARK VINA RESULT:      -6.1      3.403      5.968
REMARK  Name = 
REMARK  2 active torsions:
REMARK  status: ('A' for Active; 'I' for Inactive)
REMARK    1  A    between atoms: C_1  and  N_2
REMARK    2  A    between atoms: C_6  and  C_7
REMARK                            x       y       z     vdW  Elec       q    Type
REMARK                         _______ _______ _______ _____ _____    ______ ____
ROOT
ATOM      1  C   UNL     1       6.216   4.885  15.020  0.00  0.00    +0.000 C 
ATOM      2  N   UNL     1       5.968   5.779  16.137  0.00  0.00    +0.000 NA
ATOM      3  C   UNL     1       7.169   6.379  16.712  0.00  0.00    +0.000 C 
ATOM      4  C   UNL     1       7.565   6.039  18.160  0.00  0.00    +0.000 C 
ATOM      5  C   UNL     1       6.482   5.454  19.005  0.00  0.00    +0.000 C 
ATOM      6  C   UNL     1       5.290   5.130  18.493  0.00  0.00    +0.000 C 
ATOM      7  C   UNL     1       4.921   5.318  17.044  0.00  0.00    +0.000 C 
ENDROOT
BRANCH   6   8
ATOM      8  C   UNL     1       4.260   4.544  19.354  0.00  0.00    +0.000 A 
ATOM      9  C   UNL     1       3.242   5.331  19.899  0.00  0.00    +0.000 A 
ATOM     10  C   UNL     1       2.263   4.734  20.691  0.00  0.00    +0.000 A 
ATOM     11  C   UNL     1       2.344   3.372  20.910  0.00  0.00    +0.000 A 
ATOM     12 CL   UNL     1       1.167   2.562  21.863  0.00  0.00    +0.000 Cl
ATOM     13  N   UNL     1       3.314   2.573  20.417  0.00  0.00    +0.000 NA
ATOM     14  C   UNL     1       4.251   3.183  19.652  0.00  0.00    +0.000 A 
ENDBRANCH   6   8
TORSDOF 1
ENDMDL
MODEL 9
REMARK VINA RESULT:      -6.0      3.438      5.906
REMARK  Name = 
REMARK  2 active torsions:
REMARK  status: ('A' for Active; 'I' for Inactive)
REMARK    1  A    between atoms: C_1  and  N_2
REMARK    2  A    between atoms: C_6  and  C_7
REMARK                            x       y       z     vdW  Elec       q    Type
REMARK                         _______ _______ _______ _____ _____    ______ ____
ROOT
ATOM      1  C   UNL     1       6.637   5.063  15.103  0.00  0.00    +0.000 C 
ATOM      2  N   UNL     1       6.234   5.916  16.207  0.00  0.00    +0.000 NA
ATOM      3  C   UNL     1       7.336   6.609  16.870  0.00  0.00    +0.000 C 
ATOM      4  C   UNL     1       7.658   6.283  18.339  0.00  0.00    +0.000 C 
ATOM      5  C   UNL     1       6.575   5.594  19.101  0.00  0.00    +0.000 C 
ATOM      6  C   UNL     1       5.455   5.175  18.503  0.00  0.00    +0.000 C 
ATOM      7  C   UNL     1       5.172   5.352  17.034  0.00  0.00    +0.000 C 
ENDROOT
BRANCH   6   8
ATOM      8  C   UNL     1       4.423   4.489  19.285  0.00  0.00    +0.000 A 
ATOM      9  C   UNL     1       4.475   3.109  19.496  0.00  0.00    +0.000 A 
ATOM     10  C   UNL     1       3.492   2.495  20.267  0.00  0.00    +0.000 A 
ATOM     11  C   UNL     1       2.489   3.287  20.795  0.00  0.00    +0.000 A 
ATOM     12 CL   UNL     1       1.249   2.605  21.768  0.00  0.00    +0.000 Cl
ATOM     13  N   UNL     1       2.388   4.620  20.609  0.00  0.00    +0.000 NA
ATOM     14  C   UNL     1       3.358   5.187  19.853  0.00  0.00    +0.000 A 
ENDBRANCH   6   8
TORSDOF 1
ENDMDL
