MODEL 1
REMARK VINA RESULT:      -9.1      0.000      0.000
REMARK  Name = 
REMARK  6 active torsions:
REMARK  status: ('A' for Active; 'I' for Inactive)
REMARK    1  A    between atoms: C_2  and  C_3
REMARK    2  A    between atoms: C_3  and  C_4
REMARK    3  A    between atoms: C_4  and  S_5
REMARK    4  A    between atoms: S_5  and  C_6
REMARK    5  A    between atoms: N_18  and  C_28
REMARK    6  A    between atoms: N_21  and  C_22
REMARK                            x       y       z     vdW  Elec       q    Type
REMARK                         _______ _______ _______ _____ _____    ______ ____
ROOT
ATOM      1  O   UNL     1       1.108   6.383  21.142  0.00  0.00    +0.000 OA
ATOM      2  C   UNL     1       1.724   6.888  20.200  0.00  0.00    +0.000 C 
ATOM      3  N   UNL     1       2.745   6.209  19.469  0.00  0.00    +0.000 N 
ATOM      4  C   UNL     1       3.459   6.840  18.403  0.00  0.00    +0.000 C 
ATOM      5  O   UNL     1       3.367   8.019  18.082  0.00  0.00    +0.000 OA
ATOM      6  N   UNL     1       4.284   6.018  17.675  0.00  0.00    +0.000 N 
ATOM      7  H   UNL     1       4.694   5.219  18.111  0.00  0.00    +0.000 HD
ENDROOT
BRANCH   6   8
ATOM      8  C   UNL     1       5.023   6.428  16.499  0.00  0.00    +0.000 C 
ATOM      9  C   UNL     1       6.418   6.924  16.898  0.00  0.00    +0.000 C 
ATOM     10  C   UNL     1       7.319   5.798  17.414  0.00  0.00    +0.000 C 
ATOM     11  C   UNL     1       7.394   4.632  16.432  0.00  0.00    +0.000 C 
ATOM     12  C   UNL     1       6.012   4.111  16.053  0.00  0.00    +0.000 C 
ATOM     13  C   UNL     1       5.106   5.234  15.538  0.00  0.00    +0.000 C 
ENDBRANCH   6   8
BRANCH   3  14
ATOM     14  C   UNL     1       3.074   4.756  19.713  0.00  0.00    +0.000 C 
ATOM     15  C   UNL     1       2.588   3.972  20.929  0.00  0.00    +0.000 C 
ATOM     16  C   UNL     1       1.183   3.419  20.826  0.00  0.00    +0.000 C 
ATOM     17  C   UNL     1       0.780   2.889  19.452  0.00  0.00    +0.000 C 
ATOM     18  C   UNL     1       1.480   3.458  18.220  0.00  0.00    +0.000 C 
ATOM     19  C   UNL     1       2.918   3.865  18.458  0.00  0.00    +0.000 C 
ENDBRANCH   3  14
BRANCH   2  20
ATOM     20  C   UNL     1       1.417   8.362  19.866  0.00  0.00    +0.000 C 
BRANCH  20  21
ATOM     21  C   UNL     1       0.594   9.189  20.870  0.00  0.00    +0.000 C 
BRANCH  21  22
ATOM     22  S   UNL     1       0.907  10.959  20.443  0.00  0.00    +0.000 S 
BRANCH  22  23
ATOM     23  C   UNL     1      -0.584  11.758  20.798  0.00  0.00    +0.000 A 
ATOM     24  N   UNL     1      -0.844  12.476  21.885  0.00  0.00    +0.000 NA
ATOM     25  N   UNL     1      -2.158  12.951  21.796  0.00  0.00    +0.000 NA
ATOM     26  C   UNL     1      -2.614  12.506  20.662  0.00  0.00    +0.000 A 
ATOM     27  S   UNL     1      -4.125  12.651  19.830  0.00  0.00    +0.000 S 
ATOM     28  C   UNL     1      -3.448  11.616  18.532  0.00  0.00    +0.000 A 
ATOM     29  C   UNL     1      -4.115  11.200  17.382  0.00  0.00    +0.000 A 
ATOM     30  C   UNL     1      -3.427  10.386  16.481  0.00  0.00    +0.000 A 
ATOM     31  C   UNL     1      -2.099   9.992  16.732  0.00  0.00    +0.000 A 
ATOM     32  C   UNL     1      -1.431  10.410  17.894  0.00  0.00    +0.000 A 
ATOM     33  C   UNL     1      -2.127  11.208  18.777  0.00  0.00    +0.000 A 
ATOM     34  N   UNL     1      -1.689  11.745  20.005  0.00  0.00    +0.000 N 
ENDBRANCH  22  23
ENDBRANCH  21  22
ENDBRANCH  20  21
ENDBRANCH   2  20
TORSDOF 6
ENDMDL
MODEL 2
REMARK VINA RESULT:      -8.7      1.361      1.569
REMARK  Name = 
REMARK  6 active torsions:
REMARK  status: ('A' for Active; 'I' for Inactive)
REMARK    1  A    between atoms: C_2  and  C_3
REMARK    2  A    between atoms: C_3  and  C_4
REMARK    3  A    between atoms: C_4  and  S_5
REMARK    4  A    between atoms: S_5  and  C_6
REMARK    5  A    between atoms: N_18  and  C_28
REMARK    6  A    between atoms: N_21  and  C_22
REMARK                            x       y       z     vdW  Elec       q    Type
REMARK                         _______ _______ _______ _____ _____    ______ ____
ROOT
ATOM      1  O   UNL     1       1.201   5.249  20.671  0.00  0.00    +0.000 OA
ATOM      2  C   UNL     1       1.893   5.962  19.940  0.00  0.00    +0.000 C 
ATOM      3  N   UNL     1       3.088   5.514  19.300  0.00  0.00    +0.000 N 
ATOM      4  C   UNL     1       3.881   6.380  18.485  0.00  0.00    +0.000 C 
ATOM      5  O   UNL     1       3.702   7.584  18.341  0.00  0.00    +0.000 OA
ATOM      6  N   UNL     1       4.899   5.773  17.792  0.00  0.00    +0.000 N 
ATOM      7  H   UNL     1       5.327   4.951  18.163  0.00  0.00    +0.000 HD
ENDROOT
BRANCH   6   8
ATOM      8  C   UNL     1       5.759   6.445  16.841  0.00  0.00    +0.000 C 
ATOM      9  C   UNL     1       7.200   5.939  16.980  0.00  0.00    +0.000 C 
ATOM     10  C   UNL     1       7.360   4.485  16.523  0.00  0.00    +0.000 C 
ATOM     11  C   UNL     1       6.820   4.267  15.112  0.00  0.00    +0.000 C 
ATOM     12  C   UNL     1       5.376   4.740  14.972  0.00  0.00    +0.000 C 
ATOM     13  C   UNL     1       5.210   6.192  15.429  0.00  0.00    +0.000 C 
ENDBRANCH   6   8
BRANCH   3  14
ATOM     14  C   UNL     1       3.542   4.076  19.369  0.00  0.00    +0.000 C 
ATOM     15  C   UNL     1       3.241   3.149  20.544  0.00  0.00    +0.000 C 
ATOM     16  C   UNL     1       1.874   2.497  20.522  0.00  0.00    +0.000 C 
ATOM     17  C   UNL     1       1.371   2.062  19.148  0.00  0.00    +0.000 C 
ATOM     18  C   UNL     1       1.898   2.794  17.916  0.00  0.00    +0.000 C 
ATOM     19  C   UNL     1       3.321   3.292  18.053  0.00  0.00    +0.000 C 
ENDBRANCH   3  14
BRANCH   2  20
ATOM     20  C   UNL     1       1.472   7.438  19.792  0.00  0.00    +0.000 C 
BRANCH  20  21
ATOM     21  C   UNL     1       1.618   8.373  21.006  0.00  0.00    +0.000 C 
BRANCH  21  22
ATOM     22  S   UNL     1      -0.024   8.360  21.853  0.00  0.00    +0.000 S 
BRANCH  22  23
ATOM     23  C   UNL     1      -0.391  10.030  22.106  0.00  0.00    +0.000 A 
ATOM     24  N   UNL     1      -0.291  10.685  23.256  0.00  0.00    +0.000 NA
ATOM     25  N   UNL     1      -0.681  12.014  23.043  0.00  0.00    +0.000 NA
ATOM     26  C   UNL     1      -0.984  12.089  21.780  0.00  0.00    +0.000 A 
ATOM     27  S   UNL     1      -1.542  13.363  20.750  0.00  0.00    +0.000 S 
ATOM     28  C   UNL     1      -1.582  12.181  19.401  0.00  0.00    +0.000 A 
ATOM     29  C   UNL     1      -1.983  12.442  18.094  0.00  0.00    +0.000 A 
ATOM     30  C   UNL     1      -1.954  11.392  17.175  0.00  0.00    +0.000 A 
ATOM     31  C   UNL     1      -1.538  10.105  17.564  0.00  0.00    +0.000 A 
ATOM     32  C   UNL     1      -1.137   9.845  18.884  0.00  0.00    +0.000 A 
ATOM     33  C   UNL     1      -1.178  10.891  19.780  0.00  0.00    +0.000 A 
ATOM     34  N   UNL     1      -0.841  10.886  21.148  0.00  0.00    +0.000 N 
ENDBRANCH  22  23
ENDBRANCH  21  22
ENDBRANCH  20  21
ENDBRANCH   2  20
TORSDOF 6
ENDMDL
MODEL 3
REMARK VINA RESULT:      -8.6      2.417      2.667
REMARK  Name = 
REMARK  6 active torsions:
REMARK  status: ('A' for Active; 'I' for Inactive)
REMARK    1  A    between atoms: C_2  and  C_3
REMARK    2  A    between atoms: C_3  and  C_4
REMARK    3  A    between atoms: C_4  and  S_5
REMARK    4  A    between atoms: S_5  and  C_6
REMARK    5  A    between atoms: N_18  and  C_28
REMARK    6  A    between atoms: N_21  and  C_22
REMARK                            x       y       z     vdW  Elec       q    Type
REMARK                         _______ _______ _______ _____ _____    ______ ____
ROOT
ATOM      1  O   UNL     1       1.377   5.255  20.934  0.00  0.00    +0.000 OA
ATOM      2  C   UNL     1       2.039   5.958  20.165  0.00  0.00    +0.000 C 
ATOM      3  N   UNL     1       3.183   5.487  19.452  0.00  0.00    +0.000 N 
ATOM      4  C   UNL     1       3.944   6.342  18.595  0.00  0.00    +0.000 C 
ATOM      5  O   UNL     1       3.783   7.550  18.467  0.00  0.00    +0.000 OA
ATOM      6  N   UNL     1       4.905   5.717  17.838  0.00  0.00    +0.000 N 
ATOM      7  H   UNL     1       5.336   4.883  18.179  0.00  0.00    +0.000 HD
ENDROOT
BRANCH   6   8
ATOM      8  C   UNL     1       5.721   6.376  16.839  0.00  0.00    +0.000 C 
ATOM      9  C   UNL     1       7.182   5.930  16.971  0.00  0.00    +0.000 C 
ATOM     10  C   UNL     1       7.388   4.464  16.578  0.00  0.00    +0.000 C 
ATOM     11  C   UNL     1       6.830   4.162  15.190  0.00  0.00    +0.000 C 
ATOM     12  C   UNL     1       5.367   4.573  15.058  0.00  0.00    +0.000 C 
ATOM     13  C   UNL     1       5.154   6.038  15.453  0.00  0.00    +0.000 C 
ENDBRANCH   6   8
BRANCH   3  14
ATOM     14  C   UNL     1       3.609   4.040  19.487  0.00  0.00    +0.000 C 
ATOM     15  C   UNL     1       3.152   3.049  20.553  0.00  0.00    +0.000 C 
ATOM     16  C   UNL     1       1.792   2.424  20.319  0.00  0.00    +0.000 C 
ATOM     17  C   UNL     1       1.462   2.084  18.868  0.00  0.00    +0.000 C 
ATOM     18  C   UNL     1       2.149   2.880  17.761  0.00  0.00    +0.000 C 
ATOM     19  C   UNL     1       3.548   3.342  18.107  0.00  0.00    +0.000 C 
ENDBRANCH   3  14
BRANCH   2  20
ATOM     20  C   UNL     1       1.642   7.443  20.049  0.00  0.00    +0.000 C 
BRANCH  20  21
ATOM     21  C   UNL     1       1.367   8.236  21.340  0.00  0.00    +0.000 C 
BRANCH  21  22
ATOM     22  S   UNL     1      -0.418   8.707  21.273  0.00  0.00    +0.000 S 
BRANCH  22  23
ATOM     23  C   UNL     1      -0.465  10.309  21.921  0.00  0.00    +0.000 A 
ATOM     24  N   UNL     1      -1.051  10.673  23.055  0.00  0.00    +0.000 NA
ATOM     25  N   UNL     1      -0.867  12.052  23.224  0.00  0.00    +0.000 NA
ATOM     26  C   UNL     1      -0.175  12.439  22.193  0.00  0.00    +0.000 A 
ATOM     27  S   UNL     1       0.452  13.965  21.668  0.00  0.00    +0.000 S 
ATOM     28  C   UNL     1       1.098  13.137  20.214  0.00  0.00    +0.000 A 
ATOM     29  C   UNL     1       1.796  13.738  19.170  0.00  0.00    +0.000 A 
ATOM     30  C   UNL     1       2.219  12.933  18.111  0.00  0.00    +0.000 A 
ATOM     31  C   UNL     1       1.939  11.554  18.098  0.00  0.00    +0.000 A 
ATOM     32  C   UNL     1       1.232  10.951  19.150  0.00  0.00    +0.000 A 
ATOM     33  C   UNL     1       0.816  11.762  20.184  0.00  0.00    +0.000 A 
ATOM     34  N   UNL     1       0.090  11.406  21.339  0.00  0.00    +0.000 N 
ENDBRANCH  22  23
ENDBRANCH  21  22
ENDBRANCH  20  21
ENDBRANCH   2  20
TORSDOF 6
ENDMDL
MODEL 4
REMARK VINA RESULT:      -8.5      2.506      3.204
REMARK  Name = 
REMARK  6 active torsions:
REMARK  status: ('A' for Active; 'I' for Inactive)
REMARK    1  A    between atoms: C_2  and  C_3
REMARK    2  A    between atoms: C_3  and  C_4
REMARK    3  A    between atoms: C_4  and  S_5
REMARK    4  A    between atoms: S_5  and  C_6
REMARK    5  A    between atoms: N_18  and  C_28
REMARK    6  A    between atoms: N_21  and  C_22
REMARK                            x       y       z     vdW  Elec       q    Type
REMARK                         _______ _______ _______ _____ _____    ______ ____
ROOT
ATOM      1  O   UNL     1       1.079   5.770  20.986  0.00  0.00    +0.000 OA
ATOM      2  C   UNL     1       1.733   6.425  20.170  0.00  0.00    +0.000 C 
ATOM      3  N   UNL     1       2.776   5.871  19.367  0.00  0.00    +0.000 N 
ATOM      4  C   UNL     1       3.534   6.669  18.455  0.00  0.00    +0.000 C 
ATOM      5  O   UNL     1       3.461   7.887  18.343  0.00  0.00    +0.000 OA
ATOM      6  N   UNL     1       4.380   5.977  17.624  0.00  0.00    +0.000 N 
ATOM      7  H   UNL     1       4.768   5.108  17.927  0.00  0.00    +0.000 HD
ENDROOT
BRANCH   6   8
ATOM      8  C   UNL     1       5.165   6.577  16.565  0.00  0.00    +0.000 C 
ATOM      9  C   UNL     1       6.593   6.845  17.053  0.00  0.00    +0.000 C 
ATOM     10  C   UNL     1       7.386   5.556  17.291  0.00  0.00    +0.000 C 
ATOM     11  C   UNL     1       7.370   4.642  16.069  0.00  0.00    +0.000 C 
ATOM     12  C   UNL     1       5.951   4.344  15.595  0.00  0.00    +0.000 C 
ATOM     13  C   UNL     1       5.153   5.630  15.357  0.00  0.00    +0.000 C 
ENDBRANCH   6   8
BRANCH   3  14
ATOM     14  C   UNL     1       3.087   4.394  19.365  0.00  0.00    +0.000 C 
ATOM     15  C   UNL     1       2.905   3.489  20.580  0.00  0.00    +0.000 C 
ATOM     16  C   UNL     1       1.497   2.979  20.806  0.00  0.00    +0.000 C 
ATOM     17  C   UNL     1       0.716   2.614  19.546  0.00  0.00    +0.000 C 
ATOM     18  C   UNL     1       1.089   3.302  18.235  0.00  0.00    +0.000 C 
ATOM     19  C   UNL     1       2.557   3.651  18.114  0.00  0.00    +0.000 C 
ENDBRANCH   3  14
BRANCH   2  20
ATOM     20  C   UNL     1       1.449   7.938  20.090  0.00  0.00    +0.000 C 
BRANCH  20  21
ATOM     21  C   UNL     1       1.410   8.751  21.396  0.00  0.00    +0.000 C 
BRANCH  21  22
ATOM     22  S   UNL     1      -0.129   9.769  21.312  0.00  0.00    +0.000 S 
BRANCH  22  23
ATOM     23  C   UNL     1       0.432  11.404  21.340  0.00  0.00    +0.000 A 
ATOM     24  N   UNL     1       1.556  11.851  20.792  0.00  0.00    +0.000 NA
ATOM     25  N   UNL     1       1.648  13.227  21.036  0.00  0.00    +0.000 NA
ATOM     26  C   UNL     1       0.576  13.535  21.705  0.00  0.00    +0.000 A 
ATOM     27  S   UNL     1      -0.048  15.006  22.370  0.00  0.00    +0.000 S 
ATOM     28  C   UNL     1      -1.441  14.068  22.998  0.00  0.00    +0.000 A 
ATOM     29  C   UNL     1      -2.500  14.574  23.747  0.00  0.00    +0.000 A 
ATOM     30  C   UNL     1      -3.498  13.688  24.158  0.00  0.00    +0.000 A 
ATOM     31  C   UNL     1      -3.429  12.321  23.829  0.00  0.00    +0.000 A 
ATOM     32  C   UNL     1      -2.358  11.814  23.076  0.00  0.00    +0.000 A 
ATOM     33  C   UNL     1      -1.379  12.700  22.685  0.00  0.00    +0.000 A 
ATOM     34  N   UNL     1      -0.210  12.442  21.940  0.00  0.00    +0.000 N 
ENDBRANCH  22  23
ENDBRANCH  21  22
ENDBRANCH  20  21
ENDBRANCH   2  20
TORSDOF 6
ENDMDL
MODEL 5
REMARK VINA RESULT:      -8.4      2.277      2.506
REMARK  Name = 
REMARK  6 active torsions:
REMARK  status: ('A' for Active; 'I' for Inactive)
REMARK    1  A    between atoms: C_2  and  C_3
REMARK    2  A    between atoms: C_3  and  C_4
REMARK    3  A    between atoms: C_4  and  S_5
REMARK    4  A    between atoms: S_5  and  C_6
REMARK    5  A    between atoms: N_18  and  C_28
REMARK    6  A    between atoms: N_21  and  C_22
REMARK                            x       y       z     vdW  Elec       q    Type
REMARK                         _______ _______ _______ _____ _____    ______ ____
ROOT
ATOM      1  O   UNL     1       1.267   6.049  20.796  0.00  0.00    +0.000 OA
ATOM      2  C   UNL     1       1.988   6.627  19.978  0.00  0.00    +0.000 C 
ATOM      3  N   UNL     1       3.039   5.983  19.259  0.00  0.00    +0.000 N 
ATOM      4  C   UNL     1       3.875   6.694  18.342  0.00  0.00    +0.000 C 
ATOM      5  O   UNL     1       3.864   7.906  18.161  0.00  0.00    +0.000 OA
ATOM      6  N   UNL     1       4.724   5.919  17.592  0.00  0.00    +0.000 N 
ATOM      7  H   UNL     1       5.057   5.053  17.961  0.00  0.00    +0.000 HD
ENDROOT
BRANCH   6   8
ATOM      8  C   UNL     1       5.584   6.423  16.542  0.00  0.00    +0.000 C 
ATOM      9  C   UNL     1       7.050   6.104  16.859  0.00  0.00    +0.000 C 
ATOM     10  C   UNL     1       7.358   4.606  16.777  0.00  0.00    +0.000 C 
ATOM     11  C   UNL     1       6.927   4.007  15.440  0.00  0.00    +0.000 C 
ATOM     12  C   UNL     1       5.462   4.293  15.129  0.00  0.00    +0.000 C 
ATOM     13  C   UNL     1       5.148   5.790  15.213  0.00  0.00    +0.000 C 
ENDBRANCH   6   8
BRANCH   3  14
ATOM     14  C   UNL     1       3.280   4.496  19.352  0.00  0.00    +0.000 C 
ATOM     15  C   UNL     1       3.010   3.672  20.608  0.00  0.00    +0.000 C 
ATOM     16  C   UNL     1       1.572   3.240  20.805  0.00  0.00    +0.000 C 
ATOM     17  C   UNL     1       0.823   2.837  19.537  0.00  0.00    +0.000 C 
ATOM     18  C   UNL     1       1.277   3.431  18.206  0.00  0.00    +0.000 C 
ATOM     19  C   UNL     1       2.763   3.706  18.125  0.00  0.00    +0.000 C 
ENDBRANCH   3  14
BRANCH   2  20
ATOM     20  C   UNL     1       1.779   8.144  19.802  0.00  0.00    +0.000 C 
BRANCH  20  21
ATOM     21  C   UNL     1       0.517   8.790  20.404  0.00  0.00    +0.000 C 
BRANCH  21  22
ATOM     22  S   UNL     1       1.032   9.477  22.040  0.00  0.00    +0.000 S 
BRANCH  22  23
ATOM     23  C   UNL     1      -0.138  10.703  22.380  0.00  0.00    +0.000 A 
ATOM     24  N   UNL     1      -1.096  10.633  23.296  0.00  0.00    +0.000 NA
ATOM     25  N   UNL     1      -1.832  11.824  23.258  0.00  0.00    +0.000 NA
ATOM     26  C   UNL     1      -1.274  12.548  22.331  0.00  0.00    +0.000 A 
ATOM     27  S   UNL     1      -1.582  14.124  21.685  0.00  0.00    +0.000 S 
ATOM     28  C   UNL     1      -0.216  13.866  20.551  0.00  0.00    +0.000 A 
ATOM     29  C   UNL     1       0.221  14.760  19.578  0.00  0.00    +0.000 A 
ATOM     30  C   UNL     1       1.302  14.385  18.778  0.00  0.00    +0.000 A 
ATOM     31  C   UNL     1       1.925  13.135  18.948  0.00  0.00    +0.000 A 
ATOM     32  C   UNL     1       1.480  12.235  19.929  0.00  0.00    +0.000 A 
ATOM     33  C   UNL     1       0.407  12.618  20.705  0.00  0.00    +0.000 A 
ATOM     34  N   UNL     1      -0.228  11.899  21.738  0.00  0.00    +0.000 N 
ENDBRANCH  22  23
ENDBRANCH  21  22
ENDBRANCH  20  21
ENDBRANCH   2  20
TORSDOF 6
ENDMDL
MODEL 6
REMARK VINA RESULT:      -8.4      1.208      1.722
REMARK  Name = 
REMARK  6 active torsions:
REMARK  status: ('A' for Active; 'I' for Inactive)
REMARK    1  A    between atoms: C_2  and  C_3
REMARK    2  A    between atoms: C_3  and  C_4
REMARK    3  A    between atoms: C_4  and  S_5
REMARK    4  A    between atoms: S_5  and  C_6
REMARK    5  A    between atoms: N_18  and  C_28
REMARK    6  A    between atoms: N_21  and  C_22
REMARK                            x       y       z     vdW  Elec       q    Type
REMARK                         _______ _______ _______ _____ _____    ______ ____
ROOT
ATOM      1  O   UNL     1       0.657   4.829  20.370  0.00  0.00    +0.000 OA
ATOM      2  C   UNL     1       1.611   5.519  19.998  0.00  0.00    +0.000 C 
ATOM      3  N   UNL     1       2.414   5.208  18.860  0.00  0.00    +0.000 N 
ATOM      4  C   UNL     1       3.531   6.015  18.480  0.00  0.00    +0.000 C 
ATOM      5  O   UNL     1       3.981   6.957  19.120  0.00  0.00    +0.000 OA
ATOM      6  N   UNL     1       4.103   5.702  17.270  0.00  0.00    +0.000 N 
ATOM      7  H   UNL     1       4.060   4.764  16.933  0.00  0.00    +0.000 HD
ENDROOT
BRANCH   6   8
ATOM      8  C   UNL     1       5.179   6.449  16.653  0.00  0.00    +0.000 C 
ATOM      9  C   UNL     1       6.514   6.104  17.323  0.00  0.00    +0.000 C 
ATOM     10  C   UNL     1       6.967   4.670  17.031  0.00  0.00    +0.000 C 
ATOM     11  C   UNL     1       6.993   4.374  15.534  0.00  0.00    +0.000 C 
ATOM     12  C   UNL     1       5.659   4.684  14.864  0.00  0.00    +0.000 C 
ATOM     13  C   UNL     1       5.201   6.117  15.155  0.00  0.00    +0.000 C 
ENDBRANCH   6   8
BRANCH   3  14
ATOM     14  C   UNL     1       2.084   4.061  17.936  0.00  0.00    +0.000 C 
ATOM     15  C   UNL     1       3.105   3.391  17.021  0.00  0.00    +0.000 C 
ATOM     16  C   UNL     1       3.973   2.337  17.677  0.00  0.00    +0.000 C 
ATOM     17  C   UNL     1       3.272   1.450  18.703  0.00  0.00    +0.000 C 
ATOM     18  C   UNL     1       2.046   2.002  19.425  0.00  0.00    +0.000 C 
ATOM     19  C   UNL     1       1.218   2.961  18.597  0.00  0.00    +0.000 C 
ENDBRANCH   3  14
BRANCH   2  20
ATOM     20  C   UNL     1       1.988   6.730  20.874  0.00  0.00    +0.000 C 
BRANCH  20  21
ATOM     21  C   UNL     1       0.901   7.769  21.205  0.00  0.00    +0.000 C 
BRANCH  21  22
ATOM     22  S   UNL     1       1.199   9.192  20.066  0.00  0.00    +0.000 S 
BRANCH  22  23
ATOM     23  C   UNL     1       0.180  10.450  20.672  0.00  0.00    +0.000 A 
ATOM     24  N   UNL     1       0.321  11.074  21.836  0.00  0.00    +0.000 NA
ATOM     25  N   UNL     1      -0.703  12.022  21.955  0.00  0.00    +0.000 NA
ATOM     26  C   UNL     1      -1.396  11.926  20.858  0.00  0.00    +0.000 A 
ATOM     27  S   UNL     1      -2.795  12.738  20.242  0.00  0.00    +0.000 S 
ATOM     28  C   UNL     1      -2.698  11.689  18.791  0.00  0.00    +0.000 A 
ATOM     29  C   UNL     1      -3.574  11.704  17.709  0.00  0.00    +0.000 A 
ATOM     30  C   UNL     1      -3.344  10.806  16.665  0.00  0.00    +0.000 A 
ATOM     31  C   UNL     1      -2.262   9.907  16.711  0.00  0.00    +0.000 A 
ATOM     32  C   UNL     1      -1.383   9.893  17.806  0.00  0.00    +0.000 A 
ATOM     33  C   UNL     1      -1.627  10.781  18.831  0.00  0.00    +0.000 A 
ATOM     34  N   UNL     1      -0.907  10.956  20.029  0.00  0.00    +0.000 N 
ENDBRANCH  22  23
ENDBRANCH  21  22
ENDBRANCH  20  21
ENDBRANCH   2  20
TORSDOF 6
ENDMDL
MODEL 7
REMARK VINA RESULT:      -8.4      1.324      2.653
REMARK  Name = 
REMARK  6 active torsions:
REMARK  status: ('A' for Active; 'I' for Inactive)
REMARK    1  A    between atoms: C_2  and  C_3
REMARK    2  A    between atoms: C_3  and  C_4
REMARK    3  A    between atoms: C_4  and  S_5
REMARK    4  A    between atoms: S_5  and  C_6
REMARK    5  A    between atoms: N_18  and  C_28
REMARK    6  A    between atoms: N_21  and  C_22
REMARK                            x       y       z     vdW  Elec       q    Type
REMARK                         _______ _______ _______ _____ _____    ______ ____
ROOT
ATOM      1  O   UNL     1       1.369   5.429  20.835  0.00  0.00    +0.000 OA
ATOM      2  C   UNL     1       2.065   6.114  20.081  0.00  0.00    +0.000 C 
ATOM      3  N   UNL     1       3.095   5.576  19.250  0.00  0.00    +0.000 N 
ATOM      4  C   UNL     1       3.902   6.407  18.412  0.00  0.00    +0.000 C 
ATOM      5  O   UNL     1       3.886   7.632  18.396  0.00  0.00    +0.000 OA
ATOM      6  N   UNL     1       4.728   5.743  17.540  0.00  0.00    +0.000 N 
ATOM      7  H   UNL     1       5.072   4.836  17.779  0.00  0.00    +0.000 HD
ENDROOT
BRANCH   6   8
ATOM      8  C   UNL     1       5.556   6.386  16.541  0.00  0.00    +0.000 C 
ATOM      9  C   UNL     1       7.037   6.106  16.821  0.00  0.00    +0.000 C 
ATOM     10  C   UNL     1       7.413   4.639  16.592  0.00  0.00    +0.000 C 
ATOM     11  C   UNL     1       7.000   4.154  15.204  0.00  0.00    +0.000 C 
ATOM     12  C   UNL     1       5.521   4.401  14.928  0.00  0.00    +0.000 C 
ATOM     13  C   UNL     1       5.139   5.866  15.158  0.00  0.00    +0.000 C 
ENDBRANCH   6   8
BRANCH   3  14
ATOM     14  C   UNL     1       3.337   4.091  19.136  0.00  0.00    +0.000 C 
ATOM     15  C   UNL     1       3.304   3.134  20.324  0.00  0.00    +0.000 C 
ATOM     16  C   UNL     1       1.927   2.664  20.742  0.00  0.00    +0.000 C 
ATOM     17  C   UNL     1       0.948   2.390  19.603  0.00  0.00    +0.000 C 
ATOM     18  C   UNL     1       1.146   3.128  18.281  0.00  0.00    +0.000 C 
ATOM     19  C   UNL     1       2.592   3.430  17.951  0.00  0.00    +0.000 C 
ENDBRANCH   3  14
BRANCH   2  20
ATOM     20  C   UNL     1       1.851   7.641  20.116  0.00  0.00    +0.000 C 
BRANCH  20  21
ATOM     21  C   UNL     1       0.950   8.234  21.214  0.00  0.00    +0.000 C 
BRANCH  21  22
ATOM     22  S   UNL     1       1.063  10.068  21.023  0.00  0.00    +0.000 S 
BRANCH  22  23
ATOM     23  C   UNL     1      -0.195  10.463  19.904  0.00  0.00    +0.000 A 
ATOM     24  N   UNL     1      -0.288  10.030  18.653  0.00  0.00    +0.000 NA
ATOM     25  N   UNL     1      -1.445  10.577  18.082  0.00  0.00    +0.000 NA
ATOM     26  C   UNL     1      -1.989  11.297  19.020  0.00  0.00    +0.000 A 
ATOM     27  S   UNL     1      -3.414  12.274  19.114  0.00  0.00    +0.000 S 
ATOM     28  C   UNL     1      -2.962  12.674  20.803  0.00  0.00    +0.000 A 
ATOM     29  C   UNL     1      -3.664  13.516  21.662  0.00  0.00    +0.000 A 
ATOM     30  C   UNL     1      -3.156  13.717  22.946  0.00  0.00    +0.000 A 
ATOM     31  C   UNL     1      -1.964  13.089  23.357  0.00  0.00    +0.000 A 
ATOM     32  C   UNL     1      -1.258  12.243  22.487  0.00  0.00    +0.000 A 
ATOM     33  C   UNL     1      -1.770  12.062  21.220  0.00  0.00    +0.000 A 
ATOM     34  N   UNL     1      -1.250  11.280  20.169  0.00  0.00    +0.000 N 
ENDBRANCH  22  23
ENDBRANCH  21  22
ENDBRANCH  20  21
ENDBRANCH   2  20
TORSDOF 6
ENDMDL
MODEL 8
REMARK VINA RESULT:      -8.4      1.376      2.500
REMARK  Name = 
REMARK  6 active torsions:
REMARK  status: ('A' for Active; 'I' for Inactive)
REMARK    1  A    between atoms: C_2  and  C_3
REMARK    2  A    between atoms: C_3  and  C_4
REMARK    3  A    between atoms: C_4  and  S_5
REMARK    4  A    between atoms: S_5  and  C_6
REMARK    5  A    between atoms: N_18  and  C_28
REMARK    6  A    between atoms: N_21  and  C_22
REMARK                            x       y       z     vdW  Elec       q    Type
REMARK                         _______ _______ _______ _____ _____    ______ ____
ROOT
ATOM      1  O   UNL     1       1.262   6.731  21.044  0.00  0.00    +0.000 OA
ATOM      2  C   UNL     1       1.890   7.173  20.078  0.00  0.00    +0.000 C 
ATOM      3  N   UNL     1       2.844   6.410  19.339  0.00  0.00    +0.000 N 
ATOM      4  C   UNL     1       3.575   6.968  18.245  0.00  0.00    +0.000 C 
ATOM      5  O   UNL     1       3.556   8.144  17.900  0.00  0.00    +0.000 OA
ATOM      6  N   UNL     1       4.324   6.076  17.517  0.00  0.00    +0.000 N 
ATOM      7  H   UNL     1       4.689   5.260  17.962  0.00  0.00    +0.000 HD
ENDROOT
BRANCH   6   8
ATOM      8  C   UNL     1       5.062   6.411  16.317  0.00  0.00    +0.000 C 
ATOM      9  C   UNL     1       6.489   6.842  16.676  0.00  0.00    +0.000 C 
ATOM     10  C   UNL     1       7.337   5.685  17.211  0.00  0.00    +0.000 C 
ATOM     11  C   UNL     1       7.332   4.487  16.265  0.00  0.00    +0.000 C 
ATOM     12  C   UNL     1       5.917   4.031  15.926  0.00  0.00    +0.000 C 
ATOM     13  C   UNL     1       5.063   5.186  15.392  0.00  0.00    +0.000 C 
ENDBRANCH   6   8
BRANCH   3  14
ATOM     14  C   UNL     1       3.079   4.943  19.609  0.00  0.00    +0.000 C 
ATOM     15  C   UNL     1       2.514   4.205  20.819  0.00  0.00    +0.000 C 
ATOM     16  C   UNL     1       1.081   3.736  20.683  0.00  0.00    +0.000 C 
ATOM     17  C   UNL     1       0.684   3.214  19.304  0.00  0.00    +0.000 C 
ATOM     18  C   UNL     1       1.450   3.724  18.086  0.00  0.00    +0.000 C 
ATOM     19  C   UNL     1       2.903   4.048  18.359  0.00  0.00    +0.000 C 
ENDBRANCH   3  14
BRANCH   2  20
ATOM     20  C   UNL     1       1.677   8.657  19.719  0.00  0.00    +0.000 C 
BRANCH  20  21
ATOM     21  C   UNL     1       0.253   9.237  19.792  0.00  0.00    +0.000 C 
BRANCH  21  22
ATOM     22  S   UNL     1       0.177  10.554  18.498  0.00  0.00    +0.000 S 
BRANCH  22  23
ATOM     23  C   UNL     1      -1.426  10.439  17.860  0.00  0.00    +0.000 A 
ATOM     24  N   UNL     1      -1.796   9.719  16.808  0.00  0.00    +0.000 NA
ATOM     25  N   UNL     1      -3.172   9.894  16.615  0.00  0.00    +0.000 NA
ATOM     26  C   UNL     1      -3.557  10.698  17.563  0.00  0.00    +0.000 A 
ATOM     27  S   UNL     1      -5.079  11.389  18.012  0.00  0.00    +0.000 S 
ATOM     28  C   UNL     1      -4.236  12.246  19.343  0.00  0.00    +0.000 A 
ATOM     29  C   UNL     1      -4.820  13.119  20.256  0.00  0.00    +0.000 A 
ATOM     30  C   UNL     1      -4.002  13.702  21.225  0.00  0.00    +0.000 A 
ATOM     31  C   UNL     1      -2.624  13.418  21.271  0.00  0.00    +0.000 A 
ATOM     32  C   UNL     1      -2.038  12.540  20.347  0.00  0.00    +0.000 A 
ATOM     33  C   UNL     1      -2.858  11.979  19.392  0.00  0.00    +0.000 A 
ATOM     34  N   UNL     1      -2.515  11.085  18.358  0.00  0.00    +0.000 N 
ENDBRANCH  22  23
ENDBRANCH  21  22
ENDBRANCH  20  21
ENDBRANCH   2  20
TORSDOF 6
ENDMDL
MODEL 9
REMARK VINA RESULT:      -8.4      2.227      3.212
REMARK  Name = 
REMARK  6 active torsions:
REMARK  status: ('A' for Active; 'I' for Inactive)
REMARK    1  A    between atoms: C_2  and  C_3
REMARK    2  A    between atoms: C_3  and  C_4
REMARK    3  A    between atoms: C_4  and  S_5
REMARK    4  A    between atoms: S_5  and  C_6
REMARK    5  A    between atoms: N_18  and  C_28
REMARK    6  A    between atoms: N_21  and  C_22
REMARK                            x       y       z     vdW  Elec       q    Type
REMARK                         _______ _______ _______ _____ _____    ______ ____
ROOT
ATOM      1  O   UNL     1       1.218   6.406  20.855  0.00  0.00    +0.000 OA
ATOM      2  C   UNL     1       1.914   6.914  19.972  0.00  0.00    +0.000 C 
ATOM      3  N   UNL     1       2.960   6.220  19.292  0.00  0.00    +0.000 N 
ATOM      4  C   UNL     1       3.766   6.854  18.296  0.00  0.00    +0.000 C 
ATOM      5  O   UNL     1       3.735   8.044  18.005  0.00  0.00    +0.000 OA
ATOM      6  N   UNL     1       4.611   6.023  17.602  0.00  0.00    +0.000 N 
ATOM      7  H   UNL     1       4.963   5.198  18.041  0.00  0.00    +0.000 HD
ENDROOT
BRANCH   6   8
ATOM      8  C   UNL     1       5.443   6.439  16.492  0.00  0.00    +0.000 C 
ATOM      9  C   UNL     1       6.924   6.352  16.878  0.00  0.00    +0.000 C 
ATOM     10  C   UNL     1       7.402   4.908  17.059  0.00  0.00    +0.000 C 
ATOM     11  C   UNL     1       7.086   4.046  15.840  0.00  0.00    +0.000 C 
ATOM     12  C   UNL     1       5.608   4.101  15.466  0.00  0.00    +0.000 C 
ATOM     13  C   UNL     1       5.124   5.544  15.286  0.00  0.00    +0.000 C 
ENDBRANCH   6   8
BRANCH   3  14
ATOM     14  C   UNL     1       3.222   4.750  19.515  0.00  0.00    +0.000 C 
ATOM     15  C   UNL     1       2.866   4.013  20.803  0.00  0.00    +0.000 C 
ATOM     16  C   UNL     1       1.426   3.558  20.914  0.00  0.00    +0.000 C 
ATOM     17  C   UNL     1       0.795   3.044  19.622  0.00  0.00    +0.000 C 
ATOM     18  C   UNL     1       1.346   3.551  18.292  0.00  0.00    +0.000 C 
ATOM     19  C   UNL     1       2.828   3.860  18.313  0.00  0.00    +0.000 C 
ENDBRANCH   3  14
BRANCH   2  20
ATOM     20  C   UNL     1       1.680   8.407  19.662  0.00  0.00    +0.000 C 
BRANCH  20  21
ATOM     21  C   UNL     1       0.567   9.151  20.420  0.00  0.00    +0.000 C 
BRANCH  21  22
ATOM     22  S   UNL     1      -0.087  10.416  19.243  0.00  0.00    +0.000 S 
BRANCH  22  23
ATOM     23  C   UNL     1       0.768  11.863  19.647  0.00  0.00    +0.000 A 
ATOM     24  N   UNL     1       1.854  12.323  19.038  0.00  0.00    +0.000 NA
ATOM     25  N   UNL     1       2.240  13.516  19.663  0.00  0.00    +0.000 NA
ATOM     26  C   UNL     1       1.364  13.714  20.604  0.00  0.00    +0.000 A 
ATOM     27  S   UNL     1       1.140  14.945  21.801  0.00  0.00    +0.000 S 
ATOM     28  C   UNL     1      -0.287  14.034  22.392  0.00  0.00    +0.000 A 
ATOM     29  C   UNL     1      -1.100  14.389  23.465  0.00  0.00    +0.000 A 
ATOM     30  C   UNL     1      -2.168  13.551  23.788  0.00  0.00    +0.000 A 
ATOM     31  C   UNL     1      -2.409  12.375  23.052  0.00  0.00    +0.000 A 
ATOM     32  C   UNL     1      -1.585  12.018  21.973  0.00  0.00    +0.000 A 
ATOM     33  C   UNL     1      -0.532  12.853  21.672  0.00  0.00    +0.000 A 
ATOM     34  N   UNL     1       0.435  12.714  20.656  0.00  0.00    +0.000 N 
ENDBRANCH  22  23
ENDBRANCH  21  22
ENDBRANCH  20  21
ENDBRANCH   2  20
TORSDOF 6
ENDMDL
