MODEL 1
REMARK VINA RESULT:      -7.8      0.000      0.000
REMARK  Name = 
REMARK  20 active torsions:
REMARK  status: ('A' for Active; 'I' for Inactive)
REMARK    1  A    between atoms: C_1  and  C_2
REMARK    2  A    between atoms: C_2  and  C_3
REMARK    3  A    between atoms: C_4  and  C_5
REMARK    4  A    between atoms: C_5  and  O_6
REMARK    5  A    between atoms: C_5  and  C_7
REMARK    6  A    between atoms: C_7  and  C_8
REMARK    7  A    between atoms: C_8  and  C_9
REMARK    8  A    between atoms: C_10  and  C_11
REMARK    9  A    between atoms: C_11  and  C_12
REMARK   10  A    between atoms: C_12  and  C_13
REMARK   11  A    between atoms: C_13  and  C_14
REMARK   12  A    between atoms: C_15  and  C_16
REMARK   13  A    between atoms: C_16  and  C_18
REMARK   14  A    between atoms: C_18  and  C_19
REMARK   15  A    between atoms: C_19  and  C_20
REMARK   16  A    between atoms: C_21  and  C_22
REMARK   17  A    between atoms: C_22  and  C_23
REMARK   18  A    between atoms: C_25  and  O_26
REMARK   19  A    between atoms: C_28  and  C_29
REMARK   20  A    between atoms: C_30  and  O_31
REMARK                            x       y       z     vdW  Elec       q    Type
REMARK                         _______ _______ _______ _____ _____    ______ ____
ROOT
ATOM      1  C   UNL     1       7.481   5.032  16.472  0.00  0.00    +0.000 C 
ATOM      2  O   UNL     1       7.892   4.343  17.405  0.00  0.00    +0.000 OA
ENDROOT
BRANCH   1   5
ATOM      3  C   UNL     1       6.089   4.380  14.479  0.00  0.00    +0.000 C 
ATOM      4  C   UNL     1       6.013   3.754  13.112  0.00  0.00    +0.000 C 
ATOM      5  C   UNL     1       7.285   4.445  15.104  0.00  0.00    +0.000 C 
BRANCH   3   6
ATOM      6  C   UNL     1       4.834   4.933  15.137  0.00  0.00    +0.000 C 
BRANCH   6   7
ATOM      7  C   UNL     1       4.284   4.202  16.359  0.00  0.00    +0.000 C 
BRANCH   7  10
ATOM      8  C   UNL     1       4.129   5.053  18.710  0.00  0.00    +0.000 C 
ATOM      9  C   UNL     1       5.015   3.937  19.196  0.00  0.00    +0.000 C 
ATOM     10  C   UNL     1       3.800   5.165  17.410  0.00  0.00    +0.000 C 
BRANCH   8  11
ATOM     11  C   UNL     1       3.582   6.020  19.737  0.00  0.00    +0.000 C 
BRANCH  11  12
ATOM     12  C   UNL     1       2.141   5.756  20.211  0.00  0.00    +0.000 C 
BRANCH  12  16
ATOM     13  C   UNL     1       1.396   2.318  21.925  0.00  0.00    +0.000 C 
ATOM     14  C   UNL     1       1.504   3.387  20.873  0.00  0.00    +0.000 C 
ATOM     15  C   UNL     1       1.000   3.047  19.499  0.00  0.00    +0.000 C 
ATOM     16  C   UNL     1       1.997   4.606  21.177  0.00  0.00    +0.000 C 
ENDBRANCH  12  16
BRANCH  12  17
ATOM     17  O   UNL     1       1.663   6.932  20.868  0.00  0.00    +0.000 OA
ATOM     18  H   UNL     1       1.750   7.666  20.239  0.00  0.00    +0.000 HD
ENDBRANCH  12  17
ENDBRANCH  11  12
ENDBRANCH   8  11
ENDBRANCH   7  10
ENDBRANCH   6   7
ENDBRANCH   3   6
ENDBRANCH   1   5
BRANCH   1  19
ATOM     19  C   UNL     1       7.110   6.497  16.671  0.00  0.00    +0.000 C 
BRANCH  19  20
ATOM     20  C   UNL     1       7.789   7.103  17.879  0.00  0.00    +0.000 C 
ATOM     21  C   UNL     1       7.893   6.249  19.119  0.00  0.00    +0.000 C 
ATOM     22  C   UNL     1       8.220   8.382  17.872  0.00  0.00    +0.000 C 
BRANCH  22  23
ATOM     23  C   UNL     1       8.866   9.097  19.035  0.00  0.00    +0.000 C 
BRANCH  23  24
ATOM     24  C   UNL     1       9.026  10.584  18.794  0.00  0.00    +0.000 A 
ATOM     25  C   UNL     1       8.231  11.212  17.823  0.00  0.00    +0.000 A 
ATOM     26  C   UNL     1       8.350  12.579  17.602  0.00  0.00    +0.000 A 
ATOM     27  C   UNL     1       9.250  13.344  18.334  0.00  0.00    +0.000 A 
ATOM     28  C   UNL     1      10.059  12.748  19.311  0.00  0.00    +0.000 A 
ATOM     29  C   UNL     1      11.011  13.608  20.093  0.00  0.00    +0.000 C 
ATOM     30  C   UNL     1       9.942  11.363  19.525  0.00  0.00    +0.000 A 
BRANCH  26  31
ATOM     31  O   UNL     1       7.589  13.215  16.665  0.00  0.00    +0.000 OA
ATOM     32  H   UNL     1       8.084  13.241  15.832  0.00  0.00    +0.000 HD
ENDBRANCH  26  31
BRANCH  30  33
ATOM     33  O   UNL     1      10.714  10.723  20.456  0.00  0.00    +0.000 OA
ATOM     34  H   UNL     1      11.614  11.083  20.441  0.00  0.00    +0.000 HD
ENDBRANCH  30  33
ENDBRANCH  23  24
ENDBRANCH  22  23
ENDBRANCH  19  20
ENDBRANCH   1  19
TORSDOF 14
ENDMDL
MODEL 2
REMARK VINA RESULT:      -7.5      2.216      3.569
REMARK  Name = 
REMARK  20 active torsions:
REMARK  status: ('A' for Active; 'I' for Inactive)
REMARK    1  A    between atoms: C_1  and  C_2
REMARK    2  A    between atoms: C_2  and  C_3
REMARK    3  A    between atoms: C_4  and  C_5
REMARK    4  A    between atoms: C_5  and  O_6
REMARK    5  A    between atoms: C_5  and  C_7
REMARK    6  A    between atoms: C_7  and  C_8
REMARK    7  A    between atoms: C_8  and  C_9
REMARK    8  A    between atoms: C_10  and  C_11
REMARK    9  A    between atoms: C_11  and  C_12
REMARK   10  A    between atoms: C_12  and  C_13
REMARK   11  A    between atoms: C_13  and  C_14
REMARK   12  A    between atoms: C_15  and  C_16
REMARK   13  A    between atoms: C_16  and  C_18
REMARK   14  A    between atoms: C_18  and  C_19
REMARK   15  A    between atoms: C_19  and  C_20
REMARK   16  A    between atoms: C_21  and  C_22
REMARK   17  A    between atoms: C_22  and  C_23
REMARK   18  A    between atoms: C_25  and  O_26
REMARK   19  A    between atoms: C_28  and  C_29
REMARK   20  A    between atoms: C_30  and  O_31
REMARK                            x       y       z     vdW  Elec       q    Type
REMARK                         _______ _______ _______ _____ _____    ______ ____
ROOT
ATOM      1  C   UNL     1       7.124   6.924  17.129  0.00  0.00    +0.000 C 
ATOM      2  O   UNL     1       7.668   6.302  16.216  0.00  0.00    +0.000 OA
ENDROOT
BRANCH   1   5
ATOM      3  C   UNL     1       4.767   6.586  17.941  0.00  0.00    +0.000 C 
ATOM      4  C   UNL     1       3.303   6.920  17.820  0.00  0.00    +0.000 C 
ATOM      5  C   UNL     1       5.647   7.187  17.112  0.00  0.00    +0.000 C 
BRANCH   3   6
ATOM      6  C   UNL     1       5.238   5.590  18.989  0.00  0.00    +0.000 C 
BRANCH   6   7
ATOM      7  C   UNL     1       5.690   4.211  18.515  0.00  0.00    +0.000 C 
BRANCH   7  10
ATOM      8  C   UNL     1       3.680   2.775  18.097  0.00  0.00    +0.000 C 
ATOM      9  C   UNL     1       3.465   3.426  16.757  0.00  0.00    +0.000 C 
ATOM     10  C   UNL     1       4.701   3.142  18.894  0.00  0.00    +0.000 C 
BRANCH   8  11
ATOM     11  C   UNL     1       2.684   1.725  18.542  0.00  0.00    +0.000 C 
BRANCH  11  12
ATOM     12  C   UNL     1       1.391   2.254  19.188  0.00  0.00    +0.000 C 
BRANCH  12  16
ATOM     13  C   UNL     1       1.670   5.849  20.707  0.00  0.00    +0.000 C 
ATOM     14  C   UNL     1       1.743   4.353  20.575  0.00  0.00    +0.000 C 
ATOM     15  C   UNL     1       2.202   3.582  21.781  0.00  0.00    +0.000 C 
ATOM     16  C   UNL     1       1.372   3.742  19.430  0.00  0.00    +0.000 C 
ENDBRANCH  12  16
BRANCH  12  17
ATOM     17  O   UNL     1       0.298   1.944  18.321  0.00  0.00    +0.000 OA
ATOM     18  H   UNL     1       0.666   1.811  17.433  0.00  0.00    +0.000 HD
ENDBRANCH  12  17
ENDBRANCH  11  12
ENDBRANCH   8  11
ENDBRANCH   7  10
ENDBRANCH   6   7
ENDBRANCH   3   6
ENDBRANCH   1   5
BRANCH   1  19
ATOM     19  C   UNL     1       7.914   7.414  18.337  0.00  0.00    +0.000 C 
BRANCH  19  20
ATOM     20  C   UNL     1       8.248   8.886  18.246  0.00  0.00    +0.000 C 
ATOM     21  C   UNL     1       7.452   9.721  17.273  0.00  0.00    +0.000 C 
ATOM     22  C   UNL     1       9.268   9.417  18.952  0.00  0.00    +0.000 C 
BRANCH  22  23
ATOM     23  C   UNL     1       9.715  10.859  18.901  0.00  0.00    +0.000 C 
BRANCH  23  24
ATOM     24  C   UNL     1       9.241  11.663  20.094  0.00  0.00    +0.000 A 
ATOM     25  C   UNL     1       9.022  11.012  21.319  0.00  0.00    +0.000 A 
ATOM     26  C   UNL     1       8.605  11.738  22.428  0.00  0.00    +0.000 A 
ATOM     27  C   UNL     1       8.401  13.110  22.348  0.00  0.00    +0.000 A 
ATOM     28  C   UNL     1       8.610  13.790  21.140  0.00  0.00    +0.000 A 
ATOM     29  C   UNL     1       8.393  15.276  21.094  0.00  0.00    +0.000 C 
ATOM     30  C   UNL     1       9.023  13.051  20.018  0.00  0.00    +0.000 A 
BRANCH  26  31
ATOM     31  O   UNL     1       8.387  11.131  23.630  0.00  0.00    +0.000 OA
ATOM     32  H   UNL     1       8.543  11.778  24.335  0.00  0.00    +0.000 HD
ENDBRANCH  26  31
BRANCH  30  33
ATOM     33  O   UNL     1       9.230  13.658  18.809  0.00  0.00    +0.000 OA
ATOM     34  H   UNL     1       9.421  14.599  18.941  0.00  0.00    +0.000 HD
ENDBRANCH  30  33
ENDBRANCH  23  24
ENDBRANCH  22  23
ENDBRANCH  19  20
ENDBRANCH   1  19
TORSDOF 14
ENDMDL
MODEL 3
REMARK VINA RESULT:      -7.3      4.258      8.073
REMARK  Name = 
REMARK  20 active torsions:
REMARK  status: ('A' for Active; 'I' for Inactive)
REMARK    1  A    between atoms: C_1  and  C_2
REMARK    2  A    between atoms: C_2  and  C_3
REMARK    3  A    between atoms: C_4  and  C_5
REMARK    4  A    between atoms: C_5  and  O_6
REMARK    5  A    between atoms: C_5  and  C_7
REMARK    6  A    between atoms: C_7  and  C_8
REMARK    7  A    between atoms: C_8  and  C_9
REMARK    8  A    between atoms: C_10  and  C_11
REMARK    9  A    between atoms: C_11  and  C_12
REMARK   10  A    between atoms: C_12  and  C_13
REMARK   11  A    between atoms: C_13  and  C_14
REMARK   12  A    between atoms: C_15  and  C_16
REMARK   13  A    between atoms: C_16  and  C_18
REMARK   14  A    between atoms: C_18  and  C_19
REMARK   15  A    between atoms: C_19  and  C_20
REMARK   16  A    between atoms: C_21  and  C_22
REMARK   17  A    between atoms: C_22  and  C_23
REMARK   18  A    between atoms: C_25  and  O_26
REMARK   19  A    between atoms: C_28  and  C_29
REMARK   20  A    between atoms: C_30  and  O_31
REMARK                            x       y       z     vdW  Elec       q    Type
REMARK                         _______ _______ _______ _____ _____    ______ ____
ROOT
ATOM      1  C   UNL     1       1.828   6.337  20.500  0.00  0.00    +0.000 C 
ATOM      2  O   UNL     1       1.090   7.150  21.055  0.00  0.00    +0.000 OA
ENDROOT
BRANCH   1   5
ATOM      3  C   UNL     1       1.774   3.852  20.894  0.00  0.00    +0.000 C 
ATOM      4  C   UNL     1       2.265   2.662  21.674  0.00  0.00    +0.000 C 
ATOM      5  C   UNL     1       2.254   5.078  21.197  0.00  0.00    +0.000 C 
BRANCH   3   6
ATOM      6  C   UNL     1       0.757   3.667  19.778  0.00  0.00    +0.000 C 
BRANCH   6   7
ATOM      7  C   UNL     1       1.116   2.726  18.631  0.00  0.00    +0.000 C 
BRANCH   7  10
ATOM      8  C   UNL     1       3.423   2.966  17.683  0.00  0.00    +0.000 C 
ATOM      9  C   UNL     1       3.936   1.889  18.600  0.00  0.00    +0.000 C 
ATOM     10  C   UNL     1       2.131   3.343  17.705  0.00  0.00    +0.000 C 
BRANCH   8  11
ATOM     11  C   UNL     1       4.416   3.647  16.766  0.00  0.00    +0.000 C 
BRANCH  11  12
ATOM     12  C   UNL     1       4.581   5.166  16.958  0.00  0.00    +0.000 C 
BRANCH  12  16
ATOM     13  C   UNL     1       7.637   5.717  19.338  0.00  0.00    +0.000 C 
ATOM     14  C   UNL     1       6.819   5.283  18.153  0.00  0.00    +0.000 C 
ATOM     15  C   UNL     1       7.527   4.498  17.085  0.00  0.00    +0.000 C 
ATOM     16  C   UNL     1       5.500   5.560  18.087  0.00  0.00    +0.000 C 
ENDBRANCH  12  16
BRANCH  12  17
ATOM     17  O   UNL     1       5.119   5.713  15.752  0.00  0.00    +0.000 OA
ATOM     18  H   UNL     1       4.733   6.596  15.642  0.00  0.00    +0.000 HD
ENDBRANCH  12  17
ENDBRANCH  11  12
ENDBRANCH   8  11
ENDBRANCH   7  10
ENDBRANCH   6   7
ENDBRANCH   3   6
ENDBRANCH   1   5
BRANCH   1  19
ATOM     19  C   UNL     1       2.308   6.547  19.069  0.00  0.00    +0.000 C 
BRANCH  19  20
ATOM     20  C   UNL     1       2.178   7.987  18.625  0.00  0.00    +0.000 C 
ATOM     21  C   UNL     1       3.133   8.476  17.564  0.00  0.00    +0.000 C 
ATOM     22  C   UNL     1       1.293   8.822  19.208  0.00  0.00    +0.000 C 
BRANCH  22  23
ATOM     23  C   UNL     1       1.114  10.285  18.874  0.00  0.00    +0.000 C 
BRANCH  23  24
ATOM     24  C   UNL     1      -0.340  10.671  18.690  0.00  0.00    +0.000 A 
ATOM     25  C   UNL     1      -1.095  10.047  17.685  0.00  0.00    +0.000 A 
ATOM     26  C   UNL     1      -2.434  10.375  17.514  0.00  0.00    +0.000 A 
ATOM     27  C   UNL     1      -3.047  11.319  18.330  0.00  0.00    +0.000 A 
ATOM     28  C   UNL     1      -2.321  11.961  19.342  0.00  0.00    +0.000 A 
ATOM     29  C   UNL     1      -3.020  12.965  20.215  0.00  0.00    +0.000 C 
ATOM     30  C   UNL     1      -0.964  11.633  19.506  0.00  0.00    +0.000 A 
BRANCH  26  31
ATOM     31  O   UNL     1      -3.191   9.783  16.546  0.00  0.00    +0.000 OA
ATOM     32  H   UNL     1      -3.649   9.022  16.935  0.00  0.00    +0.000 HD
ENDBRANCH  26  31
BRANCH  30  33
ATOM     33  O   UNL     1      -0.201  12.236  20.469  0.00  0.00    +0.000 OA
ATOM     34  H   UNL     1       0.573  11.687  20.668  0.00  0.00    +0.000 HD
ENDBRANCH  30  33
ENDBRANCH  23  24
ENDBRANCH  22  23
ENDBRANCH  19  20
ENDBRANCH   1  19
TORSDOF 14
ENDMDL
MODEL 4
REMARK VINA RESULT:      -7.3      4.199      5.521
REMARK  Name = 
REMARK  20 active torsions:
REMARK  status: ('A' for Active; 'I' for Inactive)
REMARK    1  A    between atoms: C_1  and  C_2
REMARK    2  A    between atoms: C_2  and  C_3
REMARK    3  A    between atoms: C_4  and  C_5
REMARK    4  A    between atoms: C_5  and  O_6
REMARK    5  A    between atoms: C_5  and  C_7
REMARK    6  A    between atoms: C_7  and  C_8
REMARK    7  A    between atoms: C_8  and  C_9
REMARK    8  A    between atoms: C_10  and  C_11
REMARK    9  A    between atoms: C_11  and  C_12
REMARK   10  A    between atoms: C_12  and  C_13
REMARK   11  A    between atoms: C_13  and  C_14
REMARK   12  A    between atoms: C_15  and  C_16
REMARK   13  A    between atoms: C_16  and  C_18
REMARK   14  A    between atoms: C_18  and  C_19
REMARK   15  A    between atoms: C_19  and  C_20
REMARK   16  A    between atoms: C_21  and  C_22
REMARK   17  A    between atoms: C_22  and  C_23
REMARK   18  A    between atoms: C_25  and  O_26
REMARK   19  A    between atoms: C_28  and  C_29
REMARK   20  A    between atoms: C_30  and  O_31
REMARK                            x       y       z     vdW  Elec       q    Type
REMARK                         _______ _______ _______ _____ _____    ______ ____
ROOT
ATOM      1  C   UNL     1       5.230   6.200  16.968  0.00  0.00    +0.000 C 
ATOM      2  O   UNL     1       5.313   5.296  16.136  0.00  0.00    +0.000 OA
ENDROOT
BRANCH   1   5
ATOM      3  C   UNL     1       3.285   6.705  18.483  0.00  0.00    +0.000 C 
ATOM      4  C   UNL     1       2.567   6.455  19.782  0.00  0.00    +0.000 C 
ATOM      5  C   UNL     1       4.422   6.024  18.221  0.00  0.00    +0.000 C 
BRANCH   3   6
ATOM      6  C   UNL     1       2.728   7.707  17.483  0.00  0.00    +0.000 C 
BRANCH   6   7
ATOM      7  C   UNL     1       2.375   9.103  17.989  0.00  0.00    +0.000 C 
BRANCH   7  10
ATOM      8  C   UNL     1       0.205  10.010  18.854  0.00  0.00    +0.000 C 
ATOM      9  C   UNL     1       0.884  10.501  20.105  0.00  0.00    +0.000 C 
ATOM     10  C   UNL     1       0.897   9.371  17.892  0.00  0.00    +0.000 C 
BRANCH   8  11
ATOM     11  C   UNL     1      -1.289  10.216  18.732  0.00  0.00    +0.000 C 
BRANCH  11  12
ATOM     12  C   UNL     1      -1.735  11.494  17.997  0.00  0.00    +0.000 C 
BRANCH  12  16
ATOM     13  C   UNL     1       0.066  14.701  19.330  0.00  0.00    +0.000 C 
ATOM     14  C   UNL     1      -0.883  13.538  19.241  0.00  0.00    +0.000 C 
ATOM     15  C   UNL     1      -1.906  13.406  20.334  0.00  0.00    +0.000 C 
ATOM     16  C   UNL     1      -0.830  12.683  18.197  0.00  0.00    +0.000 C 
ENDBRANCH  12  16
BRANCH  12  17
ATOM     17  O   UNL     1      -1.774  11.214  16.596  0.00  0.00    +0.000 OA
ATOM     18  H   UNL     1      -2.683  11.376  16.297  0.00  0.00    +0.000 HD
ENDBRANCH  12  17
ENDBRANCH  11  12
ENDBRANCH   8  11
ENDBRANCH   7  10
ENDBRANCH   6   7
ENDBRANCH   3   6
ENDBRANCH   1   5
BRANCH   1  19
ATOM     19  C   UNL     1       5.976   7.516  16.788  0.00  0.00    +0.000 C 
BRANCH  19  20
ATOM     20  C   UNL     1       7.176   7.626  17.703  0.00  0.00    +0.000 C 
ATOM     21  C   UNL     1       7.631   6.371  18.407  0.00  0.00    +0.000 C 
ATOM     22  C   UNL     1       7.770   8.815  17.937  0.00  0.00    +0.000 C 
BRANCH  22  23
ATOM     23  C   UNL     1       8.941   9.044  18.864  0.00  0.00    +0.000 C 
BRANCH  23  24
ATOM     24  C   UNL     1       9.295  10.509  19.011  0.00  0.00    +0.000 A 
ATOM     25  C   UNL     1       9.507  11.284  17.859  0.00  0.00    +0.000 A 
ATOM     26  C   UNL     1       9.814  12.634  17.975  0.00  0.00    +0.000 A 
ATOM     27  C   UNL     1       9.914  13.239  19.222  0.00  0.00    +0.000 A 
ATOM     28  C   UNL     1       9.710  12.494  20.392  0.00  0.00    +0.000 A 
ATOM     29  C   UNL     1       9.812  13.184  21.722  0.00  0.00    +0.000 C 
ATOM     30  C   UNL     1       9.408  11.126  20.271  0.00  0.00    +0.000 A 
BRANCH  26  31
ATOM     31  O   UNL     1      10.023  13.410  16.873  0.00  0.00    +0.000 OA
ATOM     32  H   UNL     1      10.843  13.121  16.443  0.00  0.00    +0.000 HD
ENDBRANCH  26  31
BRANCH  30  33
ATOM     33  O   UNL     1       9.210  10.345  21.377  0.00  0.00    +0.000 OA
ATOM     34  H   UNL     1       9.143  10.903  22.167  0.00  0.00    +0.000 HD
ENDBRANCH  30  33
ENDBRANCH  23  24
ENDBRANCH  22  23
ENDBRANCH  19  20
ENDBRANCH   1  19
TORSDOF 14
ENDMDL
MODEL 5
REMARK VINA RESULT:      -7.3      4.087      7.230
REMARK  Name = 
REMARK  20 active torsions:
REMARK  status: ('A' for Active; 'I' for Inactive)
REMARK    1  A    between atoms: C_1  and  C_2
REMARK    2  A    between atoms: C_2  and  C_3
REMARK    3  A    between atoms: C_4  and  C_5
REMARK    4  A    between atoms: C_5  and  O_6
REMARK    5  A    between atoms: C_5  and  C_7
REMARK    6  A    between atoms: C_7  and  C_8
REMARK    7  A    between atoms: C_8  and  C_9
REMARK    8  A    between atoms: C_10  and  C_11
REMARK    9  A    between atoms: C_11  and  C_12
REMARK   10  A    between atoms: C_12  and  C_13
REMARK   11  A    between atoms: C_13  and  C_14
REMARK   12  A    between atoms: C_15  and  C_16
REMARK   13  A    between atoms: C_16  and  C_18
REMARK   14  A    between atoms: C_18  and  C_19
REMARK   15  A    between atoms: C_19  and  C_20
REMARK   16  A    between atoms: C_21  and  C_22
REMARK   17  A    between atoms: C_22  and  C_23
REMARK   18  A    between atoms: C_25  and  O_26
REMARK   19  A    between atoms: C_28  and  C_29
REMARK   20  A    between atoms: C_30  and  O_31
REMARK                            x       y       z     vdW  Elec       q    Type
REMARK                         _______ _______ _______ _____ _____    ______ ____
ROOT
ATOM      1  C   UNL     1       2.177   5.734  18.956  0.00  0.00    +0.000 C 
ATOM      2  O   UNL     1       1.892   5.522  17.778  0.00  0.00    +0.000 OA
ENDROOT
BRANCH   1   5
ATOM      3  C   UNL     1       2.755   3.719  20.348  0.00  0.00    +0.000 C 
ATOM      4  C   UNL     1       2.359   2.738  21.419  0.00  0.00    +0.000 C 
ATOM      5  C   UNL     1       1.898   4.708  20.016  0.00  0.00    +0.000 C 
BRANCH   3   6
ATOM      6  C   UNL     1       4.106   3.594  19.660  0.00  0.00    +0.000 C 
BRANCH   6   7
ATOM      7  C   UNL     1       4.197   2.716  18.415  0.00  0.00    +0.000 C 
BRANCH   7  10
ATOM      8  C   UNL     1       5.468   4.376  17.033  0.00  0.00    +0.000 C 
ATOM      9  C   UNL     1       6.484   4.546  18.132  0.00  0.00    +0.000 C 
ATOM     10  C   UNL     1       4.425   3.536  17.173  0.00  0.00    +0.000 C 
BRANCH   8  11
ATOM     11  C   UNL     1       5.631   5.213  15.784  0.00  0.00    +0.000 C 
BRANCH  11  12
ATOM     12  C   UNL     1       6.193   4.482  14.550  0.00  0.00    +0.000 C 
BRANCH  12  16
ATOM     13  C   UNL     1       4.306   3.177  11.381  0.00  0.00    +0.000 C 
ATOM     14  C   UNL     1       5.413   3.462  12.359  0.00  0.00    +0.000 C 
ATOM     15  C   UNL     1       6.794   3.008  11.979  0.00  0.00    +0.000 C 
ATOM     16  C   UNL     1       5.165   4.131  13.505  0.00  0.00    +0.000 C 
ENDBRANCH  12  16
BRANCH  12  17
ATOM     17  O   UNL     1       7.164   5.330  13.932  0.00  0.00    +0.000 OA
ATOM     18  H   UNL     1       6.881   5.466  13.014  0.00  0.00    +0.000 HD
ENDBRANCH  12  17
ENDBRANCH  11  12
ENDBRANCH   8  11
ENDBRANCH   7  10
ENDBRANCH   6   7
ENDBRANCH   3   6
ENDBRANCH   1   5
BRANCH   1  19
ATOM     19  C   UNL     1       2.866   7.024  19.387  0.00  0.00    +0.000 C 
BRANCH  19  20
ATOM     20  C   UNL     1       1.894   8.174  19.529  0.00  0.00    +0.000 C 
ATOM     21  C   UNL     1       1.197   8.335  20.858  0.00  0.00    +0.000 C 
ATOM     22  C   UNL     1       1.605   8.980  18.486  0.00  0.00    +0.000 C 
BRANCH  22  23
ATOM     23  C   UNL     1       0.619  10.124  18.506  0.00  0.00    +0.000 C 
BRANCH  23  24
ATOM     24  C   UNL     1       1.255  11.440  18.907  0.00  0.00    +0.000 A 
ATOM     25  C   UNL     1       2.295  11.968  18.126  0.00  0.00    +0.000 A 
ATOM     26  C   UNL     1       2.876  13.182  18.468  0.00  0.00    +0.000 A 
ATOM     27  C   UNL     1       2.441  13.893  19.581  0.00  0.00    +0.000 A 
ATOM     28  C   UNL     1       1.406  13.394  20.383  0.00  0.00    +0.000 A 
ATOM     29  C   UNL     1       0.952  14.196  21.569  0.00  0.00    +0.000 C 
ATOM     30  C   UNL     1       0.826  12.160  20.038  0.00  0.00    +0.000 A 
BRANCH  26  31
ATOM     31  O   UNL     1       3.887  13.719  17.726  0.00  0.00    +0.000 OA
ATOM     32  H   UNL     1       4.672  13.159  17.824  0.00  0.00    +0.000 HD
ENDBRANCH  26  31
BRANCH  30  33
ATOM     33  O   UNL     1      -0.180  11.616  20.790  0.00  0.00    +0.000 OA
ATOM     34  H   UNL     1      -0.016  11.784  21.730  0.00  0.00    +0.000 HD
ENDBRANCH  30  33
ENDBRANCH  23  24
ENDBRANCH  22  23
ENDBRANCH  19  20
ENDBRANCH   1  19
TORSDOF 14
ENDMDL
MODEL 6
REMARK VINA RESULT:      -7.2      4.876      7.134
REMARK  Name = 
REMARK  20 active torsions:
REMARK  status: ('A' for Active; 'I' for Inactive)
REMARK    1  A    between atoms: C_1  and  C_2
REMARK    2  A    between atoms: C_2  and  C_3
REMARK    3  A    between atoms: C_4  and  C_5
REMARK    4  A    between atoms: C_5  and  O_6
REMARK    5  A    between atoms: C_5  and  C_7
REMARK    6  A    between atoms: C_7  and  C_8
REMARK    7  A    between atoms: C_8  and  C_9
REMARK    8  A    between atoms: C_10  and  C_11
REMARK    9  A    between atoms: C_11  and  C_12
REMARK   10  A    between atoms: C_12  and  C_13
REMARK   11  A    between atoms: C_13  and  C_14
REMARK   12  A    between atoms: C_15  and  C_16
REMARK   13  A    between atoms: C_16  and  C_18
REMARK   14  A    between atoms: C_18  and  C_19
REMARK   15  A    between atoms: C_19  and  C_20
REMARK   16  A    between atoms: C_21  and  C_22
REMARK   17  A    between atoms: C_22  and  C_23
REMARK   18  A    between atoms: C_25  and  O_26
REMARK   19  A    between atoms: C_28  and  C_29
REMARK   20  A    between atoms: C_30  and  O_31
REMARK                            x       y       z     vdW  Elec       q    Type
REMARK                         _______ _______ _______ _____ _____    ______ ____
ROOT
ATOM      1  C   UNL     1       2.520   7.247  18.109  0.00  0.00    +0.000 C 
ATOM      2  O   UNL     1       1.707   6.398  17.743  0.00  0.00    +0.000 OA
ENDROOT
BRANCH   1   5
ATOM      3  C   UNL     1       4.946   6.645  17.827  0.00  0.00    +0.000 C 
ATOM      4  C   UNL     1       6.250   6.858  17.103  0.00  0.00    +0.000 C 
ATOM      5  C   UNL     1       3.865   7.363  17.454  0.00  0.00    +0.000 C 
BRANCH   3   6
ATOM      6  C   UNL     1       4.857   5.629  18.955  0.00  0.00    +0.000 C 
BRANCH   6   7
ATOM      7  C   UNL     1       5.518   4.269  18.748  0.00  0.00    +0.000 C 
BRANCH   7  10
ATOM      8  C   UNL     1       3.611   2.732  18.221  0.00  0.00    +0.000 C 
ATOM      9  C   UNL     1       3.417   3.395  16.883  0.00  0.00    +0.000 C 
ATOM     10  C   UNL     1       4.575   3.140  19.067  0.00  0.00    +0.000 C 
BRANCH   8  11
ATOM     11  C   UNL     1       2.658   1.621  18.604  0.00  0.00    +0.000 C 
BRANCH  11  12
ATOM     12  C   UNL     1       1.305   2.065  19.192  0.00  0.00    +0.000 C 
BRANCH  12  16
ATOM     13  C   UNL     1       1.482   5.507  21.045  0.00  0.00    +0.000 C 
ATOM     14  C   UNL     1       1.609   4.034  20.768  0.00  0.00    +0.000 C 
ATOM     15  C   UNL     1       2.122   3.171  21.885  0.00  0.00    +0.000 C 
ATOM     16  C   UNL     1       1.236   3.522  19.576  0.00  0.00    +0.000 C 
ENDBRANCH  12  16
BRANCH  12  17
ATOM     17  O   UNL     1       0.293   1.829  18.211  0.00  0.00    +0.000 OA
ATOM     18  H   UNL     1      -0.553   1.767  18.683  0.00  0.00    +0.000 HD
ENDBRANCH  12  17
ENDBRANCH  11  12
ENDBRANCH   8  11
ENDBRANCH   7  10
ENDBRANCH   6   7
ENDBRANCH   3   6
ENDBRANCH   1   5
BRANCH   1  19
ATOM     19  C   UNL     1       2.182   8.245  19.209  0.00  0.00    +0.000 C 
BRANCH  19  20
ATOM     20  C   UNL     1       1.294   9.366  18.716  0.00  0.00    +0.000 C 
ATOM     21  C   UNL     1       1.925  10.418  17.837  0.00  0.00    +0.000 C 
ATOM     22  C   UNL     1       0.006   9.462  19.108  0.00  0.00    +0.000 C 
BRANCH  22  23
ATOM     23  C   UNL     1      -0.952  10.561  18.714  0.00  0.00    +0.000 C 
BRANCH  23  24
ATOM     24  C   UNL     1      -0.746  11.833  19.511  0.00  0.00    +0.000 A 
ATOM     25  C   UNL     1      -0.620  11.757  20.907  0.00  0.00    +0.000 A 
ATOM     26  C   UNL     1      -0.412  12.911  21.651  0.00  0.00    +0.000 A 
ATOM     27  C   UNL     1      -0.322  14.153  21.033  0.00  0.00    +0.000 A 
ATOM     28  C   UNL     1      -0.444  14.264  19.642  0.00  0.00    +0.000 A 
ATOM     29  C   UNL     1      -0.328  15.621  19.007  0.00  0.00    +0.000 C 
ATOM     30  C   UNL     1      -0.664  13.095  18.893  0.00  0.00    +0.000 A 
BRANCH  26  31
ATOM     31  O   UNL     1      -0.285  12.865  23.009  0.00  0.00    +0.000 OA
ATOM     32  H   UNL     1       0.658  12.823  23.230  0.00  0.00    +0.000 HD
ENDBRANCH  26  31
BRANCH  30  33
ATOM     33  O   UNL     1      -0.804  13.142  17.532  0.00  0.00    +0.000 OA
ATOM     34  H   UNL     1      -1.398  13.868  17.287  0.00  0.00    +0.000 HD
ENDBRANCH  30  33
ENDBRANCH  23  24
ENDBRANCH  22  23
ENDBRANCH  19  20
ENDBRANCH   1  19
TORSDOF 14
ENDMDL
MODEL 7
REMARK VINA RESULT:      -7.1      2.847      4.293
REMARK  Name = 
REMARK  20 active torsions:
REMARK  status: ('A' for Active; 'I' for Inactive)
REMARK    1  A    between atoms: C_1  and  C_2
REMARK    2  A    between atoms: C_2  and  C_3
REMARK    3  A    between atoms: C_4  and  C_5
REMARK    4  A    between atoms: C_5  and  O_6
REMARK    5  A    between atoms: C_5  and  C_7
REMARK    6  A    between atoms: C_7  and  C_8
REMARK    7  A    between atoms: C_8  and  C_9
REMARK    8  A    between atoms: C_10  and  C_11
REMARK    9  A    between atoms: C_11  and  C_12
REMARK   10  A    between atoms: C_12  and  C_13
REMARK   11  A    between atoms: C_13  and  C_14
REMARK   12  A    between atoms: C_15  and  C_16
REMARK   13  A    between atoms: C_16  and  C_18
REMARK   14  A    between atoms: C_18  and  C_19
REMARK   15  A    between atoms: C_19  and  C_20
REMARK   16  A    between atoms: C_21  and  C_22
REMARK   17  A    between atoms: C_22  and  C_23
REMARK   18  A    between atoms: C_25  and  O_26
REMARK   19  A    between atoms: C_28  and  C_29
REMARK   20  A    between atoms: C_30  and  O_31
REMARK                            x       y       z     vdW  Elec       q    Type
REMARK                         _______ _______ _______ _____ _____    ______ ____
ROOT
ATOM      1  C   UNL     1       4.864   6.670  17.288  0.00  0.00    +0.000 C 
ATOM      2  O   UNL     1       4.387   7.733  17.686  0.00  0.00    +0.000 OA
ENDROOT
BRANCH   1   5
ATOM      3  C   UNL     1       3.310   4.977  18.312  0.00  0.00    +0.000 C 
ATOM      4  C   UNL     1       2.535   3.693  18.175  0.00  0.00    +0.000 C 
ATOM      5  C   UNL     1       4.042   5.415  17.265  0.00  0.00    +0.000 C 
BRANCH   3   6
ATOM      6  C   UNL     1       3.257   5.766  19.611  0.00  0.00    +0.000 C 
BRANCH   6   7
ATOM      7  C   UNL     1       1.902   6.296  20.072  0.00  0.00    +0.000 C 
BRANCH   7  10
ATOM      8  C   UNL     1       0.979   8.330  21.207  0.00  0.00    +0.000 C 
ATOM      9  C   UNL     1      -0.372   7.678  21.327  0.00  0.00    +0.000 C 
ATOM     10  C   UNL     1       2.013   7.690  20.631  0.00  0.00    +0.000 C 
BRANCH   8  11
ATOM     11  C   UNL     1       1.127   9.748  21.714  0.00  0.00    +0.000 C 
BRANCH  11  12
ATOM     12  C   UNL     1       1.038  10.858  20.650  0.00  0.00    +0.000 C 
BRANCH  12  16
ATOM     13  C   UNL     1      -1.354  10.154  17.635  0.00  0.00    +0.000 C 
ATOM     14  C   UNL     1      -0.112  10.205  18.481  0.00  0.00    +0.000 C 
ATOM     15  C   UNL     1       1.154   9.676  17.869  0.00  0.00    +0.000 C 
ATOM     16  C   UNL     1      -0.143  10.742  19.719  0.00  0.00    +0.000 C 
ENDBRANCH  12  16
BRANCH  12  17
ATOM     17  O   UNL     1       0.935  12.115  21.322  0.00  0.00    +0.000 OA
ATOM     18  H   UNL     1       1.139  12.805  20.672  0.00  0.00    +0.000 HD
ENDBRANCH  12  17
ENDBRANCH  11  12
ENDBRANCH   8  11
ENDBRANCH   7  10
ENDBRANCH   6   7
ENDBRANCH   3   6
ENDBRANCH   1   5
BRANCH   1  19
ATOM     19  C   UNL     1       6.291   6.589  16.760  0.00  0.00    +0.000 C 
BRANCH  19  20
ATOM     20  C   UNL     1       7.311   7.013  17.794  0.00  0.00    +0.000 C 
ATOM     21  C   UNL     1       7.679   6.010  18.860  0.00  0.00    +0.000 C 
ATOM     22  C   UNL     1       7.816   8.264  17.806  0.00  0.00    +0.000 C 
BRANCH  22  23
ATOM     23  C   UNL     1       8.801   8.804  18.817  0.00  0.00    +0.000 C 
BRANCH  23  24
ATOM     24  C   UNL     1       8.851  10.318  18.837  0.00  0.00    +0.000 A 
ATOM     25  C   UNL     1       8.343  11.037  17.744  0.00  0.00    +0.000 A 
ATOM     26  C   UNL     1       8.363  12.426  17.754  0.00  0.00    +0.000 A 
ATOM     27  C   UNL     1       8.880  13.124  18.839  0.00  0.00    +0.000 A 
ATOM     28  C   UNL     1       9.396  12.437  19.946  0.00  0.00    +0.000 A 
ATOM     29  C   UNL     1       9.934  13.224  21.107  0.00  0.00    +0.000 C 
ATOM     30  C   UNL     1       9.382  11.031  19.928  0.00  0.00    +0.000 A 
BRANCH  26  31
ATOM     31  O   UNL     1       7.875  13.150  16.706  0.00  0.00    +0.000 OA
ATOM     32  H   UNL     1       8.181  12.743  15.881  0.00  0.00    +0.000 HD
ENDBRANCH  26  31
BRANCH  30  33
ATOM     33  O   UNL     1       9.883  10.305  20.974  0.00  0.00    +0.000 OA
ATOM     34  H   UNL     1       9.190   9.735  21.341  0.00  0.00    +0.000 HD
ENDBRANCH  30  33
ENDBRANCH  23  24
ENDBRANCH  22  23
ENDBRANCH  19  20
ENDBRANCH   1  19
TORSDOF 14
ENDMDL
MODEL 8
REMARK VINA RESULT:      -7.1      5.624      9.441
REMARK  Name = 
REMARK  20 active torsions:
REMARK  status: ('A' for Active; 'I' for Inactive)
REMARK    1  A    between atoms: C_1  and  C_2
REMARK    2  A    between atoms: C_2  and  C_3
REMARK    3  A    between atoms: C_4  and  C_5
REMARK    4  A    between atoms: C_5  and  O_6
REMARK    5  A    between atoms: C_5  and  C_7
REMARK    6  A    between atoms: C_7  and  C_8
REMARK    7  A    between atoms: C_8  and  C_9
REMARK    8  A    between atoms: C_10  and  C_11
REMARK    9  A    between atoms: C_11  and  C_12
REMARK   10  A    between atoms: C_12  and  C_13
REMARK   11  A    between atoms: C_13  and  C_14
REMARK   12  A    between atoms: C_15  and  C_16
REMARK   13  A    between atoms: C_16  and  C_18
REMARK   14  A    between atoms: C_18  and  C_19
REMARK   15  A    between atoms: C_19  and  C_20
REMARK   16  A    between atoms: C_21  and  C_22
REMARK   17  A    between atoms: C_22  and  C_23
REMARK   18  A    between atoms: C_25  and  O_26
REMARK   19  A    between atoms: C_28  and  C_29
REMARK   20  A    between atoms: C_30  and  O_31
REMARK                            x       y       z     vdW  Elec       q    Type
REMARK                         _______ _______ _______ _____ _____    ______ ____
ROOT
ATOM      1  C   UNL     1       1.106   9.542  18.151  0.00  0.00    +0.000 C 
ATOM      2  O   UNL     1       2.160   9.607  17.517  0.00  0.00    +0.000 OA
ENDROOT
BRANCH   1   5
ATOM      3  C   UNL     1       1.230   8.621  20.489  0.00  0.00    +0.000 C 
ATOM      4  C   UNL     1       1.188   8.869  21.974  0.00  0.00    +0.000 C 
ATOM      5  C   UNL     1       1.095   9.668  19.646  0.00  0.00    +0.000 C 
BRANCH   3   6
ATOM      6  C   UNL     1       1.429   7.211  19.956  0.00  0.00    +0.000 C 
BRANCH   6   7
ATOM      7  C   UNL     1       1.663   6.090  20.966  0.00  0.00    +0.000 C 
BRANCH   7  10
ATOM      8  C   UNL     1       2.271   3.848  20.026  0.00  0.00    +0.000 C 
ATOM      9  C   UNL     1       0.827   3.421  20.052  0.00  0.00    +0.000 C 
ATOM     10  C   UNL     1       2.642   5.072  20.447  0.00  0.00    +0.000 C 
BRANCH   8  11
ATOM     11  C   UNL     1       3.298   2.842  19.555  0.00  0.00    +0.000 C 
BRANCH  11  12
ATOM     12  C   UNL     1       4.016   3.179  18.235  0.00  0.00    +0.000 C 
BRANCH  12  16
ATOM     13  C   UNL     1       6.781   5.947  18.213  0.00  0.00    +0.000 C 
ATOM     14  C   UNL     1       5.460   5.257  18.013  0.00  0.00    +0.000 C 
ATOM     15  C   UNL     1       4.374   6.043  17.335  0.00  0.00    +0.000 C 
ATOM     16  C   UNL     1       5.287   3.974  18.396  0.00  0.00    +0.000 C 
ENDBRANCH  12  16
BRANCH  12  17
ATOM     17  O   UNL     1       4.355   1.952  17.584  0.00  0.00    +0.000 OA
ATOM     18  H   UNL     1       4.443   1.277  18.275  0.00  0.00    +0.000 HD
ENDBRANCH  12  17
ENDBRANCH  11  12
ENDBRANCH   8  11
ENDBRANCH   7  10
ENDBRANCH   6   7
ENDBRANCH   3   6
ENDBRANCH   1   5
BRANCH   1  19
ATOM     19  C   UNL     1      -0.235   9.376  17.446  0.00  0.00    +0.000 C 
BRANCH  19  20
ATOM     20  C   UNL     1      -1.276  10.348  17.955  0.00  0.00    +0.000 C 
ATOM     21  C   UNL     1      -2.722   9.926  17.869  0.00  0.00    +0.000 C 
ATOM     22  C   UNL     1      -0.930  11.574  18.400  0.00  0.00    +0.000 C 
BRANCH  22  23
ATOM     23  C   UNL     1      -1.890  12.635  18.885  0.00  0.00    +0.000 C 
BRANCH  23  24
ATOM     24  C   UNL     1      -2.247  12.479  20.349  0.00  0.00    +0.000 A 
ATOM     25  C   UNL     1      -1.294  11.954  21.237  0.00  0.00    +0.000 A 
ATOM     26  C   UNL     1      -1.599  11.822  22.586  0.00  0.00    +0.000 A 
ATOM     27  C   UNL     1      -2.840  12.205  23.078  0.00  0.00    +0.000 A 
ATOM     28  C   UNL     1      -3.814  12.731  22.219  0.00  0.00    +0.000 A 
ATOM     29  C   UNL     1      -5.141  13.148  22.789  0.00  0.00    +0.000 C 
ATOM     30  C   UNL     1      -3.506  12.855  20.853  0.00  0.00    +0.000 A 
BRANCH  26  31
ATOM     31  O   UNL     1      -0.691  11.317  23.471  0.00  0.00    +0.000 OA
ATOM     32  H   UNL     1      -0.475  12.006  24.118  0.00  0.00    +0.000 HD
ENDBRANCH  26  31
BRANCH  30  33
ATOM     33  O   UNL     1      -4.420  13.351  19.963  0.00  0.00    +0.000 OA
ATOM     34  H   UNL     1      -5.222  12.807  19.978  0.00  0.00    +0.000 HD
ENDBRANCH  30  33
ENDBRANCH  23  24
ENDBRANCH  22  23
ENDBRANCH  19  20
ENDBRANCH   1  19
TORSDOF 14
ENDMDL
MODEL 9
REMARK VINA RESULT:      -7.1      5.434      8.449
REMARK  Name = 
REMARK  20 active torsions:
REMARK  status: ('A' for Active; 'I' for Inactive)
REMARK    1  A    between atoms: C_1  and  C_2
REMARK    2  A    between atoms: C_2  and  C_3
REMARK    3  A    between atoms: C_4  and  C_5
REMARK    4  A    between atoms: C_5  and  O_6
REMARK    5  A    between atoms: C_5  and  C_7
REMARK    6  A    between atoms: C_7  and  C_8
REMARK    7  A    between atoms: C_8  and  C_9
REMARK    8  A    between atoms: C_10  and  C_11
REMARK    9  A    between atoms: C_11  and  C_12
REMARK   10  A    between atoms: C_12  and  C_13
REMARK   11  A    between atoms: C_13  and  C_14
REMARK   12  A    between atoms: C_15  and  C_16
REMARK   13  A    between atoms: C_16  and  C_18
REMARK   14  A    between atoms: C_18  and  C_19
REMARK   15  A    between atoms: C_19  and  C_20
REMARK   16  A    between atoms: C_21  and  C_22
REMARK   17  A    between atoms: C_22  and  C_23
REMARK   18  A    between atoms: C_25  and  O_26
REMARK   19  A    between atoms: C_28  and  C_29
REMARK   20  A    between atoms: C_30  and  O_31
REMARK                            x       y       z     vdW  Elec       q    Type
REMARK                         _______ _______ _______ _____ _____    ______ ____
ROOT
ATOM      1  C   UNL     1       1.615   6.657  20.535  0.00  0.00    +0.000 C 
ATOM      2  O   UNL     1       1.278   7.412  21.448  0.00  0.00    +0.000 OA
ENDROOT
BRANCH   1   5
ATOM      3  C   UNL     1       2.106   8.268  18.666  0.00  0.00    +0.000 C 
ATOM      4  C   UNL     1       2.983   8.669  17.509  0.00  0.00    +0.000 C 
ATOM      5  C   UNL     1       2.420   7.161  19.373  0.00  0.00    +0.000 C 
BRANCH   3   6
ATOM      6  C   UNL     1       0.891   9.108  19.030  0.00  0.00    +0.000 C 
BRANCH   6   7
ATOM      7  C   UNL     1       0.064   9.700  17.892  0.00  0.00    +0.000 C 
BRANCH   7  10
ATOM      8  C   UNL     1      -2.271  10.593  17.720  0.00  0.00    +0.000 C 
ATOM      9  C   UNL     1      -2.437   9.960  16.365  0.00  0.00    +0.000 C 
ATOM     10  C   UNL     1      -1.122  10.469  18.411  0.00  0.00    +0.000 C 
BRANCH   8  11
ATOM     11  C   UNL     1      -3.421  11.414  18.264  0.00  0.00    +0.000 C 
BRANCH  11  12
ATOM     12  C   UNL     1      -4.751  11.301  17.497  0.00  0.00    +0.000 C 
BRANCH  12  16
ATOM     13  C   UNL     1      -7.485  10.996  20.279  0.00  0.00    +0.000 C 
ATOM     14  C   UNL     1      -6.289  11.485  19.510  0.00  0.00    +0.000 C 
ATOM     15  C   UNL     1      -5.498  12.608  20.119  0.00  0.00    +0.000 C 
ATOM     16  C   UNL     1      -5.934  10.904  18.345  0.00  0.00    +0.000 C 
ENDBRANCH  12  16
BRANCH  12  17
ATOM     17  O   UNL     1      -5.044  12.574  16.918  0.00  0.00    +0.000 OA
ATOM     18  H   UNL     1      -5.973  12.555  16.639  0.00  0.00    +0.000 HD
ENDBRANCH  12  17
ENDBRANCH  11  12
ENDBRANCH   8  11
ENDBRANCH   7  10
ENDBRANCH   6   7
ENDBRANCH   3   6
ENDBRANCH   1   5
BRANCH   1  19
ATOM     19  C   UNL     1       1.269   5.173  20.564  0.00  0.00    +0.000 C 
BRANCH  19  20
ATOM     20  C   UNL     1       2.145   4.362  19.636  0.00  0.00    +0.000 C 
ATOM     21  C   UNL     1       1.498   3.777  18.404  0.00  0.00    +0.000 C 
ATOM     22  C   UNL     1       3.436   4.108  19.935  0.00  0.00    +0.000 C 
BRANCH  22  23
ATOM     23  C   UNL     1       4.383   3.273  19.105  0.00  0.00    +0.000 C 
BRANCH  23  24
ATOM     24  C   UNL     1       5.133   4.089  18.073  0.00  0.00    +0.000 A 
ATOM     25  C   UNL     1       4.870   3.882  16.709  0.00  0.00    +0.000 A 
ATOM     26  C   UNL     1       5.535   4.635  15.749  0.00  0.00    +0.000 A 
ATOM     27  C   UNL     1       6.464   5.601  16.117  0.00  0.00    +0.000 A 
ATOM     28  C   UNL     1       6.750   5.832  17.470  0.00  0.00    +0.000 A 
ATOM     29  C   UNL     1       7.750   6.894  17.831  0.00  0.00    +0.000 C 
ATOM     30  C   UNL     1       6.082   5.062  18.438  0.00  0.00    +0.000 A 
BRANCH  26  31
ATOM     31  O   UNL     1       5.297   4.455  14.418  0.00  0.00    +0.000 OA
ATOM     32  H   UNL     1       4.889   5.261  14.066  0.00  0.00    +0.000 HD
ENDBRANCH  26  31
BRANCH  30  33
ATOM     33  O   UNL     1       6.330   5.234  19.773  0.00  0.00    +0.000 OA
ATOM     34  H   UNL     1       6.985   4.585  20.072  0.00  0.00    +0.000 HD
ENDBRANCH  30  33
ENDBRANCH  23  24
ENDBRANCH  22  23
ENDBRANCH  19  20
ENDBRANCH   1  19
TORSDOF 14
ENDMDL
