MODEL 1
REMARK VINA RESULT:      -7.1      0.000      0.000
REMARK  Name = 
REMARK  1 active torsions:
REMARK  status: ('A' for Active; 'I' for Inactive)
REMARK    1  A    between atoms: C_6  and  C_7
REMARK                            x       y       z     vdW  Elec       q    Type
REMARK                         _______ _______ _______ _____ _____    ______ ____
ROOT
ATOM      1  C   UNL     1       4.307   3.892  17.628  0.00  0.00    +0.000 A 
ATOM      2  C   UNL     1       2.904   4.118  17.606  0.00  0.00    +0.000 A 
ATOM      3  C   UNL     1       2.430   3.676  18.821  0.00  0.00    +0.000 A 
ATOM      4  N   UNL     1       3.519   3.211  19.484  0.00  0.00    +0.000 N 
ATOM      5  N   UNL     1       4.668   3.323  18.795  0.00  0.00    +0.000 NA
ATOM      6  C   UNL     1       3.536   2.636  20.803  0.00  0.00    +0.000 C 
ATOM      7  C   UNL     1       2.193   2.588  21.521  0.00  0.00    +0.000 C 
ATOM      8  C   UNL     1       0.946   3.104  20.801  0.00  0.00    +0.000 C 
ATOM      9  C   UNL     1       1.068   3.664  19.387  0.00  0.00    +0.000 C 
ENDROOT
BRANCH   1  15
ATOM     10 CL   UNL     1       5.921   3.529  12.722  0.00  0.00    +0.000 Cl
ATOM     11  C   UNL     1       6.077   4.089  14.343  0.00  0.00    +0.000 A 
ATOM     12  C   UNL     1       7.189   4.836  14.705  0.00  0.00    +0.000 A 
ATOM     13  C   UNL     1       7.275   5.256  16.018  0.00  0.00    +0.000 A 
ATOM     14  N   UNL     1       6.348   4.971  16.957  0.00  0.00    +0.000 NA
ATOM     15  C   UNL     1       5.272   4.230  16.576  0.00  0.00    +0.000 A 
ATOM     16  C   UNL     1       5.097   3.779  15.275  0.00  0.00    +0.000 A 
ENDBRANCH   1  15
TORSDOF 1
ENDMDL
MODEL 2
REMARK VINA RESULT:      -6.8      0.840      1.529
REMARK  Name = 
REMARK  1 active torsions:
REMARK  status: ('A' for Active; 'I' for Inactive)
REMARK    1  A    between atoms: C_6  and  C_7
REMARK                            x       y       z     vdW  Elec       q    Type
REMARK                         _______ _______ _______ _____ _____    ______ ____
ROOT
ATOM      1  C   UNL     1       4.372   3.955  17.814  0.00  0.00    +0.000 A 
ATOM      2  C   UNL     1       4.683   3.475  19.115  0.00  0.00    +0.000 A 
ATOM      3  C   UNL     1       3.473   3.271  19.742  0.00  0.00    +0.000 A 
ATOM      4  N   UNL     1       2.532   3.637  18.835  0.00  0.00    +0.000 N 
ATOM      5  N   UNL     1       3.037   4.056  17.661  0.00  0.00    +0.000 NA
ATOM      6  C   UNL     1       1.106   3.609  19.024  0.00  0.00    +0.000 C 
ATOM      7  C   UNL     1       0.627   3.081  20.371  0.00  0.00    +0.000 C 
ATOM      8  C   UNL     1       1.663   2.662  21.416  0.00  0.00    +0.000 C 
ATOM      9  C   UNL     1       3.149   2.769  21.091  0.00  0.00    +0.000 C 
ENDROOT
BRANCH   1  15
ATOM     10 CL   UNL     1       5.925   3.544  12.892  0.00  0.00    +0.000 Cl
ATOM     11  C   UNL     1       6.099   4.123  14.504  0.00  0.00    +0.000 A 
ATOM     12  C   UNL     1       7.212   4.879  14.844  0.00  0.00    +0.000 A 
ATOM     13  C   UNL     1       7.312   5.315  16.150  0.00  0.00    +0.000 A 
ATOM     14  N   UNL     1       6.398   5.036  17.105  0.00  0.00    +0.000 NA
ATOM     15  C   UNL     1       5.322   4.285  16.746  0.00  0.00    +0.000 A 
ATOM     16  C   UNL     1       5.132   3.819  15.452  0.00  0.00    +0.000 A 
ENDBRANCH   1  15
TORSDOF 1
ENDMDL
MODEL 3
REMARK VINA RESULT:      -6.8      1.080      1.092
REMARK  Name = 
REMARK  1 active torsions:
REMARK  status: ('A' for Active; 'I' for Inactive)
REMARK    1  A    between atoms: C_6  and  C_7
REMARK                            x       y       z     vdW  Elec       q    Type
REMARK                         _______ _______ _______ _____ _____    ______ ____
ROOT
ATOM      1  C   UNL     1       4.232   4.138  17.169  0.00  0.00    +0.000 A 
ATOM      2  C   UNL     1       3.164   3.202  17.114  0.00  0.00    +0.000 A 
ATOM      3  C   UNL     1       2.451   3.370  18.281  0.00  0.00    +0.000 A 
ATOM      4  N   UNL     1       3.104   4.346  18.961  0.00  0.00    +0.000 N 
ATOM      5  N   UNL     1       4.183   4.831  18.323  0.00  0.00    +0.000 NA
ATOM      6  C   UNL     1       2.745   4.875  20.251  0.00  0.00    +0.000 C 
ATOM      7  C   UNL     1       1.485   4.292  20.878  0.00  0.00    +0.000 C 
ATOM      8  C   UNL     1       0.727   3.190  20.137  0.00  0.00    +0.000 C 
ATOM      9  C   UNL     1       1.236   2.702  18.784  0.00  0.00    +0.000 C 
ENDROOT
BRANCH   1  15
ATOM     10 CL   UNL     1       6.033   3.407  12.370  0.00  0.00    +0.000 Cl
ATOM     11  C   UNL     1       6.142   4.064  13.958  0.00  0.00    +0.000 A 
ATOM     12  C   UNL     1       7.266   4.793  14.323  0.00  0.00    +0.000 A 
ATOM     13  C   UNL     1       7.312   5.293  15.609  0.00  0.00    +0.000 A 
ATOM     14  N   UNL     1       6.337   5.101  16.523  0.00  0.00    +0.000 NA
ATOM     15  C   UNL     1       5.251   4.374  16.141  0.00  0.00    +0.000 A 
ATOM     16  C   UNL     1       5.114   3.848  14.864  0.00  0.00    +0.000 A 
ENDBRANCH   1  15
TORSDOF 1
ENDMDL
MODEL 4
REMARK VINA RESULT:      -6.8      1.263      1.424
REMARK  Name = 
REMARK  1 active torsions:
REMARK  status: ('A' for Active; 'I' for Inactive)
REMARK    1  A    between atoms: C_6  and  C_7
REMARK                            x       y       z     vdW  Elec       q    Type
REMARK                         _______ _______ _______ _____ _____    ______ ____
ROOT
ATOM      1  C   UNL     1       4.196   4.368  17.168  0.00  0.00    +0.000 A 
ATOM      2  C   UNL     1       4.002   5.185  18.314  0.00  0.00    +0.000 A 
ATOM      3  C   UNL     1       2.946   4.629  19.002  0.00  0.00    +0.000 A 
ATOM      4  N   UNL     1       2.559   3.560  18.262  0.00  0.00    +0.000 N 
ATOM      5  N   UNL     1       3.288   3.372  17.148  0.00  0.00    +0.000 NA
ATOM      6  C   UNL     1       1.482   2.655  18.565  0.00  0.00    +0.000 C 
ATOM      7  C   UNL     1       0.738   2.925  19.868  0.00  0.00    +0.000 C 
ATOM      8  C   UNL     1       1.149   4.124  20.724  0.00  0.00    +0.000 C 
ATOM      9  C   UNL     1       2.297   5.020  20.268  0.00  0.00    +0.000 C 
ENDROOT
BRANCH   1  15
ATOM     10 CL   UNL     1       6.000   3.357  12.421  0.00  0.00    +0.000 Cl
ATOM     11  C   UNL     1       6.121   4.083  13.978  0.00  0.00    +0.000 A 
ATOM     12  C   UNL     1       7.265   4.793  14.316  0.00  0.00    +0.000 A 
ATOM     13  C   UNL     1       7.320   5.350  15.577  0.00  0.00    +0.000 A 
ATOM     14  N   UNL     1       6.334   5.232  16.492  0.00  0.00    +0.000 NA
ATOM     15  C   UNL     1       5.228   4.523  16.138  0.00  0.00    +0.000 A 
ATOM     16  C   UNL     1       5.081   3.943  14.885  0.00  0.00    +0.000 A 
ENDBRANCH   1  15
TORSDOF 1
ENDMDL
MODEL 5
REMARK VINA RESULT:      -6.3      1.920      2.702
REMARK  Name = 
REMARK  1 active torsions:
REMARK  status: ('A' for Active; 'I' for Inactive)
REMARK    1  A    between atoms: C_6  and  C_7
REMARK                            x       y       z     vdW  Elec       q    Type
REMARK                         _______ _______ _______ _____ _____    ______ ____
ROOT
ATOM      1  C   UNL     1       5.230   4.778  15.717  0.00  0.00    +0.000 A 
ATOM      2  C   UNL     1       4.809   6.023  16.257  0.00  0.00    +0.000 A 
ATOM      3  C   UNL     1       4.229   5.732  17.472  0.00  0.00    +0.000 A 
ATOM      4  N   UNL     1       4.310   4.383  17.594  0.00  0.00    +0.000 N 
ATOM      5  N   UNL     1       4.906   3.774  16.554  0.00  0.00    +0.000 NA
ATOM      6  C   UNL     1       3.831   3.594  18.699  0.00  0.00    +0.000 C 
ATOM      7  C   UNL     1       3.207   4.376  19.848  0.00  0.00    +0.000 C 
ATOM      8  C   UNL     1       3.100   5.898  19.741  0.00  0.00    +0.000 C 
ATOM      9  C   UNL     1       3.625   6.605  18.496  0.00  0.00    +0.000 C 
ENDROOT
BRANCH   1  15
ATOM     10 CL   UNL     1       5.839   2.146  11.300  0.00  0.00    +0.000 Cl
ATOM     11  C   UNL     1       6.282   3.381  12.414  0.00  0.00    +0.000 A 
ATOM     12  C   UNL     1       7.394   4.171  12.155  0.00  0.00    +0.000 A 
ATOM     13  C   UNL     1       7.715   5.143  13.081  0.00  0.00    +0.000 A 
ATOM     14  N   UNL     1       7.018   5.355  14.217  0.00  0.00    +0.000 NA
ATOM     15  C   UNL     1       5.938   4.560  14.451  0.00  0.00    +0.000 A 
ATOM     16  C   UNL     1       5.533   3.569  13.567  0.00  0.00    +0.000 A 
ENDBRANCH   1  15
TORSDOF 1
ENDMDL
MODEL 6
REMARK VINA RESULT:      -6.3      3.455      6.195
REMARK  Name = 
REMARK  1 active torsions:
REMARK  status: ('A' for Active; 'I' for Inactive)
REMARK    1  A    between atoms: C_6  and  C_7
REMARK                            x       y       z     vdW  Elec       q    Type
REMARK                         _______ _______ _______ _____ _____    ______ ____
ROOT
ATOM      1  C   UNL     1       4.055   4.846  18.815  0.00  0.00    +0.000 A 
ATOM      2  C   UNL     1       4.161   5.831  17.796  0.00  0.00    +0.000 A 
ATOM      3  C   UNL     1       5.452   6.308  17.864  0.00  0.00    +0.000 A 
ATOM      4  N   UNL     1       6.032   5.629  18.885  0.00  0.00    +0.000 N 
ATOM      5  N   UNL     1       5.219   4.741  19.484  0.00  0.00    +0.000 NA
ATOM      6  C   UNL     1       7.385   5.780  19.353  0.00  0.00    +0.000 C 
ATOM      7  C   UNL     1       8.241   6.781  18.588  0.00  0.00    +0.000 C 
ATOM      8  C   UNL     1       7.617   7.563  17.431  0.00  0.00    +0.000 C 
ATOM      9  C   UNL     1       6.157   7.323  17.058  0.00  0.00    +0.000 C 
ENDROOT
BRANCH   1  15
ATOM     10 CL   UNL     1       1.106   2.325  22.244  0.00  0.00    +0.000 Cl
ATOM     11  C   UNL     1       1.496   2.828  20.644  0.00  0.00    +0.000 A 
ATOM     12  C   UNL     1       0.722   2.387  19.579  0.00  0.00    +0.000 A 
ATOM     13  C   UNL     1       1.079   2.809  18.314  0.00  0.00    +0.000 A 
ATOM     14  N   UNL     1       2.136   3.610  18.061  0.00  0.00    +0.000 NA
ATOM     15  C   UNL     1       2.883   4.019  19.123  0.00  0.00    +0.000 A 
ATOM     16  C   UNL     1       2.588   3.657  20.430  0.00  0.00    +0.000 A 
ENDBRANCH   1  15
TORSDOF 1
ENDMDL
MODEL 7
REMARK VINA RESULT:      -6.3      4.562      5.200
REMARK  Name = 
REMARK  1 active torsions:
REMARK  status: ('A' for Active; 'I' for Inactive)
REMARK    1  A    between atoms: C_6  and  C_7
REMARK                            x       y       z     vdW  Elec       q    Type
REMARK                         _______ _______ _______ _____ _____    ______ ____
ROOT
ATOM      1  C   UNL     1       2.471   7.139  18.551  0.00  0.00    +0.000 A 
ATOM      2  C   UNL     1       2.076   8.353  17.927  0.00  0.00    +0.000 A 
ATOM      3  C   UNL     1       1.534   9.133  18.925  0.00  0.00    +0.000 A 
ATOM      4  N   UNL     1       1.611   8.379  20.051  0.00  0.00    +0.000 N 
ATOM      5  N   UNL     1       2.169   7.170  19.864  0.00  0.00    +0.000 NA
ATOM      6  C   UNL     1       1.164   8.759  21.365  0.00  0.00    +0.000 C 
ATOM      7  C   UNL     1       0.583  10.162  21.487  0.00  0.00    +0.000 C 
ATOM      8  C   UNL     1       0.482  11.036  20.236  0.00  0.00    +0.000 C 
ATOM      9  C   UNL     1       0.971  10.496  18.896  0.00  0.00    +0.000 C 
ENDROOT
BRANCH   1  15
ATOM     10 CL   UNL     1       2.762   2.054  17.620  0.00  0.00    +0.000 Cl
ATOM     11  C   UNL     1       3.336   3.670  17.464  0.00  0.00    +0.000 A 
ATOM     12  C   UNL     1       4.513   3.915  16.769  0.00  0.00    +0.000 A 
ATOM     13  C   UNL     1       4.938   5.225  16.678  0.00  0.00    +0.000 A 
ATOM     14  N   UNL     1       4.282   6.266  17.233  0.00  0.00    +0.000 NA
ATOM     15  C   UNL     1       3.136   5.996  17.916  0.00  0.00    +0.000 A 
ATOM     16  C   UNL     1       2.627   4.711  18.045  0.00  0.00    +0.000 A 
ENDBRANCH   1  15
TORSDOF 1
ENDMDL
MODEL 8
REMARK VINA RESULT:      -6.3      2.071      2.895
REMARK  Name = 
REMARK  1 active torsions:
REMARK  status: ('A' for Active; 'I' for Inactive)
REMARK    1  A    between atoms: C_6  and  C_7
REMARK                            x       y       z     vdW  Elec       q    Type
REMARK                         _______ _______ _______ _____ _____    ______ ____
ROOT
ATOM      1  C   UNL     1       5.175   4.873  15.922  0.00  0.00    +0.000 A 
ATOM      2  C   UNL     1       4.879   3.908  16.923  0.00  0.00    +0.000 A 
ATOM      3  C   UNL     1       4.172   4.577  17.897  0.00  0.00    +0.000 A 
ATOM      4  N   UNL     1       4.092   5.861  17.464  0.00  0.00    +0.000 N 
ATOM      5  N   UNL     1       4.687   6.077  16.278  0.00  0.00    +0.000 NA
ATOM      6  C   UNL     1       3.449   6.954  18.145  0.00  0.00    +0.000 C 
ATOM      7  C   UNL     1       2.768   6.604  19.463  0.00  0.00    +0.000 C 
ATOM      8  C   UNL     1       2.841   5.166  19.978  0.00  0.00    +0.000 C 
ATOM      9  C   UNL     1       3.582   4.109  19.165  0.00  0.00    +0.000 C 
ENDROOT
BRANCH   1  15
ATOM     10 CL   UNL     1       5.713   2.273  11.477  0.00  0.00    +0.000 Cl
ATOM     11  C   UNL     1       6.195   3.477  12.609  0.00  0.00    +0.000 A 
ATOM     12  C   UNL     1       7.337   4.228  12.366  0.00  0.00    +0.000 A 
ATOM     13  C   UNL     1       7.689   5.176  13.306  0.00  0.00    +0.000 A 
ATOM     14  N   UNL     1       6.993   5.400  14.441  0.00  0.00    +0.000 NA
ATOM     15  C   UNL     1       5.882   4.644  14.658  0.00  0.00    +0.000 A 
ATOM     16  C   UNL     1       5.447   3.679  13.759  0.00  0.00    +0.000 A 
ENDBRANCH   1  15
TORSDOF 1
ENDMDL
MODEL 9
REMARK VINA RESULT:      -6.3      3.504      6.359
REMARK  Name = 
REMARK  1 active torsions:
REMARK  status: ('A' for Active; 'I' for Inactive)
REMARK    1  A    between atoms: C_6  and  C_7
REMARK                            x       y       z     vdW  Elec       q    Type
REMARK                         _______ _______ _______ _____ _____    ______ ____
ROOT
ATOM      1  C   UNL     1       4.236   4.763  18.844  0.00  0.00    +0.000 A 
ATOM      2  C   UNL     1       5.484   4.638  19.512  0.00  0.00    +0.000 A 
ATOM      3  C   UNL     1       6.313   5.582  18.946  0.00  0.00    +0.000 A 
ATOM      4  N   UNL     1       5.562   6.193  17.995  0.00  0.00    +0.000 N 
ATOM      5  N   UNL     1       4.306   5.725  17.904  0.00  0.00    +0.000 NA
ATOM      6  C   UNL     1       5.989   7.254  17.121  0.00  0.00    +0.000 C 
ATOM      7  C   UNL     1       7.417   7.746  17.325  0.00  0.00    +0.000 C 
ATOM      8  C   UNL     1       8.289   7.076  18.389  0.00  0.00    +0.000 C 
ATOM      9  C   UNL     1       7.715   5.940  19.229  0.00  0.00    +0.000 C 
ENDROOT
BRANCH   1  15
ATOM     10 CL   UNL     1       1.085   2.340  22.162  0.00  0.00    +0.000 Cl
ATOM     11  C   UNL     1       1.531   2.858  20.582  0.00  0.00    +0.000 A 
ATOM     12  C   UNL     1       0.749   2.492  19.495  0.00  0.00    +0.000 A 
ATOM     13  C   UNL     1       1.151   2.923  18.246  0.00  0.00    +0.000 A 
ATOM     14  N   UNL     1       2.258   3.665  18.031  0.00  0.00    +0.000 NA
ATOM     15  C   UNL     1       3.012   4.001  19.113  0.00  0.00    +0.000 A 
ATOM     16  C   UNL     1       2.674   3.624  20.406  0.00  0.00    +0.000 A 
ENDBRANCH   1  15
TORSDOF 1
ENDMDL
