MODEL 1
REMARK VINA RESULT:      -7.9      0.000      0.000
REMARK  Name = 
REMARK  6 active torsions:
REMARK  status: ('A' for Active; 'I' for Inactive)
REMARK    1  A    between atoms: C_1  and  C_2
REMARK    2  A    between atoms: C_4  and  C_5
REMARK    3  A    between atoms: N_7  and  N_8
REMARK    4  A    between atoms: C_14  and  C_15
REMARK    5  A    between atoms: C_14  and  C_16
REMARK    6  A    between atoms: C_18  and  C_19
REMARK                            x       y       z     vdW  Elec       q    Type
REMARK                         _______ _______ _______ _____ _____    ______ ____
ROOT
ATOM      1  C   UNL     1       5.262   3.728  16.914  0.00  0.00    +0.000 C 
ATOM      2  O   UNL     1       4.154   3.292  16.628  0.00  0.00    +0.000 OA
ATOM      3  N   UNL     1       5.839   3.611  18.178  0.00  0.00    +0.000 N 
ATOM      4  H   UNL     1       6.684   4.124  18.382  0.00  0.00    +0.000 HD
ENDROOT
BRANCH   3   5
ATOM      5  N   UNL     1       5.169   3.010  19.222  0.00  0.00    +0.000 NA
ATOM      6  C   UNL     1       4.212   3.685  19.792  0.00  0.00    +0.000 C 
ATOM      7  C   UNL     1       3.882   5.133  19.531  0.00  0.00    +0.000 C 
ATOM      8  C   UNL     1       2.416   5.243  19.243  0.00  0.00    +0.000 C 
ATOM      9  O   UNL     1       1.991   5.757  18.208  0.00  0.00    +0.000 OA
ATOM     10  C   UNL     1       1.505   4.696  20.314  0.00  0.00    +0.000 C 
ATOM     11  C   UNL     1       1.837   3.217  20.617  0.00  0.00    +0.000 C 
ATOM     12  C   UNL     1       1.406   2.322  19.441  0.00  0.00    +0.000 C 
ATOM     13  C   UNL     1       1.010   2.808  21.853  0.00  0.00    +0.000 C 
ATOM     14  C   UNL     1       3.359   3.025  20.887  0.00  0.00    +0.000 C 
ENDBRANCH   3   5
BRANCH   1  18
ATOM     15  C   UNL     1       7.833   5.241  12.699  0.00  0.00    +0.000 C 
ATOM     16  C   UNL     1       7.231   4.995  14.027  0.00  0.00    +0.000 A 
ATOM     17  C   UNL     1       6.341   4.066  14.523  0.00  0.00    +0.000 A 
ATOM     18  C   UNL     1       6.135   4.372  15.913  0.00  0.00    +0.000 A 
ATOM     19  C   UNL     1       6.942   5.479  16.146  0.00  0.00    +0.000 A 
ATOM     20  C   UNL     1       7.238   6.335  17.316  0.00  0.00    +0.000 C 
ATOM     21  O   UNL     1       7.600   5.847  15.010  0.00  0.00    +0.000 OA
ENDBRANCH   1  18
TORSDOF 2
ENDMDL
MODEL 2
REMARK VINA RESULT:      -7.9      2.767      3.838
REMARK  Name = 
REMARK  6 active torsions:
REMARK  status: ('A' for Active; 'I' for Inactive)
REMARK    1  A    between atoms: C_1  and  C_2
REMARK    2  A    between atoms: C_4  and  C_5
REMARK    3  A    between atoms: N_7  and  N_8
REMARK    4  A    between atoms: C_14  and  C_15
REMARK    5  A    between atoms: C_14  and  C_16
REMARK    6  A    between atoms: C_18  and  C_19
REMARK                            x       y       z     vdW  Elec       q    Type
REMARK                         _______ _______ _______ _____ _____    ______ ____
ROOT
ATOM      1  C   UNL     1       5.467   6.889  17.049  0.00  0.00    +0.000 C 
ATOM      2  O   UNL     1       5.311   6.620  15.865  0.00  0.00    +0.000 OA
ATOM      3  N   UNL     1       4.547   6.564  18.046  0.00  0.00    +0.000 N 
ATOM      4  H   UNL     1       4.667   6.948  18.971  0.00  0.00    +0.000 HD
ENDROOT
BRANCH   3   5
ATOM      5  N   UNL     1       3.359   5.930  17.749  0.00  0.00    +0.000 NA
ATOM      6  C   UNL     1       3.317   4.635  17.882  0.00  0.00    +0.000 C 
ATOM      7  C   UNL     1       4.500   3.742  18.162  0.00  0.00    +0.000 C 
ATOM      8  C   UNL     1       4.163   2.857  19.324  0.00  0.00    +0.000 C 
ATOM      9  O   UNL     1       4.865   2.811  20.333  0.00  0.00    +0.000 OA
ATOM     10  C   UNL     1       2.917   2.021  19.159  0.00  0.00    +0.000 C 
ATOM     11  C   UNL     1       1.693   2.912  18.847  0.00  0.00    +0.000 C 
ATOM     12  C   UNL     1       1.289   3.718  20.095  0.00  0.00    +0.000 C 
ATOM     13  C   UNL     1       0.525   1.971  18.490  0.00  0.00    +0.000 C 
ATOM     14  C   UNL     1       1.990   3.888  17.670  0.00  0.00    +0.000 C 
ENDBRANCH   3   5
BRANCH   1  18
ATOM     15  C   UNL     1       9.290  10.094  18.381  0.00  0.00    +0.000 C 
ATOM     16  C   UNL     1       8.340   8.993  18.115  0.00  0.00    +0.000 A 
ATOM     17  C   UNL     1       7.147   8.896  17.429  0.00  0.00    +0.000 A 
ATOM     18  C   UNL     1       6.693   7.536  17.554  0.00  0.00    +0.000 A 
ATOM     19  C   UNL     1       7.675   6.913  18.315  0.00  0.00    +0.000 A 
ATOM     20  C   UNL     1       7.886   5.546  18.841  0.00  0.00    +0.000 C 
ATOM     21  O   UNL     1       8.663   7.792  18.647  0.00  0.00    +0.000 OA
ENDBRANCH   1  18
TORSDOF 2
ENDMDL
MODEL 3
REMARK VINA RESULT:      -7.6      1.564      1.977
REMARK  Name = 
REMARK  6 active torsions:
REMARK  status: ('A' for Active; 'I' for Inactive)
REMARK    1  A    between atoms: C_1  and  C_2
REMARK    2  A    between atoms: C_4  and  C_5
REMARK    3  A    between atoms: N_7  and  N_8
REMARK    4  A    between atoms: C_14  and  C_15
REMARK    5  A    between atoms: C_14  and  C_16
REMARK    6  A    between atoms: C_18  and  C_19
REMARK                            x       y       z     vdW  Elec       q    Type
REMARK                         _______ _______ _______ _____ _____    ______ ____
ROOT
ATOM      1  C   UNL     1       5.688   4.647  18.087  0.00  0.00    +0.000 C 
ATOM      2  O   UNL     1       6.004   3.681  18.770  0.00  0.00    +0.000 OA
ATOM      3  N   UNL     1       4.706   5.568  18.454  0.00  0.00    +0.000 N 
ATOM      4  H   UNL     1       4.392   6.248  17.777  0.00  0.00    +0.000 HD
ENDROOT
BRANCH   3   5
ATOM      5  N   UNL     1       3.989   5.428  19.623  0.00  0.00    +0.000 NA
ATOM      6  C   UNL     1       2.940   4.654  19.598  0.00  0.00    +0.000 C 
ATOM      7  C   UNL     1       2.336   4.034  18.362  0.00  0.00    +0.000 C 
ATOM      8  C   UNL     1       2.160   2.566  18.605  0.00  0.00    +0.000 C 
ATOM      9  O   UNL     1       2.646   1.719  17.857  0.00  0.00    +0.000 OA
ATOM     10  C   UNL     1       1.334   2.206  19.816  0.00  0.00    +0.000 C 
ATOM     11  C   UNL     1       1.920   2.849  21.093  0.00  0.00    +0.000 C 
ATOM     12  C   UNL     1       3.242   2.160  21.479  0.00  0.00    +0.000 C 
ATOM     13  C   UNL     1       0.907   2.606  22.231  0.00  0.00    +0.000 C 
ATOM     14  C   UNL     1       2.166   4.374  20.895  0.00  0.00    +0.000 C 
ENDBRANCH   3   5
BRANCH   1  18
ATOM     15  C   UNL     1       7.503   4.891  13.259  0.00  0.00    +0.000 C 
ATOM     16  C   UNL     1       7.132   5.031  14.684  0.00  0.00    +0.000 A 
ATOM     17  C   UNL     1       6.355   4.294  15.553  0.00  0.00    +0.000 A 
ATOM     18  C   UNL     1       6.371   4.973  16.821  0.00  0.00    +0.000 A 
ATOM     19  C   UNL     1       7.181   6.083  16.608  0.00  0.00    +0.000 A 
ATOM     20  C   UNL     1       7.645   7.218  17.435  0.00  0.00    +0.000 C 
ATOM     21  O   UNL     1       7.637   6.111  15.323  0.00  0.00    +0.000 OA
ENDBRANCH   1  18
TORSDOF 2
ENDMDL
MODEL 4
REMARK VINA RESULT:      -7.5      1.708      2.351
REMARK  Name = 
REMARK  6 active torsions:
REMARK  status: ('A' for Active; 'I' for Inactive)
REMARK    1  A    between atoms: C_1  and  C_2
REMARK    2  A    between atoms: C_4  and  C_5
REMARK    3  A    between atoms: N_7  and  N_8
REMARK    4  A    between atoms: C_14  and  C_15
REMARK    5  A    between atoms: C_14  and  C_16
REMARK    6  A    between atoms: C_18  and  C_19
REMARK                            x       y       z     vdW  Elec       q    Type
REMARK                         _______ _______ _______ _____ _____    ______ ____
ROOT
ATOM      1  C   UNL     1       4.462   4.812  16.886  0.00  0.00    +0.000 C 
ATOM      2  O   UNL     1       4.477   5.544  17.868  0.00  0.00    +0.000 OA
ATOM      3  N   UNL     1       3.442   3.901  16.613  0.00  0.00    +0.000 N 
ATOM      4  H   UNL     1       3.569   3.228  15.872  0.00  0.00    +0.000 HD
ENDROOT
BRANCH   3   5
ATOM      5  N   UNL     1       2.374   3.739  17.469  0.00  0.00    +0.000 NA
ATOM      6  C   UNL     1       2.535   2.944  18.489  0.00  0.00    +0.000 C 
ATOM      7  C   UNL     1       3.724   2.047  18.724  0.00  0.00    +0.000 C 
ATOM      8  C   UNL     1       4.228   2.281  20.116  0.00  0.00    +0.000 C 
ATOM      9  O   UNL     1       5.395   2.601  20.342  0.00  0.00    +0.000 OA
ATOM     10  C   UNL     1       3.211   2.082  21.213  0.00  0.00    +0.000 C 
ATOM     11  C   UNL     1       1.970   2.974  20.982  0.00  0.00    +0.000 C 
ATOM     12  C   UNL     1       2.322   4.452  21.234  0.00  0.00    +0.000 C 
ATOM     13  C   UNL     1       0.908   2.555  22.020  0.00  0.00    +0.000 C 
ATOM     14  C   UNL     1       1.417   2.809  19.536  0.00  0.00    +0.000 C 
ENDBRANCH   3   5
BRANCH   1  18
ATOM     15  C   UNL     1       7.347   4.469  12.617  0.00  0.00    +0.000 C 
ATOM     16  C   UNL     1       6.725   4.693  13.940  0.00  0.00    +0.000 A 
ATOM     17  C   UNL     1       5.532   4.315  14.519  0.00  0.00    +0.000 A 
ATOM     18  C   UNL     1       5.506   4.873  15.845  0.00  0.00    +0.000 A 
ATOM     19  C   UNL     1       6.716   5.548  15.959  0.00  0.00    +0.000 A 
ATOM     20  C   UNL     1       7.375   6.351  17.014  0.00  0.00    +0.000 C 
ATOM     21  O   UNL     1       7.445   5.435  14.813  0.00  0.00    +0.000 OA
ENDBRANCH   1  18
TORSDOF 2
ENDMDL
MODEL 5
REMARK VINA RESULT:      -7.4      1.904      2.767
REMARK  Name = 
REMARK  6 active torsions:
REMARK  status: ('A' for Active; 'I' for Inactive)
REMARK    1  A    between atoms: C_1  and  C_2
REMARK    2  A    between atoms: C_4  and  C_5
REMARK    3  A    between atoms: N_7  and  N_8
REMARK    4  A    between atoms: C_14  and  C_15
REMARK    5  A    between atoms: C_14  and  C_16
REMARK    6  A    between atoms: C_18  and  C_19
REMARK                            x       y       z     vdW  Elec       q    Type
REMARK                         _______ _______ _______ _____ _____    ______ ____
ROOT
ATOM      1  C   UNL     1       6.045   4.950  15.335  0.00  0.00    +0.000 C 
ATOM      2  O   UNL     1       6.042   6.168  15.461  0.00  0.00    +0.000 OA
ATOM      3  N   UNL     1       5.764   4.061  16.372  0.00  0.00    +0.000 N 
ATOM      4  H   UNL     1       5.934   3.076  16.235  0.00  0.00    +0.000 HD
ENDROOT
BRANCH   3   5
ATOM      5  N   UNL     1       5.489   4.508  17.647  0.00  0.00    +0.000 NA
ATOM      6  C   UNL     1       4.247   4.481  18.040  0.00  0.00    +0.000 C 
ATOM      7  C   UNL     1       3.056   4.171  17.167  0.00  0.00    +0.000 C 
ATOM      8  C   UNL     1       2.234   3.115  17.843  0.00  0.00    +0.000 C 
ATOM      9  O   UNL     1       1.949   2.056  17.286  0.00  0.00    +0.000 OA
ATOM     10  C   UNL     1       1.772   3.452  19.239  0.00  0.00    +0.000 C 
ATOM     11  C   UNL     1       2.973   3.797  20.149  0.00  0.00    +0.000 C 
ATOM     12  C   UNL     1       3.791   2.529  20.455  0.00  0.00    +0.000 C 
ATOM     13  C   UNL     1       2.400   4.326  21.479  0.00  0.00    +0.000 C 
ATOM     14  C   UNL     1       3.894   4.864  19.486  0.00  0.00    +0.000 C 
ENDBRANCH   3   5
BRANCH   1  18
ATOM     15  C   UNL     1       5.981   2.040  11.069  0.00  0.00    +0.000 C 
ATOM     16  C   UNL     1       6.205   2.988  12.181  0.00  0.00    +0.000 A 
ATOM     17  C   UNL     1       5.622   3.180  13.416  0.00  0.00    +0.000 A 
ATOM     18  C   UNL     1       6.287   4.296  14.034  0.00  0.00    +0.000 A 
ATOM     19  C   UNL     1       7.241   4.687  13.103  0.00  0.00    +0.000 A 
ATOM     20  C   UNL     1       8.273   5.746  13.039  0.00  0.00    +0.000 C 
ATOM     21  O   UNL     1       7.190   3.897  11.993  0.00  0.00    +0.000 OA
ENDBRANCH   1  18
TORSDOF 2
ENDMDL
MODEL 6
REMARK VINA RESULT:      -7.2      3.847      6.895
REMARK  Name = 
REMARK  6 active torsions:
REMARK  status: ('A' for Active; 'I' for Inactive)
REMARK    1  A    between atoms: C_1  and  C_2
REMARK    2  A    between atoms: C_4  and  C_5
REMARK    3  A    between atoms: N_7  and  N_8
REMARK    4  A    between atoms: C_14  and  C_15
REMARK    5  A    between atoms: C_14  and  C_16
REMARK    6  A    between atoms: C_18  and  C_19
REMARK                            x       y       z     vdW  Elec       q    Type
REMARK                         _______ _______ _______ _____ _____    ______ ____
ROOT
ATOM      1  C   UNL     1       1.959   7.947  19.485  0.00  0.00    +0.000 C 
ATOM      2  O   UNL     1       2.091   8.085  18.276  0.00  0.00    +0.000 OA
ATOM      3  N   UNL     1       2.608   6.962  20.229  0.00  0.00    +0.000 N 
ATOM      4  H   UNL     1       2.337   6.811  21.189  0.00  0.00    +0.000 HD
ENDROOT
BRANCH   3   5
ATOM      5  N   UNL     1       3.436   6.036  19.629  0.00  0.00    +0.000 NA
ATOM      6  C   UNL     1       3.203   4.776  19.866  0.00  0.00    +0.000 C 
ATOM      7  C   UNL     1       2.219   4.240  20.875  0.00  0.00    +0.000 C 
ATOM      8  C   UNL     1       1.343   3.231  20.196  0.00  0.00    +0.000 C 
ATOM      9  O   UNL     1       0.117   3.328  20.195  0.00  0.00    +0.000 OA
ATOM     10  C   UNL     1       2.071   2.088  19.531  0.00  0.00    +0.000 C 
ATOM     11  C   UNL     1       3.103   2.613  18.507  0.00  0.00    +0.000 C 
ATOM     12  C   UNL     1       2.384   3.199  17.278  0.00  0.00    +0.000 C 
ATOM     13  C   UNL     1       3.935   1.402  18.038  0.00  0.00    +0.000 C 
ATOM     14  C   UNL     1       4.023   3.698  19.140  0.00  0.00    +0.000 C 
ENDBRANCH   3   5
BRANCH   1  18
ATOM     15  C   UNL     1      -0.877  10.323  23.088  0.00  0.00    +0.000 C 
ATOM     16  C   UNL     1      -0.099   9.861  21.918  0.00  0.00    +0.000 A 
ATOM     17  C   UNL     1       0.527   8.678  21.585  0.00  0.00    +0.000 A 
ATOM     18  C   UNL     1       1.139   8.867  20.297  0.00  0.00    +0.000 A 
ATOM     19  C   UNL     1       0.816  10.174  19.950  0.00  0.00    +0.000 A 
ATOM     20  C   UNL     1       1.097  11.053  18.793  0.00  0.00    +0.000 C 
ATOM     21  O   UNL     1       0.071  10.765  20.927  0.00  0.00    +0.000 OA
ENDBRANCH   1  18
TORSDOF 2
ENDMDL
MODEL 7
REMARK VINA RESULT:      -7.2      4.574      7.407
REMARK  Name = 
REMARK  6 active torsions:
REMARK  status: ('A' for Active; 'I' for Inactive)
REMARK    1  A    between atoms: C_1  and  C_2
REMARK    2  A    between atoms: C_4  and  C_5
REMARK    3  A    between atoms: N_7  and  N_8
REMARK    4  A    between atoms: C_14  and  C_15
REMARK    5  A    between atoms: C_14  and  C_16
REMARK    6  A    between atoms: C_18  and  C_19
REMARK                            x       y       z     vdW  Elec       q    Type
REMARK                         _______ _______ _______ _____ _____    ______ ____
ROOT
ATOM      1  C   UNL     1       1.532   9.291  18.566  0.00  0.00    +0.000 C 
ATOM      2  O   UNL     1       1.959   9.698  17.493  0.00  0.00    +0.000 OA
ATOM      3  N   UNL     1       1.915   8.081  19.144  0.00  0.00    +0.000 N 
ATOM      4  H   UNL     1       1.412   7.740  19.950  0.00  0.00    +0.000 HD
ENDROOT
BRANCH   3   5
ATOM      5  N   UNL     1       2.797   7.229  18.513  0.00  0.00    +0.000 NA
ATOM      6  C   UNL     1       2.989   6.056  19.047  0.00  0.00    +0.000 C 
ATOM      7  C   UNL     1       2.469   5.607  20.390  0.00  0.00    +0.000 C 
ATOM      8  C   UNL     1       1.771   4.292  20.214  0.00  0.00    +0.000 C 
ATOM      9  O   UNL     1       0.604   4.121  20.564  0.00  0.00    +0.000 OA
ATOM     10  C   UNL     1       2.605   3.197  19.594  0.00  0.00    +0.000 C 
ATOM     11  C   UNL     1       3.170   3.642  18.226  0.00  0.00    +0.000 C 
ATOM     12  C   UNL     1       2.040   3.717  17.182  0.00  0.00    +0.000 C 
ATOM     13  C   UNL     1       4.167   2.557  17.771  0.00  0.00    +0.000 C 
ATOM     14  C   UNL     1       3.876   5.026  18.330  0.00  0.00    +0.000 C 
ENDBRANCH   3   5
BRANCH   1  18
ATOM     15  C   UNL     1      -0.818  12.140  22.175  0.00  0.00    +0.000 C 
ATOM     16  C   UNL     1      -0.372  11.339  21.015  0.00  0.00    +0.000 A 
ATOM     17  C   UNL     1       0.787  10.658  20.703  0.00  0.00    +0.000 A 
ATOM     18  C   UNL     1       0.606  10.085  19.396  0.00  0.00    +0.000 A 
ATOM     19  C   UNL     1      -0.676  10.470  19.024  0.00  0.00    +0.000 A 
ATOM     20  C   UNL     1      -1.531  10.263  17.835  0.00  0.00    +0.000 C 
ATOM     21  O   UNL     1      -1.260  11.221  20.002  0.00  0.00    +0.000 OA
ENDBRANCH   1  18
TORSDOF 2
ENDMDL
MODEL 8
REMARK VINA RESULT:      -7.0      3.501      6.540
REMARK  Name = 
REMARK  6 active torsions:
REMARK  status: ('A' for Active; 'I' for Inactive)
REMARK    1  A    between atoms: C_1  and  C_2
REMARK    2  A    between atoms: C_4  and  C_5
REMARK    3  A    between atoms: N_7  and  N_8
REMARK    4  A    between atoms: C_14  and  C_15
REMARK    5  A    between atoms: C_14  and  C_16
REMARK    6  A    between atoms: C_18  and  C_19
REMARK                            x       y       z     vdW  Elec       q    Type
REMARK                         _______ _______ _______ _____ _____    ______ ____
ROOT
ATOM      1  C   UNL     1       2.220   7.145  20.117  0.00  0.00    +0.000 C 
ATOM      2  O   UNL     1       3.036   7.090  19.206  0.00  0.00    +0.000 OA
ATOM      3  N   UNL     1       2.060   6.146  21.077  0.00  0.00    +0.000 N 
ATOM      4  H   UNL     1       1.270   6.188  21.703  0.00  0.00    +0.000 HD
ENDROOT
BRANCH   3   5
ATOM      5  N   UNL     1       2.808   4.989  21.042  0.00  0.00    +0.000 NA
ATOM      6  C   UNL     1       2.388   4.022  20.277  0.00  0.00    +0.000 C 
ATOM      7  C   UNL     1       1.062   3.985  19.557  0.00  0.00    +0.000 C 
ATOM      8  C   UNL     1       1.313   3.657  18.116  0.00  0.00    +0.000 C 
ATOM      9  O   UNL     1       0.916   4.382  17.205  0.00  0.00    +0.000 OA
ATOM     10  C   UNL     1       2.068   2.375  17.867  0.00  0.00    +0.000 C 
ATOM     11  C   UNL     1       3.421   2.378  18.613  0.00  0.00    +0.000 C 
ATOM     12  C   UNL     1       4.393   3.372  17.950  0.00  0.00    +0.000 C 
ATOM     13  C   UNL     1       4.021   0.964  18.475  0.00  0.00    +0.000 C 
ATOM     14  C   UNL     1       3.237   2.752  20.114  0.00  0.00    +0.000 C 
ENDBRANCH   3   5
BRANCH   1  18
ATOM     15  C   UNL     1      -0.794  10.921  21.941  0.00  0.00    +0.000 C 
ATOM     16  C   UNL     1       0.040   9.959  21.189  0.00  0.00    +0.000 A 
ATOM     17  C   UNL     1       0.688   8.786  21.515  0.00  0.00    +0.000 A 
ATOM     18  C   UNL     1       1.357   8.323  20.329  0.00  0.00    +0.000 A 
ATOM     19  C   UNL     1       1.043   9.273  19.363  0.00  0.00    +0.000 A 
ATOM     20  C   UNL     1       1.372   9.465  17.933  0.00  0.00    +0.000 C 
ATOM     21  O   UNL     1       0.250  10.251  19.885  0.00  0.00    +0.000 OA
ENDBRANCH   1  18
TORSDOF 2
ENDMDL
MODEL 9
REMARK VINA RESULT:      -7.0      5.531      7.203
REMARK  Name = 
REMARK  6 active torsions:
REMARK  status: ('A' for Active; 'I' for Inactive)
REMARK    1  A    between atoms: C_1  and  C_2
REMARK    2  A    between atoms: C_4  and  C_5
REMARK    3  A    between atoms: N_7  and  N_8
REMARK    4  A    between atoms: C_14  and  C_15
REMARK    5  A    between atoms: C_14  and  C_16
REMARK    6  A    between atoms: C_18  and  C_19
REMARK                            x       y       z     vdW  Elec       q    Type
REMARK                         _______ _______ _______ _____ _____    ______ ____
ROOT
ATOM      1  C   UNL     1       2.215   8.309  18.262  0.00  0.00    +0.000 C 
ATOM      2  O   UNL     1       2.172   8.850  17.165  0.00  0.00    +0.000 OA
ATOM      3  N   UNL     1       1.432   8.696  19.350  0.00  0.00    +0.000 N 
ATOM      4  H   UNL     1       1.628   8.308  20.260  0.00  0.00    +0.000 HD
ENDROOT
BRANCH   3   5
ATOM      5  N   UNL     1       0.561   9.761  19.266  0.00  0.00    +0.000 NA
ATOM      6  C   UNL     1      -0.209   9.993  20.291  0.00  0.00    +0.000 C 
ATOM      7  C   UNL     1      -0.359   9.098  21.496  0.00  0.00    +0.000 C 
ATOM      8  C   UNL     1      -0.172   9.928  22.730  0.00  0.00    +0.000 C 
ATOM      9  O   UNL     1       0.668   9.646  23.584  0.00  0.00    +0.000 OA
ATOM     10  C   UNL     1      -1.094  11.116  22.856  0.00  0.00    +0.000 C 
ATOM     11  C   UNL     1      -0.975  12.038  21.621  0.00  0.00    +0.000 C 
ATOM     12  C   UNL     1       0.379  12.771  21.631  0.00  0.00    +0.000 C 
ATOM     13  C   UNL     1      -2.090  13.098  21.735  0.00  0.00    +0.000 C 
ATOM     14  C   UNL     1      -1.121  11.230  20.298  0.00  0.00    +0.000 C 
ENDBRANCH   3   5
BRANCH   1  18
ATOM     15  C   UNL     1       5.863   4.656  18.392  0.00  0.00    +0.000 C 
ATOM     16  C   UNL     1       4.702   5.560  18.540  0.00  0.00    +0.000 A 
ATOM     17  C   UNL     1       4.287   6.706  17.895  0.00  0.00    +0.000 A 
ATOM     18  C   UNL     1       3.065   7.132  18.526  0.00  0.00    +0.000 A 
ATOM     19  C   UNL     1       2.839   6.182  19.515  0.00  0.00    +0.000 A 
ATOM     20  C   UNL     1       1.801   5.969  20.548  0.00  0.00    +0.000 C 
ATOM     21  O   UNL     1       3.824   5.239  19.517  0.00  0.00    +0.000 OA
ENDBRANCH   1  18
TORSDOF 2
ENDMDL
