MODEL 1
REMARK VINA RESULT:      -6.2      0.000      0.000
REMARK  Name = 
REMARK  9 active torsions:
REMARK  status: ('A' for Active; 'I' for Inactive)
REMARK    1  A    between atoms: N_1  and  CA_2
REMARK    2  A    between atoms: CA_2  and  C_3
REMARK    3  A    between atoms: CA_2  and  C_13
REMARK    4  A    between atoms: C_3  and  C_4
REMARK    5  A    between atoms: C_4  and  C_5
REMARK    6  A    between atoms: C_5  and  O_7
REMARK    7  A    between atoms: C_9  and  C_10
REMARK    8  A    between atoms: C_10  and  O_12
REMARK    9  A    between atoms: C_13  and  OXT_15
REMARK                            x       y       z     vdW  Elec       q    Type
REMARK                         _______ _______ _______ _____ _____    ______ ____
ROOT
ATOM      1  C   UNL     1       3.801   3.758  19.323  0.00  0.00    +0.000 C 
ATOM      2  C   UNL     1       2.524   4.417  18.795  0.00  0.00    +0.000 C 
ATOM      3  C   UNL     1       2.740   4.329  20.273  0.00  0.00    +0.000 C 
ENDROOT
BRANCH   1   4
ATOM      4  C   UNL     1       3.911   2.276  19.204  0.00  0.00    +0.000 C 
ATOM      5  O   UNL     1       3.096   1.638  18.561  0.00  0.00    +0.000 OA
BRANCH   4   6
ATOM      6  O   UNL     1       4.963   1.744  19.854  0.00  0.00    +0.000 OA
ATOM      7  H   UNL     1       4.744   1.236  20.661  0.00  0.00    +0.000 HD
ENDBRANCH   4   6
ENDBRANCH   1   4
BRANCH   3   8
ATOM      8  C   UNL     1       1.940   3.469  21.182  0.00  0.00    +0.000 C 
ATOM      9  O   UNL     1       2.417   3.097  22.244  0.00  0.00    +0.000 OA
BRANCH   8  10
ATOM     10  O   UNL     1       0.719   3.090  20.757  0.00  0.00    +0.000 OA
ATOM     11  H   UNL     1      -0.040   3.296  21.332  0.00  0.00    +0.000 HD
ENDBRANCH   8  10
ENDBRANCH   3   8
BRANCH   1  12
ATOM     12  C   UNL     1       5.108   4.525  19.134  0.00  0.00    +0.000 C 
BRANCH  12  13
ATOM     13  CA  UNL     1       5.643   4.531  17.690  0.00  0.00    +0.000 C 
BRANCH  13  14
ATOM     14  N   UNL     1       5.289   3.332  16.885  0.00  0.00    +0.000 NA
ATOM     15  H1  UNL     1       6.149   2.887  16.537  0.00  0.00    +0.000 HD
ATOM     16  H2  UNL     1       4.810   3.625  16.027  0.00  0.00    +0.000 HD
ENDBRANCH  13  14
BRANCH  13  17
ATOM     17  C   UNL     1       7.178   4.656  17.699  0.00  0.00    +0.000 C 
ATOM     18  O   UNL     1       7.875   4.741  18.698  0.00  0.00    +0.000 OA
BRANCH  17  19
ATOM     19  OXT UNL     1       7.675   4.690  16.435  0.00  0.00    +0.000 OA
ATOM     20  HXT UNL     1       7.894   3.758  16.189  0.00  0.00    +0.000 HD
ENDBRANCH  17  19
ENDBRANCH  13  17
ENDBRANCH  12  13
ENDBRANCH   1  12
TORSDOF 9
ENDMDL
MODEL 2
REMARK VINA RESULT:      -6.2      2.125      2.924
REMARK  Name = 
REMARK  9 active torsions:
REMARK  status: ('A' for Active; 'I' for Inactive)
REMARK    1  A    between atoms: N_1  and  CA_2
REMARK    2  A    between atoms: CA_2  and  C_3
REMARK    3  A    between atoms: CA_2  and  C_13
REMARK    4  A    between atoms: C_3  and  C_4
REMARK    5  A    between atoms: C_4  and  C_5
REMARK    6  A    between atoms: C_5  and  O_7
REMARK    7  A    between atoms: C_9  and  C_10
REMARK    8  A    between atoms: C_10  and  O_12
REMARK    9  A    between atoms: C_13  and  OXT_15
REMARK                            x       y       z     vdW  Elec       q    Type
REMARK                         _______ _______ _______ _____ _____    ______ ____
ROOT
ATOM      1  C   UNL     1       4.601   4.592  17.803  0.00  0.00    +0.000 C 
ATOM      2  C   UNL     1       3.401   3.761  17.342  0.00  0.00    +0.000 C 
ATOM      3  C   UNL     1       3.162   5.105  17.955  0.00  0.00    +0.000 C 
ENDROOT
BRANCH   1   4
ATOM      4  C   UNL     1       5.319   4.145  19.030  0.00  0.00    +0.000 C 
ATOM      5  O   UNL     1       6.000   4.922  19.675  0.00  0.00    +0.000 OA
BRANCH   4   6
ATOM      6  O   UNL     1       5.140   2.846  19.336  0.00  0.00    +0.000 OA
ATOM      7  H   UNL     1       5.062   2.242  18.570  0.00  0.00    +0.000 HD
ENDBRANCH   4   6
ENDBRANCH   1   4
BRANCH   3   8
ATOM      8  C   UNL     1       2.527   5.315  19.281  0.00  0.00    +0.000 C 
ATOM      9  O   UNL     1       1.586   4.616  19.623  0.00  0.00    +0.000 OA
BRANCH   8  10
ATOM     10  O   UNL     1       3.000   6.326  20.037  0.00  0.00    +0.000 OA
ATOM     11  H   UNL     1       2.651   7.218  19.863  0.00  0.00    +0.000 HD
ENDBRANCH   8  10
ENDBRANCH   3   8
BRANCH   1  12
ATOM     12  C   UNL     1       5.485   5.197  16.715  0.00  0.00    +0.000 C 
BRANCH  12  13
ATOM     13  CA  UNL     1       6.593   4.262  16.199  0.00  0.00    +0.000 C 
BRANCH  13  14
ATOM     14  N   UNL     1       7.850   4.277  16.994  0.00  0.00    +0.000 NA
ATOM     15  H1  UNL     1       8.644   4.485  16.374  0.00  0.00    +0.000 HD
ATOM     16  H2  UNL     1       8.053   3.331  17.331  0.00  0.00    +0.000 HD
ENDBRANCH  13  14
BRANCH  13  17
ATOM     17  C   UNL     1       6.952   4.624  14.745  0.00  0.00    +0.000 C 
ATOM     18  O   UNL     1       7.738   5.494  14.407  0.00  0.00    +0.000 OA
BRANCH  17  19
ATOM     19  OXT UNL     1       6.254   3.864  13.863  0.00  0.00    +0.000 OA
ATOM     20  HXT UNL     1       5.466   3.514  14.348  0.00  0.00    +0.000 HD
ENDBRANCH  17  19
ENDBRANCH  13  17
ENDBRANCH  12  13
ENDBRANCH   1  12
TORSDOF 9
ENDMDL
MODEL 3
REMARK VINA RESULT:      -6.2      1.307      1.447
REMARK  Name = 
REMARK  9 active torsions:
REMARK  status: ('A' for Active; 'I' for Inactive)
REMARK    1  A    between atoms: N_1  and  CA_2
REMARK    2  A    between atoms: CA_2  and  C_3
REMARK    3  A    between atoms: CA_2  and  C_13
REMARK    4  A    between atoms: C_3  and  C_4
REMARK    5  A    between atoms: C_4  and  C_5
REMARK    6  A    between atoms: C_5  and  O_7
REMARK    7  A    between atoms: C_9  and  C_10
REMARK    8  A    between atoms: C_10  and  O_12
REMARK    9  A    between atoms: C_13  and  OXT_15
REMARK                            x       y       z     vdW  Elec       q    Type
REMARK                         _______ _______ _______ _____ _____    ______ ____
ROOT
ATOM      1  C   UNL     1       3.739   4.008  19.321  0.00  0.00    +0.000 C 
ATOM      2  C   UNL     1       2.433   4.558  18.741  0.00  0.00    +0.000 C 
ATOM      3  C   UNL     1       2.591   4.477  20.226  0.00  0.00    +0.000 C 
ENDROOT
BRANCH   1   4
ATOM      4  C   UNL     1       3.984   2.543  19.201  0.00  0.00    +0.000 C 
ATOM      5  O   UNL     1       3.328   1.860  18.434  0.00  0.00    +0.000 OA
BRANCH   4   6
ATOM      6  O   UNL     1       4.964   2.077  19.996  0.00  0.00    +0.000 OA
ATOM      7  H   UNL     1       5.787   2.607  20.002  0.00  0.00    +0.000 HD
ENDBRANCH   4   6
ENDBRANCH   1   4
BRANCH   3   8
ATOM      8  C   UNL     1       1.832   3.544  21.096  0.00  0.00    +0.000 C 
ATOM      9  O   UNL     1       2.278   3.229  22.189  0.00  0.00    +0.000 OA
BRANCH   8  10
ATOM     10  O   UNL     1       0.684   3.037  20.603  0.00  0.00    +0.000 OA
ATOM     11  H   UNL     1      -0.148   3.325  21.017  0.00  0.00    +0.000 HD
ENDBRANCH   8  10
ENDBRANCH   3   8
BRANCH   1  12
ATOM     12  C   UNL     1       4.980   4.889  19.192  0.00  0.00    +0.000 C 
BRANCH  12  13
ATOM     13  CA  UNL     1       5.742   4.729  17.865  0.00  0.00    +0.000 C 
BRANCH  13  14
ATOM     14  N   UNL     1       7.162   4.307  18.002  0.00  0.00    +0.000 NA
ATOM     15  H1  UNL     1       7.276   3.361  17.613  0.00  0.00    +0.000 HD
ATOM     16  H2  UNL     1       7.387   4.185  18.995  0.00  0.00    +0.000 HD
ENDBRANCH  13  14
BRANCH  13  17
ATOM     17  C   UNL     1       5.720   6.057  17.083  0.00  0.00    +0.000 C 
ATOM     18  O   UNL     1       4.736   6.757  16.908  0.00  0.00    +0.000 OA
BRANCH  17  19
ATOM     19  OXT UNL     1       6.945   6.347  16.574  0.00  0.00    +0.000 OA
ATOM     20  HXT UNL     1       7.434   5.491  16.501  0.00  0.00    +0.000 HD
ENDBRANCH  17  19
ENDBRANCH  13  17
ENDBRANCH  12  13
ENDBRANCH   1  12
TORSDOF 9
ENDMDL
MODEL 4
REMARK VINA RESULT:      -6.1      1.957      2.613
REMARK  Name = 
REMARK  9 active torsions:
REMARK  status: ('A' for Active; 'I' for Inactive)
REMARK    1  A    between atoms: N_1  and  CA_2
REMARK    2  A    between atoms: CA_2  and  C_3
REMARK    3  A    between atoms: CA_2  and  C_13
REMARK    4  A    between atoms: C_3  and  C_4
REMARK    5  A    between atoms: C_4  and  C_5
REMARK    6  A    between atoms: C_5  and  O_7
REMARK    7  A    between atoms: C_9  and  C_10
REMARK    8  A    between atoms: C_10  and  O_12
REMARK    9  A    between atoms: C_13  and  OXT_15
REMARK                            x       y       z     vdW  Elec       q    Type
REMARK                         _______ _______ _______ _____ _____    ______ ____
ROOT
ATOM      1  C   UNL     1       4.077   4.002  17.767  0.00  0.00    +0.000 C 
ATOM      2  C   UNL     1       2.729   3.277  17.718  0.00  0.00    +0.000 C 
ATOM      3  C   UNL     1       2.763   4.725  18.094  0.00  0.00    +0.000 C 
ENDROOT
BRANCH   1   4
ATOM      4  C   UNL     1       4.996   3.673  18.894  0.00  0.00    +0.000 C 
ATOM      5  O   UNL     1       5.758   4.511  19.344  0.00  0.00    +0.000 OA
BRANCH   4   6
ATOM      6  O   UNL     1       4.896   2.408  19.341  0.00  0.00    +0.000 OA
ATOM      7  H   UNL     1       5.071   1.712  18.675  0.00  0.00    +0.000 HD
ENDBRANCH   4   6
ENDBRANCH   1   4
BRANCH   3   8
ATOM      8  C   UNL     1       2.455   5.241  19.452  0.00  0.00    +0.000 C 
ATOM      9  O   UNL     1       1.555   4.735  20.106  0.00  0.00    +0.000 OA
BRANCH   8  10
ATOM     10  O   UNL     1       3.166   6.301  19.885  0.00  0.00    +0.000 OA
ATOM     11  H   UNL     1       4.122   6.306  19.698  0.00  0.00    +0.000 HD
ENDBRANCH   8  10
ENDBRANCH   3   8
BRANCH   1  12
ATOM     12  C   UNL     1       4.761   4.288  16.432  0.00  0.00    +0.000 C 
BRANCH  12  13
ATOM     13  CA  UNL     1       5.669   5.531  16.432  0.00  0.00    +0.000 C 
BRANCH  13  14
ATOM     14  N   UNL     1       5.218   6.637  15.546  0.00  0.00    +0.000 NA
ATOM     15  H1  UNL     1       4.810   7.389  16.118  0.00  0.00    +0.000 HD
ATOM     16  H2  UNL     1       4.429   6.318  14.975  0.00  0.00    +0.000 HD
ENDBRANCH  13  14
BRANCH  13  17
ATOM     17  C   UNL     1       7.097   5.140  16.007  0.00  0.00    +0.000 C 
ATOM     18  O   UNL     1       7.577   5.314  14.898  0.00  0.00    +0.000 OA
BRANCH  17  19
ATOM     19  OXT UNL     1       7.764   4.538  17.025  0.00  0.00    +0.000 OA
ATOM     20  HXT UNL     1       8.664   4.948  17.057  0.00  0.00    +0.000 HD
ENDBRANCH  17  19
ENDBRANCH  13  17
ENDBRANCH  12  13
ENDBRANCH   1  12
TORSDOF 9
ENDMDL
MODEL 5
REMARK VINA RESULT:      -6.1      2.188      5.405
REMARK  Name = 
REMARK  9 active torsions:
REMARK  status: ('A' for Active; 'I' for Inactive)
REMARK    1  A    between atoms: N_1  and  CA_2
REMARK    2  A    between atoms: CA_2  and  C_3
REMARK    3  A    between atoms: CA_2  and  C_13
REMARK    4  A    between atoms: C_3  and  C_4
REMARK    5  A    between atoms: C_4  and  C_5
REMARK    6  A    between atoms: C_5  and  O_7
REMARK    7  A    between atoms: C_9  and  C_10
REMARK    8  A    between atoms: C_10  and  O_12
REMARK    9  A    between atoms: C_13  and  OXT_15
REMARK                            x       y       z     vdW  Elec       q    Type
REMARK                         _______ _______ _______ _____ _____    ______ ____
ROOT
ATOM      1  C   UNL     1       4.728   4.655  17.317  0.00  0.00    +0.000 C 
ATOM      2  C   UNL     1       4.620   6.042  16.676  0.00  0.00    +0.000 C 
ATOM      3  C   UNL     1       5.720   5.124  16.242  0.00  0.00    +0.000 C 
ENDROOT
BRANCH   1   4
ATOM      4  C   UNL     1       5.205   4.582  18.727  0.00  0.00    +0.000 C 
ATOM      5  O   UNL     1       5.066   5.527  19.483  0.00  0.00    +0.000 OA
BRANCH   4   6
ATOM      6  O   UNL     1       5.779   3.411  19.059  0.00  0.00    +0.000 OA
ATOM      7  H   UNL     1       6.423   3.060  18.411  0.00  0.00    +0.000 HD
ENDBRANCH   4   6
ENDBRANCH   1   4
BRANCH   3   8
ATOM      8  C   UNL     1       7.158   5.352  16.532  0.00  0.00    +0.000 C 
ATOM      9  O   UNL     1       7.888   4.403  16.777  0.00  0.00    +0.000 OA
BRANCH   8  10
ATOM     10  O   UNL     1       7.587   6.629  16.562  0.00  0.00    +0.000 OA
ATOM     11  H   UNL     1       7.096   7.279  16.028  0.00  0.00    +0.000 HD
ENDBRANCH   8  10
ENDBRANCH   3   8
BRANCH   1  12
ATOM     12  C   UNL     1       3.663   3.630  16.935  0.00  0.00    +0.000 C 
BRANCH  12  13
ATOM     13  CA  UNL     1       2.921   3.005  18.130  0.00  0.00    +0.000 C 
BRANCH  13  14
ATOM     14  N   UNL     1       3.092   1.534  18.277  0.00  0.00    +0.000 NA
ATOM     15  H1  UNL     1       3.884   1.343  18.905  0.00  0.00    +0.000 HD
ATOM     16  H2  UNL     1       3.397   1.135  17.383  0.00  0.00    +0.000 HD
ENDBRANCH  13  14
BRANCH  13  17
ATOM     17  C   UNL     1       1.411   3.294  18.022  0.00  0.00    +0.000 C 
ATOM     18  O   UNL     1       0.908   4.179  17.349  0.00  0.00    +0.000 OA
BRANCH  17  19
ATOM     19  OXT UNL     1       0.692   2.447  18.803  0.00  0.00    +0.000 OA
ATOM     20  HXT UNL     1       1.184   2.358  19.656  0.00  0.00    +0.000 HD
ENDBRANCH  17  19
ENDBRANCH  13  17
ENDBRANCH  12  13
ENDBRANCH   1  12
TORSDOF 9
ENDMDL
MODEL 6
REMARK VINA RESULT:      -6.0      2.212      2.987
REMARK  Name = 
REMARK  9 active torsions:
REMARK  status: ('A' for Active; 'I' for Inactive)
REMARK    1  A    between atoms: N_1  and  CA_2
REMARK    2  A    between atoms: CA_2  and  C_3
REMARK    3  A    between atoms: CA_2  and  C_13
REMARK    4  A    between atoms: C_3  and  C_4
REMARK    5  A    between atoms: C_4  and  C_5
REMARK    6  A    between atoms: C_5  and  O_7
REMARK    7  A    between atoms: C_9  and  C_10
REMARK    8  A    between atoms: C_10  and  O_12
REMARK    9  A    between atoms: C_13  and  OXT_15
REMARK                            x       y       z     vdW  Elec       q    Type
REMARK                         _______ _______ _______ _____ _____    ______ ____
ROOT
ATOM      1  C   UNL     1       4.400   4.911  17.801  0.00  0.00    +0.000 C 
ATOM      2  C   UNL     1       3.250   3.948  17.496  0.00  0.00    +0.000 C 
ATOM      3  C   UNL     1       2.944   5.267  18.131  0.00  0.00    +0.000 C 
ENDROOT
BRANCH   1   4
ATOM      4  C   UNL     1       5.311   4.564  18.928  0.00  0.00    +0.000 C 
ATOM      5  O   UNL     1       5.915   5.432  19.534  0.00  0.00    +0.000 OA
BRANCH   4   6
ATOM      6  O   UNL     1       5.389   3.247  19.193  0.00  0.00    +0.000 OA
ATOM      7  H   UNL     1       6.196   2.801  18.867  0.00  0.00    +0.000 HD
ENDBRANCH   4   6
ENDBRANCH   1   4
BRANCH   3   8
ATOM      8  C   UNL     1       2.461   5.428  19.526  0.00  0.00    +0.000 C 
ATOM      9  O   UNL     1       1.864   4.514  20.074  0.00  0.00    +0.000 OA
BRANCH   8  10
ATOM     10  O   UNL     1       2.665   6.624  20.116  0.00  0.00    +0.000 OA
ATOM     11  H   UNL     1       2.430   7.420  19.608  0.00  0.00    +0.000 HD
ENDBRANCH   8  10
ENDBRANCH   3   8
BRANCH   1  12
ATOM     12  C   UNL     1       5.070   5.592  16.608  0.00  0.00    +0.000 C 
BRANCH  12  13
ATOM     13  CA  UNL     1       6.563   5.258  16.438  0.00  0.00    +0.000 C 
BRANCH  13  14
ATOM     14  N   UNL     1       7.491   6.396  16.673  0.00  0.00    +0.000 NA
ATOM     15  H1  UNL     1       7.064   7.055  17.338  0.00  0.00    +0.000 HD
ATOM     16  H2  UNL     1       7.579   6.949  15.814  0.00  0.00    +0.000 HD
ENDBRANCH  13  14
BRANCH  13  17
ATOM     17  C   UNL     1       6.823   4.724  15.016  0.00  0.00    +0.000 C 
ATOM     18  O   UNL     1       6.291   3.744  14.521  0.00  0.00    +0.000 OA
BRANCH  17  19
ATOM     19  OXT UNL     1       7.758   5.472  14.375  0.00  0.00    +0.000 OA
ATOM     20  HXT UNL     1       7.418   5.631  13.460  0.00  0.00    +0.000 HD
ENDBRANCH  17  19
ENDBRANCH  13  17
ENDBRANCH  12  13
ENDBRANCH   1  12
TORSDOF 9
ENDMDL
MODEL 7
REMARK VINA RESULT:      -6.0      2.100      5.296
REMARK  Name = 
REMARK  9 active torsions:
REMARK  status: ('A' for Active; 'I' for Inactive)
REMARK    1  A    between atoms: N_1  and  CA_2
REMARK    2  A    between atoms: CA_2  and  C_3
REMARK    3  A    between atoms: CA_2  and  C_13
REMARK    4  A    between atoms: C_3  and  C_4
REMARK    5  A    between atoms: C_4  and  C_5
REMARK    6  A    between atoms: C_5  and  O_7
REMARK    7  A    between atoms: C_9  and  C_10
REMARK    8  A    between atoms: C_10  and  O_12
REMARK    9  A    between atoms: C_13  and  OXT_15
REMARK                            x       y       z     vdW  Elec       q    Type
REMARK                         _______ _______ _______ _____ _____    ______ ____
ROOT
ATOM      1  C   UNL     1       4.682   4.726  17.468  0.00  0.00    +0.000 C 
ATOM      2  C   UNL     1       4.551   6.066  16.740  0.00  0.00    +0.000 C 
ATOM      3  C   UNL     1       5.700   5.167  16.407  0.00  0.00    +0.000 C 
ENDROOT
BRANCH   1   4
ATOM      4  C   UNL     1       5.102   4.756  18.898  0.00  0.00    +0.000 C 
ATOM      5  O   UNL     1       5.933   3.972  19.322  0.00  0.00    +0.000 OA
BRANCH   4   6
ATOM      6  O   UNL     1       4.490   5.700  19.636  0.00  0.00    +0.000 OA
ATOM      7  H   UNL     1       4.074   5.382  20.463  0.00  0.00    +0.000 HD
ENDBRANCH   4   6
ENDBRANCH   1   4
BRANCH   3   8
ATOM      8  C   UNL     1       7.116   5.467  16.739  0.00  0.00    +0.000 C 
ATOM      9  O   UNL     1       7.512   6.623  16.730  0.00  0.00    +0.000 OA
BRANCH   8  10
ATOM     10  O   UNL     1       7.926   4.419  16.989  0.00  0.00    +0.000 OA
ATOM     11  H   UNL     1       8.326   3.970  16.223  0.00  0.00    +0.000 HD
ENDBRANCH   8  10
ENDBRANCH   3   8
BRANCH   1  12
ATOM     12  C   UNL     1       3.671   3.639  17.109  0.00  0.00    +0.000 C 
BRANCH  12  13
ATOM     13  CA  UNL     1       2.920   3.041  18.312  0.00  0.00    +0.000 C 
BRANCH  13  14
ATOM     14  N   UNL     1       2.653   1.580  18.223  0.00  0.00    +0.000 NA
ATOM     15  H1  UNL     1       2.851   1.141  19.132  0.00  0.00    +0.000 HD
ATOM     16  H2  UNL     1       3.337   1.145  17.595  0.00  0.00    +0.000 HD
ENDBRANCH  13  14
BRANCH  13  17
ATOM     17  C   UNL     1       1.568   3.756  18.497  0.00  0.00    +0.000 C 
ATOM     18  O   UNL     1       0.978   3.889  19.558  0.00  0.00    +0.000 OA
BRANCH  17  19
ATOM     19  OXT UNL     1       1.084   4.205  17.311  0.00  0.00    +0.000 OA
ATOM     20  HXT UNL     1       1.425   5.126  17.194  0.00  0.00    +0.000 HD
ENDBRANCH  17  19
ENDBRANCH  13  17
ENDBRANCH  12  13
ENDBRANCH   1  12
TORSDOF 9
ENDMDL
MODEL 8
REMARK VINA RESULT:      -6.0      1.370      1.754
REMARK  Name = 
REMARK  9 active torsions:
REMARK  status: ('A' for Active; 'I' for Inactive)
REMARK    1  A    between atoms: N_1  and  CA_2
REMARK    2  A    between atoms: CA_2  and  C_3
REMARK    3  A    between atoms: CA_2  and  C_13
REMARK    4  A    between atoms: C_3  and  C_4
REMARK    5  A    between atoms: C_4  and  C_5
REMARK    6  A    between atoms: C_5  and  O_7
REMARK    7  A    between atoms: C_9  and  C_10
REMARK    8  A    between atoms: C_10  and  O_12
REMARK    9  A    between atoms: C_13  and  OXT_15
REMARK                            x       y       z     vdW  Elec       q    Type
REMARK                         _______ _______ _______ _____ _____    ______ ____
ROOT
ATOM      1  C   UNL     1       3.751   3.965  19.395  0.00  0.00    +0.000 C 
ATOM      2  C   UNL     1       2.447   4.369  18.704  0.00  0.00    +0.000 C 
ATOM      3  C   UNL     1       2.531   4.440  20.196  0.00  0.00    +0.000 C 
ENDROOT
BRANCH   1   4
ATOM      4  C   UNL     1       4.092   2.514  19.430  0.00  0.00    +0.000 C 
ATOM      5  O   UNL     1       4.913   2.083  20.221  0.00  0.00    +0.000 OA
BRANCH   4   6
ATOM      6  O   UNL     1       3.424   1.765  18.534  0.00  0.00    +0.000 OA
ATOM      7  H   UNL     1       3.186   2.220  17.701  0.00  0.00    +0.000 HD
ENDBRANCH   4   6
ENDBRANCH   1   4
BRANCH   3   8
ATOM      8  C   UNL     1       1.785   3.545  21.116  0.00  0.00    +0.000 C 
ATOM      9  O   UNL     1       2.257   3.262  22.207  0.00  0.00    +0.000 OA
BRANCH   8  10
ATOM     10  O   UNL     1       0.620   3.034  20.670  0.00  0.00    +0.000 OA
ATOM     11  H   UNL     1       0.568   2.791  19.729  0.00  0.00    +0.000 HD
ENDBRANCH   8  10
ENDBRANCH   3   8
BRANCH   1  12
ATOM     12  C   UNL     1       4.941   4.910  19.240  0.00  0.00    +0.000 C 
BRANCH  12  13
ATOM     13  CA  UNL     1       5.741   4.721  17.938  0.00  0.00    +0.000 C 
BRANCH  13  14
ATOM     14  N   UNL     1       7.159   4.313  18.126  0.00  0.00    +0.000 NA
ATOM     15  H1  UNL     1       7.195   3.450  18.686  0.00  0.00    +0.000 HD
ATOM     16  H2  UNL     1       7.637   5.001  18.717  0.00  0.00    +0.000 HD
ENDBRANCH  13  14
BRANCH  13  17
ATOM     17  C   UNL     1       5.732   6.027  17.121  0.00  0.00    +0.000 C 
ATOM     18  O   UNL     1       6.541   6.326  16.257  0.00  0.00    +0.000 OA
BRANCH  17  19
ATOM     19  OXT UNL     1       4.713   6.839  17.504  0.00  0.00    +0.000 OA
ATOM     20  HXT UNL     1       4.645   7.553  16.823  0.00  0.00    +0.000 HD
ENDBRANCH  17  19
ENDBRANCH  13  17
ENDBRANCH  12  13
ENDBRANCH   1  12
TORSDOF 9
ENDMDL
MODEL 9
REMARK VINA RESULT:      -6.0      1.653      2.152
REMARK  Name = 
REMARK  9 active torsions:
REMARK  status: ('A' for Active; 'I' for Inactive)
REMARK    1  A    between atoms: N_1  and  CA_2
REMARK    2  A    between atoms: CA_2  and  C_3
REMARK    3  A    between atoms: CA_2  and  C_13
REMARK    4  A    between atoms: C_3  and  C_4
REMARK    5  A    between atoms: C_4  and  C_5
REMARK    6  A    between atoms: C_5  and  O_7
REMARK    7  A    between atoms: C_9  and  C_10
REMARK    8  A    between atoms: C_10  and  O_12
REMARK    9  A    between atoms: C_13  and  OXT_15
REMARK                            x       y       z     vdW  Elec       q    Type
REMARK                         _______ _______ _______ _____ _____    ______ ____
ROOT
ATOM      1  C   UNL     1       3.668   3.852  18.144  0.00  0.00    +0.000 C 
ATOM      2  C   UNL     1       2.716   3.595  16.973  0.00  0.00    +0.000 C 
ATOM      3  C   UNL     1       2.169   4.167  18.243  0.00  0.00    +0.000 C 
ENDROOT
BRANCH   1   4
ATOM      4  C   UNL     1       4.186   2.667  18.885  0.00  0.00    +0.000 C 
ATOM      5  O   UNL     1       4.824   2.802  19.914  0.00  0.00    +0.000 OA
BRANCH   4   6
ATOM      6  O   UNL     1       3.884   1.483  18.319  0.00  0.00    +0.000 OA
ATOM      7  H   UNL     1       4.586   0.804  18.368  0.00  0.00    +0.000 HD
ENDBRANCH   4   6
ENDBRANCH   1   4
BRANCH   3   8
ATOM      8  C   UNL     1       1.261   3.436  19.162  0.00  0.00    +0.000 C 
ATOM      9  O   UNL     1       0.788   2.361  18.825  0.00  0.00    +0.000 OA
BRANCH   8  10
ATOM     10  O   UNL     1       0.954   4.034  20.331  0.00  0.00    +0.000 OA
ATOM     11  H   UNL     1       0.128   3.764  20.769  0.00  0.00    +0.000 HD
ENDBRANCH   8  10
ENDBRANCH   3   8
BRANCH   1  12
ATOM     12  C   UNL     1       4.654   5.009  17.997  0.00  0.00    +0.000 C 
BRANCH  12  13
ATOM     13  CA  UNL     1       5.951   4.653  17.249  0.00  0.00    +0.000 C 
BRANCH  13  14
ATOM     14  N   UNL     1       7.100   4.290  18.121  0.00  0.00    +0.000 NA
ATOM     15  H1  UNL     1       7.975   4.611  17.685  0.00  0.00    +0.000 HD
ATOM     16  H2  UNL     1       7.205   3.270  18.142  0.00  0.00    +0.000 HD
ENDBRANCH  13  14
BRANCH  13  17
ATOM     17  C   UNL     1       6.388   5.834  16.361  0.00  0.00    +0.000 C 
ATOM     18  O   UNL     1       7.533   6.239  16.239  0.00  0.00    +0.000 OA
BRANCH  17  19
ATOM     19  OXT UNL     1       5.323   6.402  15.741  0.00  0.00    +0.000 OA
ATOM     20  HXT UNL     1       4.548   6.293  16.346  0.00  0.00    +0.000 HD
ENDBRANCH  17  19
ENDBRANCH  13  17
ENDBRANCH  12  13
ENDBRANCH   1  12
TORSDOF 9
ENDMDL
