MODEL 1
REMARK VINA RESULT:      -7.4      0.000      0.000
REMARK  Name = 
REMARK  14 active torsions:
REMARK  status: ('A' for Active; 'I' for Inactive)
REMARK    1  A    between atoms: C_1  and  C_2
REMARK    2  A    between atoms: C_3  and  C_4
REMARK    3  A    between atoms: C_4  and  N_5
REMARK    4  A    between atoms: N_5  and  C_6
REMARK    5  A    between atoms: C_6  and  C_7
REMARK    6  A    between atoms: C_7  and  C_8
REMARK    7  A    between atoms: C_8  and  C_9
REMARK    8  A    between atoms: C_9  and  C_10
REMARK    9  A    between atoms: C_10  and  C_11
REMARK   10  A    between atoms: C_11  and  C_12
REMARK   11  A    between atoms: C_12  and  C_13
REMARK   12  A    between atoms: C_13  and  N_14
REMARK   13  A    between atoms: C_19  and  C_20
REMARK   14  A    between atoms: N_27  and  C_28
REMARK                            x       y       z     vdW  Elec       q    Type
REMARK                         _______ _______ _______ _____ _____    ______ ____
ROOT
ATOM      1  C   UNL     1       1.438   9.852  19.130  0.00  0.00    +0.000 C 
ATOM      2  C   UNL     1       0.558  10.104  20.315  0.00  0.00    +0.000 A 
ATOM      3  C   UNL     1       0.110   9.151  21.221  0.00  0.00    +0.000 A 
ATOM      4  C   UNL     1      -0.594   9.837  22.227  0.00  0.00    +0.000 A 
ATOM      5  C   UNL     1      -0.600  11.193  21.940  0.00  0.00    +0.000 A 
ATOM      6  N   UNL     1       0.147  11.369  20.756  0.00  0.00    +0.000 N 
ENDROOT
BRANCH   5   7
ATOM      7  C   UNL     1      -1.322  12.218  22.720  0.00  0.00    +0.000 A 
ATOM      8  C   UNL     1      -0.689  13.437  23.020  0.00  0.00    +0.000 A 
ATOM      9  C   UNL     1      -1.359  14.445  23.720  0.00  0.00    +0.000 A 
ATOM     10  C   UNL     1      -2.680  14.251  24.109  0.00  0.00    +0.000 A 
ATOM     11 CL   UNL     1      -3.534  15.513  24.906  0.00  0.00    +0.000 Cl
ATOM     12  C   UNL     1      -3.314  13.039  23.856  0.00  0.00    +0.000 A 
ATOM     13  C   UNL     1      -2.621  12.014  23.204  0.00  0.00    +0.000 A 
ENDBRANCH   5   7
BRANCH   6  14
ATOM     14  C   UNL     1       0.455  12.611  20.110  0.00  0.00    +0.000 A 
ATOM     15  C   UNL     1       1.686  13.243  20.336  0.00  0.00    +0.000 A 
ATOM     16  C   UNL     1       1.942  14.507  19.795  0.00  0.00    +0.000 A 
ATOM     17  C   UNL     1       0.995  15.120  18.981  0.00  0.00    +0.000 A 
ATOM     18 CL   UNL     1       1.305  16.679  18.325  0.00  0.00    +0.000 Cl
ATOM     19  C   UNL     1      -0.213  14.484  18.710  0.00  0.00    +0.000 A 
ATOM     20  C   UNL     1      -0.490  13.241  19.287  0.00  0.00    +0.000 A 
ENDBRANCH   6  14
BRANCH   3  21
ATOM     21  C   UNL     1       0.320   7.677  21.164  0.00  0.00    +0.000 C 
BRANCH  21  22
ATOM     22  N   UNL     1       1.756   7.433  21.052  0.00  0.00    +0.000 NA
ATOM     23  H   UNL     1       2.132   7.292  21.990  0.00  0.00    +0.000 HD
BRANCH  22  24
ATOM     24  C   UNL     1       2.057   6.270  20.221  0.00  0.00    +0.000 C 
BRANCH  24  25
ATOM     25  C   UNL     1       2.000   4.980  21.037  0.00  0.00    +0.000 C 
BRANCH  25  26
ATOM     26  C   UNL     1       1.077   3.949  20.403  0.00  0.00    +0.000 C 
BRANCH  26  27
ATOM     27  C   UNL     1       1.892   2.717  20.007  0.00  0.00    +0.000 C 
BRANCH  27  28
ATOM     28  C   UNL     1       1.944   2.559  18.493  0.00  0.00    +0.000 C 
BRANCH  28  29
ATOM     29  C   UNL     1       3.389   2.587  18.007  0.00  0.00    +0.000 C 
BRANCH  29  30
ATOM     30  C   UNL     1       3.592   3.650  16.931  0.00  0.00    +0.000 C 
BRANCH  30  31
ATOM     31  C   UNL     1       5.082   3.861  16.676  0.00  0.00    +0.000 C 
BRANCH  31  32
ATOM     32  N   UNL     1       5.751   4.301  17.885  0.00  0.00    +0.000 N 
ATOM     33  C   UNL     1       7.077   4.553  17.938  0.00  0.00    +0.000 C 
ATOM     34  N   UNL     1       7.976   4.222  17.087  0.00  0.00    +0.000 NA
ATOM     35  N   UNL     1       7.422   5.242  19.038  0.00  0.00    +0.000 N 
ATOM     36  H   UNL     1       5.197   4.918  18.466  0.00  0.00    +0.000 HD
ATOM     37  H   UNL     1       7.545   3.710  16.319  0.00  0.00    +0.000 HD
ATOM     38  H   UNL     1       6.949   4.952  19.883  0.00  0.00    +0.000 HD
ATOM     39  H   UNL     1       8.434   5.208  19.153  0.00  0.00    +0.000 HD
ENDBRANCH  31  32
ENDBRANCH  30  31
ENDBRANCH  29  30
ENDBRANCH  28  29
ENDBRANCH  27  28
ENDBRANCH  26  27
ENDBRANCH  25  26
ENDBRANCH  24  25
ENDBRANCH  22  24
ENDBRANCH  21  22
ENDBRANCH   3  21
TORSDOF 13
ENDMDL
MODEL 2
REMARK VINA RESULT:      -7.2      2.248      3.295
REMARK  Name = 
REMARK  14 active torsions:
REMARK  status: ('A' for Active; 'I' for Inactive)
REMARK    1  A    between atoms: C_1  and  C_2
REMARK    2  A    between atoms: C_3  and  C_4
REMARK    3  A    between atoms: C_4  and  N_5
REMARK    4  A    between atoms: N_5  and  C_6
REMARK    5  A    between atoms: C_6  and  C_7
REMARK    6  A    between atoms: C_7  and  C_8
REMARK    7  A    between atoms: C_8  and  C_9
REMARK    8  A    between atoms: C_9  and  C_10
REMARK    9  A    between atoms: C_10  and  C_11
REMARK   10  A    between atoms: C_11  and  C_12
REMARK   11  A    between atoms: C_12  and  C_13
REMARK   12  A    between atoms: C_13  and  N_14
REMARK   13  A    between atoms: C_19  and  C_20
REMARK   14  A    between atoms: N_27  and  C_28
REMARK                            x       y       z     vdW  Elec       q    Type
REMARK                         _______ _______ _______ _____ _____    ______ ____
ROOT
ATOM      1  C   UNL     1       2.598  11.858  17.838  0.00  0.00    +0.000 C 
ATOM      2  C   UNL     1       1.447  11.396  18.677  0.00  0.00    +0.000 A 
ATOM      3  C   UNL     1       1.034  10.081  18.850  0.00  0.00    +0.000 A 
ATOM      4  C   UNL     1      -0.006  10.096  19.797  0.00  0.00    +0.000 A 
ATOM      5  C   UNL     1      -0.249  11.403  20.190  0.00  0.00    +0.000 A 
ATOM      6  N   UNL     1       0.680  12.219  19.512  0.00  0.00    +0.000 N 
ENDROOT
BRANCH   5   7
ATOM      7  C   UNL     1      -1.333  11.822  21.102  0.00  0.00    +0.000 A 
ATOM      8  C   UNL     1      -2.429  12.541  20.594  0.00  0.00    +0.000 A 
ATOM      9  C   UNL     1      -3.492  12.917  21.422  0.00  0.00    +0.000 A 
ATOM     10  C   UNL     1      -3.478  12.556  22.765  0.00  0.00    +0.000 A 
ATOM     11 CL   UNL     1      -4.814  12.950  23.773  0.00  0.00    +0.000 Cl
ATOM     12  C   UNL     1      -2.387  11.877  23.297  0.00  0.00    +0.000 A 
ATOM     13  C   UNL     1      -1.302  11.553  22.477  0.00  0.00    +0.000 A 
ENDBRANCH   5   7
BRANCH   6  14
ATOM     14  C   UNL     1       0.838  13.637  19.649  0.00  0.00    +0.000 A 
ATOM     15  C   UNL     1       0.104  14.516  18.839  0.00  0.00    +0.000 A 
ATOM     16  C   UNL     1       0.340  15.893  18.895  0.00  0.00    +0.000 A 
ATOM     17  C   UNL     1       1.267  16.404  19.798  0.00  0.00    +0.000 A 
ATOM     18 CL   UNL     1       1.565  18.096  19.860  0.00  0.00    +0.000 Cl
ATOM     19  C   UNL     1       1.969  15.548  20.641  0.00  0.00    +0.000 A 
ATOM     20  C   UNL     1       1.769  14.167  20.555  0.00  0.00    +0.000 A 
ENDBRANCH   6  14
BRANCH   3  21
ATOM     21  C   UNL     1       1.573   8.866  18.177  0.00  0.00    +0.000 C 
BRANCH  21  22
ATOM     22  N   UNL     1       1.888   7.883  19.210  0.00  0.00    +0.000 NA
ATOM     23  H   UNL     1       1.023   7.629  19.686  0.00  0.00    +0.000 HD
BRANCH  22  24
ATOM     24  C   UNL     1       2.518   6.684  18.661  0.00  0.00    +0.000 C 
BRANCH  24  25
ATOM     25  C   UNL     1       3.498   6.070  19.658  0.00  0.00    +0.000 C 
BRANCH  25  26
ATOM     26  C   UNL     1       4.591   5.273  18.960  0.00  0.00    +0.000 C 
BRANCH  26  27
ATOM     27  C   UNL     1       4.509   5.515  17.453  0.00  0.00    +0.000 C 
BRANCH  27  28
ATOM     28  C   UNL     1       4.531   4.200  16.685  0.00  0.00    +0.000 C 
BRANCH  28  29
ATOM     29  C   UNL     1       4.072   3.055  17.583  0.00  0.00    +0.000 C 
BRANCH  29  30
ATOM     30  C   UNL     1       2.587   2.760  17.390  0.00  0.00    +0.000 C 
BRANCH  30  31
ATOM     31  C   UNL     1       2.077   1.870  18.521  0.00  0.00    +0.000 C 
BRANCH  31  32
ATOM     32  N   UNL     1       2.545   2.357  19.805  0.00  0.00    +0.000 N 
ATOM     33  C   UNL     1       1.735   2.974  20.693  0.00  0.00    +0.000 C 
ATOM     34  N   UNL     1       0.565   3.455  20.491  0.00  0.00    +0.000 NA
ATOM     35  N   UNL     1       2.284   3.050  21.917  0.00  0.00    +0.000 N 
ATOM     36  H   UNL     1       3.254   1.777  20.236  0.00  0.00    +0.000 HD
ATOM     37  H   UNL     1       0.303   3.313  19.516  0.00  0.00    +0.000 HD
ATOM     38  H   UNL     1       3.270   3.271  21.923  0.00  0.00    +0.000 HD
ATOM     39  H   UNL     1       1.754   3.711  22.482  0.00  0.00    +0.000 HD
ENDBRANCH  31  32
ENDBRANCH  30  31
ENDBRANCH  29  30
ENDBRANCH  28  29
ENDBRANCH  27  28
ENDBRANCH  26  27
ENDBRANCH  25  26
ENDBRANCH  24  25
ENDBRANCH  22  24
ENDBRANCH  21  22
ENDBRANCH   3  21
TORSDOF 13
ENDMDL
MODEL 3
REMARK VINA RESULT:      -7.2      4.664      8.758
REMARK  Name = 
REMARK  14 active torsions:
REMARK  status: ('A' for Active; 'I' for Inactive)
REMARK    1  A    between atoms: C_1  and  C_2
REMARK    2  A    between atoms: C_3  and  C_4
REMARK    3  A    between atoms: C_4  and  N_5
REMARK    4  A    between atoms: N_5  and  C_6
REMARK    5  A    between atoms: C_6  and  C_7
REMARK    6  A    between atoms: C_7  and  C_8
REMARK    7  A    between atoms: C_8  and  C_9
REMARK    8  A    between atoms: C_9  and  C_10
REMARK    9  A    between atoms: C_10  and  C_11
REMARK   10  A    between atoms: C_11  and  C_12
REMARK   11  A    between atoms: C_12  and  C_13
REMARK   12  A    between atoms: C_13  and  N_14
REMARK   13  A    between atoms: C_19  and  C_20
REMARK   14  A    between atoms: N_27  and  C_28
REMARK                            x       y       z     vdW  Elec       q    Type
REMARK                         _______ _______ _______ _____ _____    ______ ____
ROOT
ATOM      1  C   UNL     1       4.451   3.021  17.332  0.00  0.00    +0.000 C 
ATOM      2  C   UNL     1       4.120   4.481  17.362  0.00  0.00    +0.000 A 
ATOM      3  C   UNL     1       4.530   5.434  16.439  0.00  0.00    +0.000 A 
ATOM      4  C   UNL     1       3.905   6.645  16.789  0.00  0.00    +0.000 A 
ATOM      5  C   UNL     1       3.134   6.451  17.925  0.00  0.00    +0.000 A 
ATOM      6  N   UNL     1       3.243   5.088  18.272  0.00  0.00    +0.000 N 
ENDROOT
BRANCH   5   7
ATOM      7  C   UNL     1       2.405   7.516  18.642  0.00  0.00    +0.000 A 
ATOM      8  C   UNL     1       1.976   8.657  17.942  0.00  0.00    +0.000 A 
ATOM      9  C   UNL     1       1.247   9.665  18.581  0.00  0.00    +0.000 A 
ATOM     10  C   UNL     1       0.921   9.529  19.927  0.00  0.00    +0.000 A 
ATOM     11 CL   UNL     1      -0.038  10.728  20.702  0.00  0.00    +0.000 Cl
ATOM     12  C   UNL     1       1.366   8.426  20.648  0.00  0.00    +0.000 A 
ATOM     13  C   UNL     1       2.142   7.449  20.017  0.00  0.00    +0.000 A 
ENDBRANCH   5   7
BRANCH   6  14
ATOM     14  C   UNL     1       2.573   4.419  19.348  0.00  0.00    +0.000 A 
ATOM     15  C   UNL     1       3.181   4.313  20.607  0.00  0.00    +0.000 A 
ATOM     16  C   UNL     1       2.578   3.565  21.623  0.00  0.00    +0.000 A 
ATOM     17  C   UNL     1       1.340   2.968  21.406  0.00  0.00    +0.000 A 
ATOM     18 CL   UNL     1       0.602   2.040  22.652  0.00  0.00    +0.000 Cl
ATOM     19  C   UNL     1       0.702   3.105  20.176  0.00  0.00    +0.000 A 
ATOM     20  C   UNL     1       1.325   3.813  19.144  0.00  0.00    +0.000 A 
ENDBRANCH   6  14
BRANCH   3  21
ATOM     21  C   UNL     1       5.454   5.240  15.286  0.00  0.00    +0.000 C 
BRANCH  21  22
ATOM     22  N   UNL     1       6.518   4.335  15.712  0.00  0.00    +0.000 NA
ATOM     23  H   UNL     1       6.828   3.799  14.901  0.00  0.00    +0.000 HD
BRANCH  22  24
ATOM     24  C   UNL     1       7.654   5.049  16.292  0.00  0.00    +0.000 C 
BRANCH  24  25
ATOM     25  C   UNL     1       7.619   4.992  17.817  0.00  0.00    +0.000 C 
BRANCH  25  26
ATOM     26  C   UNL     1       7.639   6.383  18.436  0.00  0.00    +0.000 C 
BRANCH  26  27
ATOM     27  C   UNL     1       7.770   7.428  17.328  0.00  0.00    +0.000 C 
BRANCH  27  28
ATOM     28  C   UNL     1       7.650   8.838  17.890  0.00  0.00    +0.000 C 
BRANCH  28  29
ATOM     29  C   UNL     1       9.018   9.354  18.324  0.00  0.00    +0.000 C 
BRANCH  29  30
ATOM     30  C   UNL     1       8.980  10.853  18.610  0.00  0.00    +0.000 C 
BRANCH  30  31
ATOM     31  C   UNL     1      10.129  11.239  19.539  0.00  0.00    +0.000 C 
BRANCH  31  32
ATOM     32  N   UNL     1       9.878  12.527  20.155  0.00  0.00    +0.000 N 
ATOM     33  C   UNL     1       9.594  12.668  21.468  0.00  0.00    +0.000 C 
ATOM     34  N   UNL     1       9.250  11.758  22.301  0.00  0.00    +0.000 NA
ATOM     35  N   UNL     1       9.715  13.940  21.883  0.00  0.00    +0.000 N 
ATOM     36  H   UNL     1      10.433  13.284  19.776  0.00  0.00    +0.000 HD
ATOM     37  H   UNL     1       9.208  10.857  21.824  0.00  0.00    +0.000 HD
ATOM     38  H   UNL     1       9.363  14.630  21.234  0.00  0.00    +0.000 HD
ATOM     39  H   UNL     1       9.277  14.038  22.797  0.00  0.00    +0.000 HD
ENDBRANCH  31  32
ENDBRANCH  30  31
ENDBRANCH  29  30
ENDBRANCH  28  29
ENDBRANCH  27  28
ENDBRANCH  26  27
ENDBRANCH  25  26
ENDBRANCH  24  25
ENDBRANCH  22  24
ENDBRANCH  21  22
ENDBRANCH   3  21
TORSDOF 13
ENDMDL
MODEL 4
REMARK VINA RESULT:      -7.0      0.968      1.404
REMARK  Name = 
REMARK  14 active torsions:
REMARK  status: ('A' for Active; 'I' for Inactive)
REMARK    1  A    between atoms: C_1  and  C_2
REMARK    2  A    between atoms: C_3  and  C_4
REMARK    3  A    between atoms: C_4  and  N_5
REMARK    4  A    between atoms: N_5  and  C_6
REMARK    5  A    between atoms: C_6  and  C_7
REMARK    6  A    between atoms: C_7  and  C_8
REMARK    7  A    between atoms: C_8  and  C_9
REMARK    8  A    between atoms: C_9  and  C_10
REMARK    9  A    between atoms: C_10  and  C_11
REMARK   10  A    between atoms: C_11  and  C_12
REMARK   11  A    between atoms: C_12  and  C_13
REMARK   12  A    between atoms: C_13  and  N_14
REMARK   13  A    between atoms: C_19  and  C_20
REMARK   14  A    between atoms: N_27  and  C_28
REMARK                            x       y       z     vdW  Elec       q    Type
REMARK                         _______ _______ _______ _____ _____    ______ ____
ROOT
ATOM      1  C   UNL     1       2.141  11.006  18.088  0.00  0.00    +0.000 C 
ATOM      2  C   UNL     1       1.274  10.884  19.303  0.00  0.00    +0.000 A 
ATOM      3  C   UNL     1       0.990   9.713  19.994  0.00  0.00    +0.000 A 
ATOM      4  C   UNL     1       0.232  10.073  21.123  0.00  0.00    +0.000 A 
ATOM      5  C   UNL     1       0.032  11.445  21.123  0.00  0.00    +0.000 A 
ATOM      6  N   UNL     1       0.708  11.962  19.998  0.00  0.00    +0.000 N 
ENDROOT
BRANCH   5   7
ATOM      7  C   UNL     1      -0.797  12.177  22.101  0.00  0.00    +0.000 A 
ATOM      8  C   UNL     1      -0.392  13.449  22.541  0.00  0.00    +0.000 A 
ATOM      9  C   UNL     1      -1.175  14.186  23.435  0.00  0.00    +0.000 A 
ATOM     10  C   UNL     1      -2.385  13.665  23.881  0.00  0.00    +0.000 A 
ATOM     11 CL   UNL     1      -3.388  14.596  24.922  0.00  0.00    +0.000 Cl
ATOM     12  C   UNL     1      -2.788  12.393  23.488  0.00  0.00    +0.000 A 
ATOM     13  C   UNL     1      -1.974  11.638  22.638  0.00  0.00    +0.000 A 
ENDBRANCH   5   7
BRANCH   6  14
ATOM     14  C   UNL     1       0.823  13.341  19.623  0.00  0.00    +0.000 A 
ATOM     15  C   UNL     1      -0.233  13.988  18.965  0.00  0.00    +0.000 A 
ATOM     16  C   UNL     1      -0.079  15.298  18.500  0.00  0.00    +0.000 A 
ATOM     17  C   UNL     1       1.106  15.987  18.741  0.00  0.00    +0.000 A 
ATOM     18 CL   UNL     1       1.299  17.594  18.161  0.00  0.00    +0.000 Cl
ATOM     19  C   UNL     1       2.145  15.373  19.434  0.00  0.00    +0.000 A 
ATOM     20  C   UNL     1       2.011  14.048  19.858  0.00  0.00    +0.000 A 
ENDBRANCH   6  14
BRANCH   3  21
ATOM     21  C   UNL     1       1.397   8.326  19.632  0.00  0.00    +0.000 C 
BRANCH  21  22
ATOM     22  N   UNL     1       1.591   7.578  20.871  0.00  0.00    +0.000 NA
ATOM     23  H   UNL     1       0.690   7.496  21.341  0.00  0.00    +0.000 HD
BRANCH  22  24
ATOM     24  C   UNL     1       2.145   6.247  20.634  0.00  0.00    +0.000 C 
BRANCH  24  25
ATOM     25  C   UNL     1       1.037   5.226  20.386  0.00  0.00    +0.000 C 
BRANCH  25  26
ATOM     26  C   UNL     1       1.490   3.809  20.708  0.00  0.00    +0.000 C 
BRANCH  26  27
ATOM     27  C   UNL     1       2.786   3.509  19.953  0.00  0.00    +0.000 C 
BRANCH  27  28
ATOM     28  C   UNL     1       2.498   2.834  18.619  0.00  0.00    +0.000 C 
BRANCH  28  29
ATOM     29  C   UNL     1       2.598   3.845  17.481  0.00  0.00    +0.000 C 
BRANCH  29  30
ATOM     30  C   UNL     1       3.919   4.607  17.531  0.00  0.00    +0.000 C 
BRANCH  30  31
ATOM     31  C   UNL     1       4.811   4.189  16.365  0.00  0.00    +0.000 C 
BRANCH  31  32
ATOM     32  N   UNL     1       6.130   3.816  16.838  0.00  0.00    +0.000 N 
ATOM     33  C   UNL     1       7.157   4.692  16.908  0.00  0.00    +0.000 C 
ATOM     34  N   UNL     1       7.244   5.849  16.365  0.00  0.00    +0.000 NA
ATOM     35  N   UNL     1       8.171   4.230  17.659  0.00  0.00    +0.000 N 
ATOM     36  H   UNL     1       6.127   3.135  17.586  0.00  0.00    +0.000 HD
ATOM     37  H   UNL     1       6.395   6.041  15.835  0.00  0.00    +0.000 HD
ATOM     38  H   UNL     1       8.377   3.249  17.533  0.00  0.00    +0.000 HD
ATOM     39  H   UNL     1       8.997   4.804  17.499  0.00  0.00    +0.000 HD
ENDBRANCH  31  32
ENDBRANCH  30  31
ENDBRANCH  29  30
ENDBRANCH  28  29
ENDBRANCH  27  28
ENDBRANCH  26  27
ENDBRANCH  25  26
ENDBRANCH  24  25
ENDBRANCH  22  24
ENDBRANCH  21  22
ENDBRANCH   3  21
TORSDOF 13
ENDMDL
MODEL 5
REMARK VINA RESULT:      -7.0      1.604      2.276
REMARK  Name = 
REMARK  14 active torsions:
REMARK  status: ('A' for Active; 'I' for Inactive)
REMARK    1  A    between atoms: C_1  and  C_2
REMARK    2  A    between atoms: C_3  and  C_4
REMARK    3  A    between atoms: C_4  and  N_5
REMARK    4  A    between atoms: N_5  and  C_6
REMARK    5  A    between atoms: C_6  and  C_7
REMARK    6  A    between atoms: C_7  and  C_8
REMARK    7  A    between atoms: C_8  and  C_9
REMARK    8  A    between atoms: C_9  and  C_10
REMARK    9  A    between atoms: C_10  and  C_11
REMARK   10  A    between atoms: C_11  and  C_12
REMARK   11  A    between atoms: C_12  and  C_13
REMARK   12  A    between atoms: C_13  and  N_14
REMARK   13  A    between atoms: C_19  and  C_20
REMARK   14  A    between atoms: N_27  and  C_28
REMARK                            x       y       z     vdW  Elec       q    Type
REMARK                         _______ _______ _______ _____ _____    ______ ____
ROOT
ATOM      1  C   UNL     1       2.513  11.308  17.970  0.00  0.00    +0.000 C 
ATOM      2  C   UNL     1       1.412  10.952  18.920  0.00  0.00    +0.000 A 
ATOM      3  C   UNL     1       1.098   9.676  19.371  0.00  0.00    +0.000 A 
ATOM      4  C   UNL     1       0.075   9.815  20.325  0.00  0.00    +0.000 A 
ATOM      5  C   UNL     1      -0.256  11.155  20.451  0.00  0.00    +0.000 A 
ATOM      6  N   UNL     1       0.600  11.876  19.592  0.00  0.00    +0.000 N 
ENDROOT
BRANCH   5   7
ATOM      7  C   UNL     1      -1.353  11.679  21.290  0.00  0.00    +0.000 A 
ATOM      8  C   UNL     1      -2.389  12.420  20.697  0.00  0.00    +0.000 A 
ATOM      9  C   UNL     1      -3.463  12.895  21.456  0.00  0.00    +0.000 A 
ATOM     10  C   UNL     1      -3.523  12.611  22.816  0.00  0.00    +0.000 A 
ATOM     11 CL   UNL     1      -4.877  13.128  23.741  0.00  0.00    +0.000 Cl
ATOM     12  C   UNL     1      -2.491  11.910  23.432  0.00  0.00    +0.000 A 
ATOM     13  C   UNL     1      -1.391  11.487  22.678  0.00  0.00    +0.000 A 
ENDBRANCH   5   7
BRANCH   6  14
ATOM     14  C   UNL     1       0.657  13.299  19.432  0.00  0.00    +0.000 A 
ATOM     15  C   UNL     1       1.481  14.075  20.261  0.00  0.00    +0.000 A 
ATOM     16  C   UNL     1       1.453  15.471  20.179  0.00  0.00    +0.000 A 
ATOM     17  C   UNL     1       0.647  16.095  19.231  0.00  0.00    +0.000 A 
ATOM     18 CL   UNL     1       0.605  17.812  19.137  0.00  0.00    +0.000 Cl
ATOM     19  C   UNL     1      -0.139  15.337  18.370  0.00  0.00    +0.000 A 
ATOM     20  C   UNL     1      -0.148  13.943  18.482  0.00  0.00    +0.000 A 
ENDBRANCH   6  14
BRANCH   3  21
ATOM     21  C   UNL     1       1.713   8.387  18.943  0.00  0.00    +0.000 C 
BRANCH  21  22
ATOM     22  N   UNL     1       1.806   7.524  20.118  0.00  0.00    +0.000 NA
ATOM     23  H   UNL     1       0.862   7.258  20.396  0.00  0.00    +0.000 HD
BRANCH  22  24
ATOM     24  C   UNL     1       2.599   6.324  19.861  0.00  0.00    +0.000 C 
BRANCH  24  25
ATOM     25  C   UNL     1       1.728   5.071  19.892  0.00  0.00    +0.000 C 
BRANCH  25  26
ATOM     26  C   UNL     1       2.374   3.913  19.145  0.00  0.00    +0.000 C 
BRANCH  26  27
ATOM     27  C   UNL     1       2.522   4.283  17.668  0.00  0.00    +0.000 C 
BRANCH  27  28
ATOM     28  C   UNL     1       3.916   3.946  17.157  0.00  0.00    +0.000 C 
BRANCH  28  29
ATOM     29  C   UNL     1       4.957   4.217  18.237  0.00  0.00    +0.000 C 
BRANCH  29  30
ATOM     30  C   UNL     1       6.026   5.189  17.747  0.00  0.00    +0.000 C 
BRANCH  30  31
ATOM     31  C   UNL     1       7.212   4.419  17.172  0.00  0.00    +0.000 C 
BRANCH  31  32
ATOM     32  N   UNL     1       7.618   4.981  15.898  0.00  0.00    +0.000 N 
ATOM     33  C   UNL     1       7.047   4.625  14.726  0.00  0.00    +0.000 C 
ATOM     34  N   UNL     1       6.295   3.616  14.491  0.00  0.00    +0.000 NA
ATOM     35  N   UNL     1       7.342   5.482  13.734  0.00  0.00    +0.000 N 
ATOM     36  H   UNL     1       7.884   5.957  15.940  0.00  0.00    +0.000 HD
ATOM     37  H   UNL     1       6.173   3.075  15.347  0.00  0.00    +0.000 HD
ATOM     38  H   UNL     1       8.298   5.809  13.730  0.00  0.00    +0.000 HD
ATOM     39  H   UNL     1       7.092   5.061  12.841  0.00  0.00    +0.000 HD
ENDBRANCH  31  32
ENDBRANCH  30  31
ENDBRANCH  29  30
ENDBRANCH  28  29
ENDBRANCH  27  28
ENDBRANCH  26  27
ENDBRANCH  25  26
ENDBRANCH  24  25
ENDBRANCH  22  24
ENDBRANCH  21  22
ENDBRANCH   3  21
TORSDOF 13
ENDMDL
MODEL 6
REMARK VINA RESULT:      -7.0      2.463      3.394
REMARK  Name = 
REMARK  14 active torsions:
REMARK  status: ('A' for Active; 'I' for Inactive)
REMARK    1  A    between atoms: C_1  and  C_2
REMARK    2  A    between atoms: C_3  and  C_4
REMARK    3  A    between atoms: C_4  and  N_5
REMARK    4  A    between atoms: N_5  and  C_6
REMARK    5  A    between atoms: C_6  and  C_7
REMARK    6  A    between atoms: C_7  and  C_8
REMARK    7  A    between atoms: C_8  and  C_9
REMARK    8  A    between atoms: C_9  and  C_10
REMARK    9  A    between atoms: C_10  and  C_11
REMARK   10  A    between atoms: C_11  and  C_12
REMARK   11  A    between atoms: C_12  and  C_13
REMARK   12  A    between atoms: C_13  and  N_14
REMARK   13  A    between atoms: C_19  and  C_20
REMARK   14  A    between atoms: N_27  and  C_28
REMARK                            x       y       z     vdW  Elec       q    Type
REMARK                         _______ _______ _______ _____ _____    ______ ____
ROOT
ATOM      1  C   UNL     1       2.529  11.977  17.900  0.00  0.00    +0.000 C 
ATOM      2  C   UNL     1       1.313  11.522  18.645  0.00  0.00    +0.000 A 
ATOM      3  C   UNL     1       0.724  10.266  18.567  0.00  0.00    +0.000 A 
ATOM      4  C   UNL     1      -0.320  10.239  19.508  0.00  0.00    +0.000 A 
ATOM      5  C   UNL     1      -0.392  11.467  20.148  0.00  0.00    +0.000 A 
ATOM      6  N   UNL     1       0.649  12.266  19.631  0.00  0.00    +0.000 N 
ENDROOT
BRANCH   5   7
ATOM      7  C   UNL     1      -1.424  11.845  21.135  0.00  0.00    +0.000 A 
ATOM      8  C   UNL     1      -2.557  12.563  20.714  0.00  0.00    +0.000 A 
ATOM      9  C   UNL     1      -3.573  12.901  21.614  0.00  0.00    +0.000 A 
ATOM     10  C   UNL     1      -3.475  12.502  22.943  0.00  0.00    +0.000 A 
ATOM     11 CL   UNL     1      -4.753  12.850  24.039  0.00  0.00    +0.000 Cl
ATOM     12  C   UNL     1      -2.346  11.823  23.389  0.00  0.00    +0.000 A 
ATOM     13  C   UNL     1      -1.308  11.537  22.497  0.00  0.00    +0.000 A 
ENDBRANCH   5   7
BRANCH   6  14
ATOM     14  C   UNL     1       0.994  13.596  20.037  0.00  0.00    +0.000 A 
ATOM     15  C   UNL     1       1.865  13.807  21.116  0.00  0.00    +0.000 A 
ATOM     16  C   UNL     1       2.114  15.102  21.582  0.00  0.00    +0.000 A 
ATOM     17  C   UNL     1       1.541  16.194  20.938  0.00  0.00    +0.000 A 
ATOM     18 CL   UNL     1       1.839  17.786  21.517  0.00  0.00    +0.000 Cl
ATOM     19  C   UNL     1       0.712  16.003  19.837  0.00  0.00    +0.000 A 
ATOM     20  C   UNL     1       0.425  14.708  19.398  0.00  0.00    +0.000 A 
ENDBRANCH   6  14
BRANCH   3  21
ATOM     21  C   UNL     1       1.106   9.142  17.666  0.00  0.00    +0.000 C 
BRANCH  21  22
ATOM     22  N   UNL     1       2.411   8.646  18.096  0.00  0.00    +0.000 NA
ATOM     23  H   UNL     1       2.995   9.447  18.337  0.00  0.00    +0.000 HD
BRANCH  22  24
ATOM     24  C   UNL     1       2.311   7.747  19.244  0.00  0.00    +0.000 C 
BRANCH  24  25
ATOM     25  C   UNL     1       2.966   6.400  18.948  0.00  0.00    +0.000 C 
BRANCH  25  26
ATOM     26  C   UNL     1       4.221   6.555  18.100  0.00  0.00    +0.000 C 
BRANCH  26  27
ATOM     27  C   UNL     1       4.241   5.469  17.024  0.00  0.00    +0.000 C 
BRANCH  27  28
ATOM     28  C   UNL     1       4.088   4.085  17.641  0.00  0.00    +0.000 C 
BRANCH  28  29
ATOM     29  C   UNL     1       2.780   3.445  17.190  0.00  0.00    +0.000 C 
BRANCH  29  30
ATOM     30  C   UNL     1       2.673   2.000  17.673  0.00  0.00    +0.000 C 
BRANCH  30  31
ATOM     31  C   UNL     1       1.629   1.893  18.781  0.00  0.00    +0.000 C 
BRANCH  31  32
ATOM     32  N   UNL     1       2.199   2.275  20.059  0.00  0.00    +0.000 N 
ATOM     33  C   UNL     1       1.613   3.172  20.882  0.00  0.00    +0.000 C 
ATOM     34  N   UNL     1       0.671   3.995  20.608  0.00  0.00    +0.000 NA
ATOM     35  N   UNL     1       2.127   3.137  22.123  0.00  0.00    +0.000 N 
ATOM     36  H   UNL     1       2.668   1.523  20.547  0.00  0.00    +0.000 HD
ATOM     37  H   UNL     1       0.400   3.889  19.631  0.00  0.00    +0.000 HD
ATOM     38  H   UNL     1       3.131   3.026  22.161  0.00  0.00    +0.000 HD
ATOM     39  H   UNL     1       1.829   3.966  22.634  0.00  0.00    +0.000 HD
ENDBRANCH  31  32
ENDBRANCH  30  31
ENDBRANCH  29  30
ENDBRANCH  28  29
ENDBRANCH  27  28
ENDBRANCH  26  27
ENDBRANCH  25  26
ENDBRANCH  24  25
ENDBRANCH  22  24
ENDBRANCH  21  22
ENDBRANCH   3  21
TORSDOF 13
ENDMDL
MODEL 7
REMARK VINA RESULT:      -7.0      5.276      9.294
REMARK  Name = 
REMARK  14 active torsions:
REMARK  status: ('A' for Active; 'I' for Inactive)
REMARK    1  A    between atoms: C_1  and  C_2
REMARK    2  A    between atoms: C_3  and  C_4
REMARK    3  A    between atoms: C_4  and  N_5
REMARK    4  A    between atoms: N_5  and  C_6
REMARK    5  A    between atoms: C_6  and  C_7
REMARK    6  A    between atoms: C_7  and  C_8
REMARK    7  A    between atoms: C_8  and  C_9
REMARK    8  A    between atoms: C_9  and  C_10
REMARK    9  A    between atoms: C_10  and  C_11
REMARK   10  A    between atoms: C_11  and  C_12
REMARK   11  A    between atoms: C_12  and  C_13
REMARK   12  A    between atoms: C_13  and  N_14
REMARK   13  A    between atoms: C_19  and  C_20
REMARK   14  A    between atoms: N_27  and  C_28
REMARK                            x       y       z     vdW  Elec       q    Type
REMARK                         _______ _______ _______ _____ _____    ______ ____
ROOT
ATOM      1  C   UNL     1       4.957   3.524  17.297  0.00  0.00    +0.000 C 
ATOM      2  C   UNL     1       4.464   4.931  17.433  0.00  0.00    +0.000 A 
ATOM      3  C   UNL     1       4.824   6.008  16.633  0.00  0.00    +0.000 A 
ATOM      4  C   UNL     1       4.046   7.105  17.043  0.00  0.00    +0.000 A 
ATOM      5  C   UNL     1       3.229   6.721  18.095  0.00  0.00    +0.000 A 
ATOM      6  N   UNL     1       3.467   5.350  18.325  0.00  0.00    +0.000 N 
ENDROOT
BRANCH   5   7
ATOM      7  C   UNL     1       2.340   7.629  18.849  0.00  0.00    +0.000 A 
ATOM      8  C   UNL     1       2.083   7.379  20.208  0.00  0.00    +0.000 A 
ATOM      9  C   UNL     1       1.280   8.241  20.960  0.00  0.00    +0.000 A 
ATOM     10  C   UNL     1       0.743   9.378  20.364  0.00  0.00    +0.000 A 
ATOM     11 CL   UNL     1      -0.184  10.481  21.301  0.00  0.00    +0.000 Cl
ATOM     12  C   UNL     1       0.954   9.625  19.011  0.00  0.00    +0.000 A 
ATOM     13  C   UNL     1       1.712   8.730  18.250  0.00  0.00    +0.000 A 
ENDBRANCH   5   7
BRANCH   6  14
ATOM     14  C   UNL     1       2.807   4.512  19.283  0.00  0.00    +0.000 A 
ATOM     15  C   UNL     1       1.509   4.042  19.040  0.00  0.00    +0.000 A 
ATOM     16  C   UNL     1       0.824   3.318  20.022  0.00  0.00    +0.000 A 
ATOM     17  C   UNL     1       1.452   3.011  21.225  0.00  0.00    +0.000 A 
ATOM     18 CL   UNL     1       0.607   2.129  22.436  0.00  0.00    +0.000 Cl
ATOM     19  C   UNL     1       2.758   3.431  21.461  0.00  0.00    +0.000 A 
ATOM     20  C   UNL     1       3.428   4.194  20.500  0.00  0.00    +0.000 A 
ENDBRANCH   6  14
BRANCH   3  21
ATOM     21  C   UNL     1       5.837   6.026  15.540  0.00  0.00    +0.000 C 
BRANCH  21  22
ATOM     22  N   UNL     1       7.133   6.342  16.136  0.00  0.00    +0.000 NA
ATOM     23  H   UNL     1       7.454   7.231  15.753  0.00  0.00    +0.000 HD
BRANCH  22  24
ATOM     24  C   UNL     1       7.067   6.429  17.593  0.00  0.00    +0.000 C 
BRANCH  24  25
ATOM     25  C   UNL     1       8.209   7.277  18.146  0.00  0.00    +0.000 C 
BRANCH  25  26
ATOM     26  C   UNL     1       8.117   8.724  17.681  0.00  0.00    +0.000 C 
BRANCH  26  27
ATOM     27  C   UNL     1       8.725   9.637  18.746  0.00  0.00    +0.000 C 
BRANCH  27  28
ATOM     28  C   UNL     1       9.614  10.699  18.113  0.00  0.00    +0.000 C 
BRANCH  28  29
ATOM     29  C   UNL     1       8.872  12.028  18.025  0.00  0.00    +0.000 C 
BRANCH  29  30
ATOM     30  C   UNL     1       9.823  13.174  17.688  0.00  0.00    +0.000 C 
BRANCH  30  31
ATOM     31  C   UNL     1       9.240  14.499  18.172  0.00  0.00    +0.000 C 
BRANCH  31  32
ATOM     32  N   UNL     1       9.912  14.944  19.377  0.00  0.00    +0.000 N 
ATOM     33  C   UNL     1       9.478  14.628  20.617  0.00  0.00    +0.000 C 
ATOM     34  N   UNL     1       8.339  14.150  20.954  0.00  0.00    +0.000 NA
ATOM     35  N   UNL     1      10.406  14.864  21.558  0.00  0.00    +0.000 N 
ATOM     36  H   UNL     1      10.921  14.986  19.299  0.00  0.00    +0.000 HD
ATOM     37  H   UNL     1       7.759  14.032  20.123  0.00  0.00    +0.000 HD
ATOM     38  H   UNL     1      10.929  15.719  21.430  0.00  0.00    +0.000 HD
ATOM     39  H   UNL     1       9.969  14.835  22.477  0.00  0.00    +0.000 HD
ENDBRANCH  31  32
ENDBRANCH  30  31
ENDBRANCH  29  30
ENDBRANCH  28  29
ENDBRANCH  27  28
ENDBRANCH  26  27
ENDBRANCH  25  26
ENDBRANCH  24  25
ENDBRANCH  22  24
ENDBRANCH  21  22
ENDBRANCH   3  21
TORSDOF 13
ENDMDL
MODEL 8
REMARK VINA RESULT:      -6.9      1.746      2.228
REMARK  Name = 
REMARK  14 active torsions:
REMARK  status: ('A' for Active; 'I' for Inactive)
REMARK    1  A    between atoms: C_1  and  C_2
REMARK    2  A    between atoms: C_3  and  C_4
REMARK    3  A    between atoms: C_4  and  N_5
REMARK    4  A    between atoms: N_5  and  C_6
REMARK    5  A    between atoms: C_6  and  C_7
REMARK    6  A    between atoms: C_7  and  C_8
REMARK    7  A    between atoms: C_8  and  C_9
REMARK    8  A    between atoms: C_9  and  C_10
REMARK    9  A    between atoms: C_10  and  C_11
REMARK   10  A    between atoms: C_11  and  C_12
REMARK   11  A    between atoms: C_12  and  C_13
REMARK   12  A    between atoms: C_13  and  N_14
REMARK   13  A    between atoms: C_19  and  C_20
REMARK   14  A    between atoms: N_27  and  C_28
REMARK                            x       y       z     vdW  Elec       q    Type
REMARK                         _______ _______ _______ _____ _____    ______ ____
ROOT
ATOM      1  C   UNL     1       2.377  11.564  18.335  0.00  0.00    +0.000 C 
ATOM      2  C   UNL     1       1.220  11.200  19.214  0.00  0.00    +0.000 A 
ATOM      3  C   UNL     1       0.887   9.922  19.644  0.00  0.00    +0.000 A 
ATOM      4  C   UNL     1      -0.196  10.053  20.532  0.00  0.00    +0.000 A 
ATOM      5  C   UNL     1      -0.543  11.391  20.636  0.00  0.00    +0.000 A 
ATOM      6  N   UNL     1       0.361  12.118  19.834  0.00  0.00    +0.000 N 
ENDROOT
BRANCH   5   7
ATOM      7  C   UNL     1      -1.694  11.907  21.404  0.00  0.00    +0.000 A 
ATOM      8  C   UNL     1      -1.732  11.735  22.798  0.00  0.00    +0.000 A 
ATOM      9  C   UNL     1      -2.787  12.247  23.561  0.00  0.00    +0.000 A 
ATOM     10  C   UNL     1      -3.805  12.959  22.935  0.00  0.00    +0.000 A 
ATOM     11 CL   UNL     1      -5.067  13.655  23.873  0.00  0.00    +0.000 Cl
ATOM     12  C   UNL     1      -3.807  13.110  21.552  0.00  0.00    +0.000 A 
ATOM     13  C   UNL     1      -2.779  12.547  20.789  0.00  0.00    +0.000 A 
ENDBRANCH   5   7
BRANCH   6  14
ATOM     14  C   UNL     1       0.419  13.542  19.677  0.00  0.00    +0.000 A 
ATOM     15  C   UNL     1       1.126  14.329  20.597  0.00  0.00    +0.000 A 
ATOM     16  C   UNL     1       1.090  15.725  20.508  0.00  0.00    +0.000 A 
ATOM     17  C   UNL     1       0.397  16.337  19.469  0.00  0.00    +0.000 A 
ATOM     18 CL   UNL     1       0.344  18.053  19.365  0.00  0.00    +0.000 Cl
ATOM     19  C   UNL     1      -0.270  15.567  18.521  0.00  0.00    +0.000 A 
ATOM     20  C   UNL     1      -0.274  14.174  18.634  0.00  0.00    +0.000 A 
ENDBRANCH   6  14
BRANCH   3  21
ATOM     21  C   UNL     1       1.536   8.637  19.256  0.00  0.00    +0.000 C 
BRANCH  21  22
ATOM     22  N   UNL     1       1.930   7.946  20.482  0.00  0.00    +0.000 NA
ATOM     23  H   UNL     1       1.230   8.140  21.198  0.00  0.00    +0.000 HD
BRANCH  22  24
ATOM     24  C   UNL     1       2.050   6.503  20.289  0.00  0.00    +0.000 C 
BRANCH  24  25
ATOM     25  C   UNL     1       2.874   6.179  19.046  0.00  0.00    +0.000 C 
BRANCH  25  26
ATOM     26  C   UNL     1       4.142   5.412  19.390  0.00  0.00    +0.000 C 
BRANCH  26  27
ATOM     27  C   UNL     1       4.343   4.285  18.376  0.00  0.00    +0.000 C 
BRANCH  27  28
ATOM     28  C   UNL     1       3.772   4.665  17.016  0.00  0.00    +0.000 C 
BRANCH  28  29
ATOM     29  C   UNL     1       4.879   4.705  15.969  0.00  0.00    +0.000 C 
BRANCH  29  30
ATOM     30  C   UNL     1       6.125   3.965  16.448  0.00  0.00    +0.000 C 
BRANCH  30  31
ATOM     31  C   UNL     1       7.379   4.746  16.067  0.00  0.00    +0.000 C 
BRANCH  31  32
ATOM     32  N   UNL     1       7.177   6.168  16.267  0.00  0.00    +0.000 N 
ATOM     33  C   UNL     1       7.460   6.791  17.432  0.00  0.00    +0.000 C 
ATOM     34  N   UNL     1       7.681   6.259  18.576  0.00  0.00    +0.000 NA
ATOM     35  N   UNL     1       7.503   8.127  17.299  0.00  0.00    +0.000 N 
ATOM     36  H   UNL     1       7.365   6.734  15.449  0.00  0.00    +0.000 HD
ATOM     37  H   UNL     1       7.610   5.245  18.499  0.00  0.00    +0.000 HD
ATOM     38  H   UNL     1       6.786   8.515  16.702  0.00  0.00    +0.000 HD
ATOM     39  H   UNL     1       7.488   8.557  18.221  0.00  0.00    +0.000 HD
ENDBRANCH  31  32
ENDBRANCH  30  31
ENDBRANCH  29  30
ENDBRANCH  28  29
ENDBRANCH  27  28
ENDBRANCH  26  27
ENDBRANCH  25  26
ENDBRANCH  24  25
ENDBRANCH  22  24
ENDBRANCH  21  22
ENDBRANCH   3  21
TORSDOF 13
ENDMDL
MODEL 9
REMARK VINA RESULT:      -6.9      1.105      1.476
REMARK  Name = 
REMARK  14 active torsions:
REMARK  status: ('A' for Active; 'I' for Inactive)
REMARK    1  A    between atoms: C_1  and  C_2
REMARK    2  A    between atoms: C_3  and  C_4
REMARK    3  A    between atoms: C_4  and  N_5
REMARK    4  A    between atoms: N_5  and  C_6
REMARK    5  A    between atoms: C_6  and  C_7
REMARK    6  A    between atoms: C_7  and  C_8
REMARK    7  A    between atoms: C_8  and  C_9
REMARK    8  A    between atoms: C_9  and  C_10
REMARK    9  A    between atoms: C_10  and  C_11
REMARK   10  A    between atoms: C_11  and  C_12
REMARK   11  A    between atoms: C_12  and  C_13
REMARK   12  A    between atoms: C_13  and  N_14
REMARK   13  A    between atoms: C_19  and  C_20
REMARK   14  A    between atoms: N_27  and  C_28
REMARK                            x       y       z     vdW  Elec       q    Type
REMARK                         _______ _______ _______ _____ _____    ______ ____
ROOT
ATOM      1  C   UNL     1       1.400  10.220  18.823  0.00  0.00    +0.000 C 
ATOM      2  C   UNL     1       0.575  10.395  20.060  0.00  0.00    +0.000 A 
ATOM      3  C   UNL     1       0.206   9.393  20.949  0.00  0.00    +0.000 A 
ATOM      4  C   UNL     1      -0.466  10.014  22.016  0.00  0.00    +0.000 A 
ATOM      5  C   UNL     1      -0.532  11.379  21.785  0.00  0.00    +0.000 A 
ATOM      6  N   UNL     1       0.146  11.627  20.573  0.00  0.00    +0.000 N 
ENDROOT
BRANCH   5   7
ATOM      7  C   UNL     1      -1.245  12.347  22.642  0.00  0.00    +0.000 A 
ATOM      8  C   UNL     1      -0.620  13.556  22.995  0.00  0.00    +0.000 A 
ATOM      9  C   UNL     1      -1.283  14.512  23.770  0.00  0.00    +0.000 A 
ATOM     10  C   UNL     1      -2.591  14.277  24.182  0.00  0.00    +0.000 A 
ATOM     11 CL   UNL     1      -3.439  15.479  25.072  0.00  0.00    +0.000 Cl
ATOM     12  C   UNL     1      -3.217  13.073  23.875  0.00  0.00    +0.000 A 
ATOM     13  C   UNL     1      -2.528  12.097  23.147  0.00  0.00    +0.000 A 
ENDBRANCH   5   7
BRANCH   6  14
ATOM     14  C   UNL     1       0.379  12.903  19.963  0.00  0.00    +0.000 A 
ATOM     15  C   UNL     1       1.605  13.561  20.138  0.00  0.00    +0.000 A 
ATOM     16  C   UNL     1       1.792  14.853  19.638  0.00  0.00    +0.000 A 
ATOM     17  C   UNL     1       0.778  15.471  18.912  0.00  0.00    +0.000 A 
ATOM     18 CL   UNL     1       1.005  17.064  18.305  0.00  0.00    +0.000 Cl
ATOM     19  C   UNL     1      -0.427  14.812  18.690  0.00  0.00    +0.000 A 
ATOM     20  C   UNL     1      -0.633  13.539  19.229  0.00  0.00    +0.000 A 
ENDBRANCH   6  14
BRANCH   3  21
ATOM     21  C   UNL     1       0.461   7.930  20.822  0.00  0.00    +0.000 C 
BRANCH  21  22
ATOM     22  N   UNL     1       1.908   7.726  20.819  0.00  0.00    +0.000 NA
ATOM     23  H   UNL     1       2.137   7.044  21.542  0.00  0.00    +0.000 HD
BRANCH  22  24
ATOM     24  C   UNL     1       2.398   7.255  19.526  0.00  0.00    +0.000 C 
BRANCH  24  25
ATOM     25  C   UNL     1       3.044   5.877  19.650  0.00  0.00    +0.000 C 
BRANCH  25  26
ATOM     26  C   UNL     1       2.127   4.773  19.144  0.00  0.00    +0.000 C 
BRANCH  26  27
ATOM     27  C   UNL     1       2.482   4.447  17.693  0.00  0.00    +0.000 C 
BRANCH  27  28
ATOM     28  C   UNL     1       3.890   4.919  17.355  0.00  0.00    +0.000 C 
BRANCH  28  29
ATOM     29  C   UNL     1       4.740   3.748  16.872  0.00  0.00    +0.000 C 
BRANCH  29  30
ATOM     30  C   UNL     1       5.609   4.146  15.682  0.00  0.00    +0.000 C 
BRANCH  30  31
ATOM     31  C   UNL     1       7.000   4.551  16.160  0.00  0.00    +0.000 C 
BRANCH  31  32
ATOM     32  N   UNL     1       7.106   5.993  16.265  0.00  0.00    +0.000 N 
ATOM     33  C   UNL     1       7.397   6.624  17.424  0.00  0.00    +0.000 C 
ATOM     34  N   UNL     1       7.371   6.143  18.610  0.00  0.00    +0.000 NA
ATOM     35  N   UNL     1       7.757   7.904  17.231  0.00  0.00    +0.000 N 
ATOM     36  H   UNL     1       7.502   6.442  15.448  0.00  0.00    +0.000 HD
ATOM     37  H   UNL     1       7.081   5.166  18.576  0.00  0.00    +0.000 HD
ATOM     38  H   UNL     1       7.213   8.395  16.535  0.00  0.00    +0.000 HD
ATOM     39  H   UNL     1       7.742   8.395  18.123  0.00  0.00    +0.000 HD
ENDBRANCH  31  32
ENDBRANCH  30  31
ENDBRANCH  29  30
ENDBRANCH  28  29
ENDBRANCH  27  28
ENDBRANCH  26  27
ENDBRANCH  25  26
ENDBRANCH  24  25
ENDBRANCH  22  24
ENDBRANCH  21  22
ENDBRANCH   3  21
TORSDOF 13
ENDMDL
