MODEL 1
REMARK VINA RESULT:      -6.5      0.000      0.000
REMARK  Name = 
REMARK  5 active torsions:
REMARK  status: ('A' for Active; 'I' for Inactive)
REMARK    1  A    between atoms: C_2  and  C_13
REMARK    2  A    between atoms: N_3  and  C_4
REMARK    3  A    between atoms: C_4  and  C_5
REMARK    4  A    between atoms: C_5  and  C_6
REMARK    5  A    between atoms: C_6  and  N_7
REMARK                            x       y       z     vdW  Elec       q    Type
REMARK                         _______ _______ _______ _____ _____    ______ ____
ROOT
ATOM      1  O   UNL     1       5.540   5.532  19.461  0.00  0.00    +0.000 OA
ATOM      2  C   UNL     1       4.862   5.710  18.454  0.00  0.00    +0.000 C 
ATOM      3  N   UNL     1       3.556   6.148  18.482  0.00  0.00    +0.000 N 
ATOM      4  H   UNL     1       3.014   6.223  17.631  0.00  0.00    +0.000 HD
ENDROOT
BRANCH   2   5
ATOM      5  C   UNL     1       5.454   5.430  17.124  0.00  0.00    +0.000 A 
ATOM      6  C   UNL     1       4.806   4.557  16.249  0.00  0.00    +0.000 A 
ATOM      7  C   UNL     1       5.379   4.279  15.009  0.00  0.00    +0.000 A 
ATOM      8  C   UNL     1       6.587   4.880  14.703  0.00  0.00    +0.000 A 
ATOM      9 CL   UNL     1       7.358   4.594  13.198  0.00  0.00    +0.000 Cl
ATOM     10  N   UNL     1       7.254   5.716  15.529  0.00  0.00    +0.000 NA
ATOM     11  C   UNL     1       6.674   5.963  16.730  0.00  0.00    +0.000 A 
ENDBRANCH   2   5
BRANCH   3  12
ATOM     12  C   UNL     1       2.929   6.570  19.726  0.00  0.00    +0.000 C 
BRANCH  12  13
ATOM     13  C   UNL     1       2.052   5.453  20.286  0.00  0.00    +0.000 C 
BRANCH  13  14
ATOM     14  C   UNL     1       1.592   4.464  19.208  0.00  0.00    +0.000 C 
BRANCH  14  15
ATOM     15  N   UNL     1       1.517   3.082  19.717  0.00  0.00    +0.000 NA
ATOM     16  C   UNL     1       2.669   2.682  20.559  0.00  0.00    +0.000 C 
ATOM     17  C   UNL     1       3.969   2.415  19.782  0.00  0.00    +0.000 C 
ATOM     18  O   UNL     1       3.773   1.457  18.734  0.00  0.00    +0.000 OA
ATOM     19  C   UNL     1       2.725   1.874  17.851  0.00  0.00    +0.000 C 
ATOM     20  C   UNL     1       1.409   2.096  18.616  0.00  0.00    +0.000 C 
ENDBRANCH  14  15
ENDBRANCH  13  14
ENDBRANCH  12  13
ENDBRANCH   3  12
TORSDOF 5
ENDMDL
MODEL 2
REMARK VINA RESULT:      -6.4      1.587      2.706
REMARK  Name = 
REMARK  5 active torsions:
REMARK  status: ('A' for Active; 'I' for Inactive)
REMARK    1  A    between atoms: C_2  and  C_13
REMARK    2  A    between atoms: N_3  and  C_4
REMARK    3  A    between atoms: C_4  and  C_5
REMARK    4  A    between atoms: C_5  and  C_6
REMARK    5  A    between atoms: C_6  and  N_7
REMARK                            x       y       z     vdW  Elec       q    Type
REMARK                         _______ _______ _______ _____ _____    ______ ____
ROOT
ATOM      1  O   UNL     1       5.694   4.833  19.711  0.00  0.00    +0.000 OA
ATOM      2  C   UNL     1       5.534   3.964  18.860  0.00  0.00    +0.000 C 
ATOM      3  N   UNL     1       5.004   2.722  19.128  0.00  0.00    +0.000 N 
ATOM      4  H   UNL     1       4.947   2.014  18.407  0.00  0.00    +0.000 HD
ENDROOT
BRANCH   2   5
ATOM      5  C   UNL     1       5.944   4.240  17.461  0.00  0.00    +0.000 A 
ATOM      6  C   UNL     1       5.041   4.016  16.421  0.00  0.00    +0.000 A 
ATOM      7  C   UNL     1       5.438   4.254  15.106  0.00  0.00    +0.000 A 
ATOM      8  C   UNL     1       6.732   4.696  14.889  0.00  0.00    +0.000 A 
ATOM      9 CL   UNL     1       7.299   5.016  13.302  0.00  0.00    +0.000 Cl
ATOM     10  N   UNL     1       7.640   4.908  15.866  0.00  0.00    +0.000 NA
ATOM     11  C   UNL     1       7.226   4.662  17.135  0.00  0.00    +0.000 A 
ENDBRANCH   2   5
BRANCH   3  12
ATOM     12  C   UNL     1       4.457   2.402  20.437  0.00  0.00    +0.000 C 
BRANCH  12  13
ATOM     13  C   UNL     1       2.931   2.466  20.407  0.00  0.00    +0.000 C 
BRANCH  13  14
ATOM     14  C   UNL     1       2.371   2.555  18.981  0.00  0.00    +0.000 C 
BRANCH  14  15
ATOM     15  N   UNL     1       1.248   3.507  18.885  0.00  0.00    +0.000 NA
ATOM     16  C   UNL     1       1.442   4.574  17.874  0.00  0.00    +0.000 C 
ATOM     17  C   UNL     1       2.444   5.667  18.280  0.00  0.00    +0.000 C 
ATOM     18  O   UNL     1       2.111   6.248  19.547  0.00  0.00    +0.000 OA
ATOM     19  C   UNL     1       2.015   5.241  20.561  0.00  0.00    +0.000 C 
ATOM     20  C   UNL     1       0.977   4.170  20.183  0.00  0.00    +0.000 C 
ENDBRANCH  14  15
ENDBRANCH  13  14
ENDBRANCH  12  13
ENDBRANCH   3  12
TORSDOF 5
ENDMDL
MODEL 3
REMARK VINA RESULT:      -6.3      3.622      6.142
REMARK  Name = 
REMARK  5 active torsions:
REMARK  status: ('A' for Active; 'I' for Inactive)
REMARK    1  A    between atoms: C_2  and  C_13
REMARK    2  A    between atoms: N_3  and  C_4
REMARK    3  A    between atoms: C_4  and  C_5
REMARK    4  A    between atoms: C_5  and  C_6
REMARK    5  A    between atoms: C_6  and  N_7
REMARK                            x       y       z     vdW  Elec       q    Type
REMARK                         _______ _______ _______ _____ _____    ______ ____
ROOT
ATOM      1  O   UNL     1       2.173   5.682  20.761  0.00  0.00    +0.000 OA
ATOM      2  C   UNL     1       2.451   6.174  19.672  0.00  0.00    +0.000 C 
ATOM      3  N   UNL     1       3.159   5.511  18.694  0.00  0.00    +0.000 N 
ATOM      4  H   UNL     1       3.420   5.976  17.834  0.00  0.00    +0.000 HD
ENDROOT
BRANCH   2   5
ATOM      5  C   UNL     1       2.027   7.564  19.378  0.00  0.00    +0.000 A 
ATOM      6  C   UNL     1       2.267   8.107  18.115  0.00  0.00    +0.000 A 
ATOM      7  C   UNL     1       1.887   9.421  17.850  0.00  0.00    +0.000 A 
ATOM      8  C   UNL     1       1.291  10.142  18.870  0.00  0.00    +0.000 A 
ATOM      9 CL   UNL     1       0.790  11.764  18.627  0.00  0.00    +0.000 Cl
ATOM     10  N   UNL     1       1.057   9.659  20.109  0.00  0.00    +0.000 NA
ATOM     11  C   UNL     1       1.443   8.379  20.338  0.00  0.00    +0.000 A 
ENDBRANCH   2   5
BRANCH   3  12
ATOM     12  C   UNL     1       3.508   4.106  18.838  0.00  0.00    +0.000 C 
BRANCH  12  13
ATOM     13  C   UNL     1       5.011   3.908  18.649  0.00  0.00    +0.000 C 
BRANCH  13  14
ATOM     14  C   UNL     1       5.836   5.077  19.201  0.00  0.00    +0.000 C 
BRANCH  14  15
ATOM     15  N   UNL     1       7.234   5.040  18.733  0.00  0.00    +0.000 NA
ATOM     16  C   UNL     1       7.924   6.351  18.777  0.00  0.00    +0.000 C 
ATOM     17  C   UNL     1       7.494   7.340  17.680  0.00  0.00    +0.000 C 
ATOM     18  O   UNL     1       7.616   6.767  16.372  0.00  0.00    +0.000 OA
ATOM     19  C   UNL     1       6.874   5.545  16.279  0.00  0.00    +0.000 C 
ATOM     20  C   UNL     1       7.334   4.533  17.343  0.00  0.00    +0.000 C 
ENDBRANCH  14  15
ENDBRANCH  13  14
ENDBRANCH  12  13
ENDBRANCH   3  12
TORSDOF 5
ENDMDL
MODEL 4
REMARK VINA RESULT:      -6.3      1.237      1.249
REMARK  Name = 
REMARK  5 active torsions:
REMARK  status: ('A' for Active; 'I' for Inactive)
REMARK    1  A    between atoms: C_2  and  C_13
REMARK    2  A    between atoms: N_3  and  C_4
REMARK    3  A    between atoms: C_4  and  C_5
REMARK    4  A    between atoms: C_5  and  C_6
REMARK    5  A    between atoms: C_6  and  N_7
REMARK                            x       y       z     vdW  Elec       q    Type
REMARK                         _______ _______ _______ _____ _____    ______ ____
ROOT
ATOM      1  O   UNL     1       3.292   7.863  17.941  0.00  0.00    +0.000 OA
ATOM      2  C   UNL     1       3.588   6.677  18.049  0.00  0.00    +0.000 C 
ATOM      3  N   UNL     1       3.250   5.904  19.138  0.00  0.00    +0.000 N 
ATOM      4  H   UNL     1       3.567   4.946  19.214  0.00  0.00    +0.000 HD
ENDROOT
BRANCH   2   5
ATOM      5  C   UNL     1       4.365   6.024  16.969  0.00  0.00    +0.000 A 
ATOM      6  C   UNL     1       4.421   4.632  16.902  0.00  0.00    +0.000 A 
ATOM      7  C   UNL     1       5.172   4.023  15.898  0.00  0.00    +0.000 A 
ATOM      8  C   UNL     1       5.848   4.839  15.008  0.00  0.00    +0.000 A 
ATOM      9 CL   UNL     1       6.791   4.171  13.741  0.00  0.00    +0.000 Cl
ATOM     10  N   UNL     1       5.833   6.189  15.049  0.00  0.00    +0.000 NA
ATOM     11  C   UNL     1       5.098   6.752  16.041  0.00  0.00    +0.000 A 
ENDBRANCH   2   5
BRANCH   3  12
ATOM     12  C   UNL     1       2.382   6.416  20.187  0.00  0.00    +0.000 C 
BRANCH  12  13
ATOM     13  C   UNL     1       1.510   5.296  20.751  0.00  0.00    +0.000 C 
BRANCH  13  14
ATOM     14  C   UNL     1       1.217   4.198  19.721  0.00  0.00    +0.000 C 
BRANCH  14  15
ATOM     15  N   UNL     1       1.466   2.849  20.263  0.00  0.00    +0.000 NA
ATOM     16  C   UNL     1       2.758   2.709  20.975  0.00  0.00    +0.000 C 
ATOM     17  C   UNL     1       3.993   2.661  20.060  0.00  0.00    +0.000 C 
ATOM     18  O   UNL     1       3.872   1.641  19.060  0.00  0.00    +0.000 OA
ATOM     19  C   UNL     1       2.674   1.816  18.294  0.00  0.00    +0.000 C 
ATOM     20  C   UNL     1       1.431   1.815  19.200  0.00  0.00    +0.000 C 
ENDBRANCH  14  15
ENDBRANCH  13  14
ENDBRANCH  12  13
ENDBRANCH   3  12
TORSDOF 5
ENDMDL
MODEL 5
REMARK VINA RESULT:      -6.3      0.979      1.159
REMARK  Name = 
REMARK  5 active torsions:
REMARK  status: ('A' for Active; 'I' for Inactive)
REMARK    1  A    between atoms: C_2  and  C_13
REMARK    2  A    between atoms: N_3  and  C_4
REMARK    3  A    between atoms: C_4  and  C_5
REMARK    4  A    between atoms: C_5  and  C_6
REMARK    5  A    between atoms: C_6  and  N_7
REMARK                            x       y       z     vdW  Elec       q    Type
REMARK                         _______ _______ _______ _____ _____    ______ ____
ROOT
ATOM      1  O   UNL     1       5.191   5.638  19.468  0.00  0.00    +0.000 OA
ATOM      2  C   UNL     1       4.417   5.583  18.518  0.00  0.00    +0.000 C 
ATOM      3  N   UNL     1       3.068   5.848  18.618  0.00  0.00    +0.000 N 
ATOM      4  H   UNL     1       2.455   5.730  17.822  0.00  0.00    +0.000 HD
ENDROOT
BRANCH   2   5
ATOM      5  C   UNL     1       4.934   5.194  17.184  0.00  0.00    +0.000 A 
ATOM      6  C   UNL     1       5.091   6.165  16.195  0.00  0.00    +0.000 A 
ATOM      7  C   UNL     1       5.556   5.792  14.935  0.00  0.00    +0.000 A 
ATOM      8  C   UNL     1       5.834   4.454  14.717  0.00  0.00    +0.000 A 
ATOM      9 CL   UNL     1       6.413   3.910  13.197  0.00  0.00    +0.000 Cl
ATOM     10  N   UNL     1       5.678   3.482  15.642  0.00  0.00    +0.000 NA
ATOM     11  C   UNL     1       5.219   3.875  16.856  0.00  0.00    +0.000 A 
ENDBRANCH   2   5
BRANCH   3  12
ATOM     12  C   UNL     1       2.490   6.359  19.851  0.00  0.00    +0.000 C 
BRANCH  12  13
ATOM     13  C   UNL     1       1.923   5.214  20.688  0.00  0.00    +0.000 C 
BRANCH  13  14
ATOM     14  C   UNL     1       0.953   4.327  19.898  0.00  0.00    +0.000 C 
BRANCH  14  15
ATOM     15  N   UNL     1       1.086   2.902  20.255  0.00  0.00    +0.000 NA
ATOM     16  C   UNL     1       2.317   2.579  21.014  0.00  0.00    +0.000 C 
ATOM     17  C   UNL     1       3.606   2.576  20.175  0.00  0.00    +0.000 C 
ATOM     18  O   UNL     1       3.494   1.715  19.035  0.00  0.00    +0.000 OA
ATOM     19  C   UNL     1       2.362   2.074  18.233  0.00  0.00    +0.000 C 
ATOM     20  C   UNL     1       1.063   2.031  19.056  0.00  0.00    +0.000 C 
ENDBRANCH  14  15
ENDBRANCH  13  14
ENDBRANCH  12  13
ENDBRANCH   3  12
TORSDOF 5
ENDMDL
MODEL 6
REMARK VINA RESULT:      -6.2      3.408      5.945
REMARK  Name = 
REMARK  5 active torsions:
REMARK  status: ('A' for Active; 'I' for Inactive)
REMARK    1  A    between atoms: C_2  and  C_13
REMARK    2  A    between atoms: N_3  and  C_4
REMARK    3  A    between atoms: C_4  and  C_5
REMARK    4  A    between atoms: C_5  and  C_6
REMARK    5  A    between atoms: C_6  and  N_7
REMARK                            x       y       z     vdW  Elec       q    Type
REMARK                         _______ _______ _______ _____ _____    ______ ____
ROOT
ATOM      1  O   UNL     1       2.975   5.383  20.410  0.00  0.00    +0.000 OA
ATOM      2  C   UNL     1       2.511   5.773  19.344  0.00  0.00    +0.000 C 
ATOM      3  N   UNL     1       2.354   4.966  18.239  0.00  0.00    +0.000 N 
ATOM      4  H   UNL     1       2.024   5.344  17.360  0.00  0.00    +0.000 HD
ENDROOT
BRANCH   2   5
ATOM      5  C   UNL     1       2.104   7.193  19.209  0.00  0.00    +0.000 A 
ATOM      6  C   UNL     1       2.288   7.851  17.992  0.00  0.00    +0.000 A 
ATOM      7  C   UNL     1       1.926   9.192  17.877  0.00  0.00    +0.000 A 
ATOM      8  C   UNL     1       1.404   9.822  18.994  0.00  0.00    +0.000 A 
ATOM      9 CL   UNL     1       0.930  11.469  18.937  0.00  0.00    +0.000 Cl
ATOM     10  N   UNL     1       1.227   9.225  20.192  0.00  0.00    +0.000 NA
ATOM     11  C   UNL     1       1.594   7.921  20.275  0.00  0.00    +0.000 A 
ENDBRANCH   2   5
BRANCH   3  12
ATOM     12  C   UNL     1       2.603   3.534  18.311  0.00  0.00    +0.000 C 
BRANCH  12  13
ATOM     13  C   UNL     1       3.791   3.155  17.428  0.00  0.00    +0.000 C 
BRANCH  13  14
ATOM     14  C   UNL     1       4.972   4.121  17.579  0.00  0.00    +0.000 C 
BRANCH  14  15
ATOM     15  N   UNL     1       4.915   5.225  16.602  0.00  0.00    +0.000 NA
ATOM     16  C   UNL     1       5.452   4.880  15.264  0.00  0.00    +0.000 C 
ATOM     17  C   UNL     1       6.985   4.785  15.194  0.00  0.00    +0.000 C 
ATOM     18  O   UNL     1       7.614   5.977  15.681  0.00  0.00    +0.000 OA
ATOM     19  C   UNL     1       7.180   6.275  17.013  0.00  0.00    +0.000 C 
ATOM     20  C   UNL     1       5.650   6.420  17.080  0.00  0.00    +0.000 C 
ENDBRANCH  14  15
ENDBRANCH  13  14
ENDBRANCH  12  13
ENDBRANCH   3  12
TORSDOF 5
ENDMDL
MODEL 7
REMARK VINA RESULT:      -6.2      3.503      5.199
REMARK  Name = 
REMARK  5 active torsions:
REMARK  status: ('A' for Active; 'I' for Inactive)
REMARK    1  A    between atoms: C_2  and  C_13
REMARK    2  A    between atoms: N_3  and  C_4
REMARK    3  A    between atoms: C_4  and  C_5
REMARK    4  A    between atoms: C_5  and  C_6
REMARK    5  A    between atoms: C_6  and  N_7
REMARK                            x       y       z     vdW  Elec       q    Type
REMARK                         _______ _______ _______ _____ _____    ______ ____
ROOT
ATOM      1  O   UNL     1       4.627   7.160  16.993  0.00  0.00    +0.000 OA
ATOM      2  C   UNL     1       3.656   6.655  17.545  0.00  0.00    +0.000 C 
ATOM      3  N   UNL     1       3.351   5.313  17.475  0.00  0.00    +0.000 N 
ATOM      4  H   UNL     1       2.505   4.949  17.896  0.00  0.00    +0.000 HD
ENDROOT
BRANCH   2   5
ATOM      5  C   UNL     1       2.735   7.519  18.323  0.00  0.00    +0.000 A 
ATOM      6  C   UNL     1       2.216   8.676  17.740  0.00  0.00    +0.000 A 
ATOM      7  C   UNL     1       1.370   9.498  18.483  0.00  0.00    +0.000 A 
ATOM      8  C   UNL     1       1.089   9.130  19.787  0.00  0.00    +0.000 A 
ATOM      9 CL   UNL     1       0.055  10.083  20.768  0.00  0.00    +0.000 Cl
ATOM     10  N   UNL     1       1.585   8.029  20.392  0.00  0.00    +0.000 NA
ATOM     11  C   UNL     1       2.410   7.252  19.646  0.00  0.00    +0.000 A 
ENDBRANCH   2   5
BRANCH   3  12
ATOM     12  C   UNL     1       4.258   4.366  16.846  0.00  0.00    +0.000 C 
BRANCH  12  13
ATOM     13  C   UNL     1       4.281   3.052  17.625  0.00  0.00    +0.000 C 
BRANCH  13  14
ATOM     14  C   UNL     1       4.219   3.263  19.143  0.00  0.00    +0.000 C 
BRANCH  14  15
ATOM     15  N   UNL     1       3.297   2.316  19.798  0.00  0.00    +0.000 NA
ATOM     16  C   UNL     1       2.024   2.106  19.069  0.00  0.00    +0.000 C 
ATOM     17  C   UNL     1       1.028   3.274  19.167  0.00  0.00    +0.000 C 
ATOM     18  O   UNL     1       0.760   3.629  20.529  0.00  0.00    +0.000 OA
ATOM     19  C   UNL     1       1.974   3.932  21.227  0.00  0.00    +0.000 C 
ATOM     20  C   UNL     1       2.954   2.747  21.175  0.00  0.00    +0.000 C 
ENDBRANCH  14  15
ENDBRANCH  13  14
ENDBRANCH  12  13
ENDBRANCH   3  12
TORSDOF 5
ENDMDL
MODEL 8
REMARK VINA RESULT:      -6.2      1.009      1.269
REMARK  Name = 
REMARK  5 active torsions:
REMARK  status: ('A' for Active; 'I' for Inactive)
REMARK    1  A    between atoms: C_2  and  C_13
REMARK    2  A    between atoms: N_3  and  C_4
REMARK    3  A    between atoms: C_4  and  C_5
REMARK    4  A    between atoms: C_5  and  C_6
REMARK    5  A    between atoms: C_6  and  N_7
REMARK                            x       y       z     vdW  Elec       q    Type
REMARK                         _______ _______ _______ _____ _____    ______ ____
ROOT
ATOM      1  O   UNL     1       6.091   5.106  18.981  0.00  0.00    +0.000 OA
ATOM      2  C   UNL     1       5.323   5.265  18.039  0.00  0.00    +0.000 C 
ATOM      3  N   UNL     1       3.990   5.580  18.186  0.00  0.00    +0.000 N 
ATOM      4  H   UNL     1       3.377   5.641  17.383  0.00  0.00    +0.000 HD
ENDROOT
BRANCH   2   5
ATOM      5  C   UNL     1       5.830   5.097  16.655  0.00  0.00    +0.000 A 
ATOM      6  C   UNL     1       5.050   4.431  15.709  0.00  0.00    +0.000 A 
ATOM      7  C   UNL     1       5.541   4.255  14.417  0.00  0.00    +0.000 A 
ATOM      8  C   UNL     1       6.803   4.747  14.130  0.00  0.00    +0.000 A 
ATOM      9 CL   UNL     1       7.481   4.576  12.564  0.00  0.00    +0.000 Cl
ATOM     10  N   UNL     1       7.595   5.381  15.022  0.00  0.00    +0.000 NA
ATOM     11  C   UNL     1       7.092   5.531  16.272  0.00  0.00    +0.000 A 
ENDBRANCH   2   5
BRANCH   3  12
ATOM     12  C   UNL     1       3.429   5.890  19.493  0.00  0.00    +0.000 C 
BRANCH  12  13
ATOM     13  C   UNL     1       2.060   5.231  19.655  0.00  0.00    +0.000 C 
BRANCH  13  14
ATOM     14  C   UNL     1       1.796   4.148  18.601  0.00  0.00    +0.000 C 
BRANCH  14  15
ATOM     15  N   UNL     1       1.557   2.827  19.212  0.00  0.00    +0.000 NA
ATOM     16  C   UNL     1       1.241   2.875  20.659  0.00  0.00    +0.000 C 
ATOM     17  C   UNL     1       2.445   3.171  21.569  0.00  0.00    +0.000 C 
ATOM     18  O   UNL     1       3.525   2.258  21.334  0.00  0.00    +0.000 OA
ATOM     19  C   UNL     1       3.911   2.268  19.954  0.00  0.00    +0.000 C 
ATOM     20  C   UNL     1       2.721   1.924  19.042  0.00  0.00    +0.000 C 
ENDBRANCH  14  15
ENDBRANCH  13  14
ENDBRANCH  12  13
ENDBRANCH   3  12
TORSDOF 5
ENDMDL
MODEL 9
REMARK VINA RESULT:      -6.2      2.401      3.245
REMARK  Name = 
REMARK  5 active torsions:
REMARK  status: ('A' for Active; 'I' for Inactive)
REMARK    1  A    between atoms: C_2  and  C_13
REMARK    2  A    between atoms: N_3  and  C_4
REMARK    3  A    between atoms: C_4  and  C_5
REMARK    4  A    between atoms: C_5  and  C_6
REMARK    5  A    between atoms: C_6  and  N_7
REMARK                            x       y       z     vdW  Elec       q    Type
REMARK                         _______ _______ _______ _____ _____    ______ ____
ROOT
ATOM      1  O   UNL     1       5.240   3.170  19.728  0.00  0.00    +0.000 OA
ATOM      2  C   UNL     1       5.145   3.673  18.613  0.00  0.00    +0.000 C 
ATOM      3  N   UNL     1       4.425   3.111  17.582  0.00  0.00    +0.000 N 
ATOM      4  H   UNL     1       4.424   3.528  16.660  0.00  0.00    +0.000 HD
ENDROOT
BRANCH   2   5
ATOM      5  C   UNL     1       5.850   4.947  18.332  0.00  0.00    +0.000 A 
ATOM      6  C   UNL     1       5.332   5.828  17.383  0.00  0.00    +0.000 A 
ATOM      7  C   UNL     1       6.011   7.014  17.105  0.00  0.00    +0.000 A 
ATOM      8  C   UNL     1       7.192   7.259  17.785  0.00  0.00    +0.000 A 
ATOM      9 CL   UNL     1       8.087   8.695  17.505  0.00  0.00    +0.000 Cl
ATOM     10  N   UNL     1       7.734   6.424  18.697  0.00  0.00    +0.000 NA
ATOM     11  C   UNL     1       7.054   5.277  18.941  0.00  0.00    +0.000 A 
ENDBRANCH   2   5
BRANCH   3  12
ATOM     12  C   UNL     1       3.597   1.934  17.795  0.00  0.00    +0.000 C 
BRANCH  12  13
ATOM     13  C   UNL     1       2.123   2.327  17.882  0.00  0.00    +0.000 C 
BRANCH  13  14
ATOM     14  C   UNL     1       1.923   3.768  18.371  0.00  0.00    +0.000 C 
BRANCH  14  15
ATOM     15  N   UNL     1       0.947   3.849  19.473  0.00  0.00    +0.000 NA
ATOM     16  C   UNL     1       1.190   4.965  20.418  0.00  0.00    +0.000 C 
ATOM     17  C   UNL     1       2.377   4.750  21.372  0.00  0.00    +0.000 C 
ATOM     18  O   UNL     1       2.263   3.516  22.091  0.00  0.00    +0.000 OA
ATOM     19  C   UNL     1       2.124   2.411  21.190  0.00  0.00    +0.000 C 
ATOM     20  C   UNL     1       0.909   2.597  20.266  0.00  0.00    +0.000 C 
ENDBRANCH  14  15
ENDBRANCH  13  14
ENDBRANCH  12  13
ENDBRANCH   3  12
TORSDOF 5
ENDMDL
