MODEL 1
REMARK VINA RESULT:      -8.1      0.000      0.000
REMARK  Name = 
REMARK  4 active torsions:
REMARK  status: ('A' for Active; 'I' for Inactive)
REMARK    1  A    between atoms: C_11  and  O_12
REMARK    2  A    between atoms: C_13  and  N_14
REMARK    3  A    between atoms: N_14  and  C_15
REMARK    4  A    between atoms: C_19  and  C_20
REMARK                            x       y       z     vdW  Elec       q    Type
REMARK                         _______ _______ _______ _____ _____    ______ ____
ROOT
ATOM      1  O   UNL     1       7.836   6.899  16.925  0.00  0.00    +0.000 OA
ATOM      2  C   UNL     1       7.213   5.874  16.721  0.00  0.00    +0.000 C 
ATOM      3  C   UNL     1       7.028   5.198  15.401  0.00  0.00    +0.000 A 
ATOM      4  C   UNL     1       7.189   5.617  14.100  0.00  0.00    +0.000 A 
ATOM      5  C   UNL     1       6.661   4.806  13.086  0.00  0.00    +0.000 A 
ATOM      6  C   UNL     1       6.037   3.568  13.355  0.00  0.00    +0.000 A 
ATOM      7  C   UNL     1       5.898   3.148  14.662  0.00  0.00    +0.000 A 
ATOM      8  C   UNL     1       6.321   4.026  15.649  0.00  0.00    +0.000 A 
ATOM      9  C   UNL     1       5.688   4.114  16.990  0.00  0.00    +0.000 C 
ATOM     10  C   UNL     1       4.281   4.681  16.676  0.00  0.00    +0.000 C 
ATOM     11  C   UNL     1       3.316   4.529  17.830  0.00  0.00    +0.000 C 
ATOM     12  C   UNL     1       3.864   5.357  19.006  0.00  0.00    +0.000 C 
ATOM     13  C   UNL     1       5.096   4.795  19.724  0.00  0.00    +0.000 C 
ATOM     14  C   UNL     1       6.376   5.380  19.087  0.00  0.00    +0.000 C 
ATOM     15  N   UNL     1       6.504   5.108  17.654  0.00  0.00    +0.000 N 
ENDROOT
BRANCH  11  16
ATOM     16  O   UNL     1       3.053   3.156  18.102  0.00  0.00    +0.000 OA
ATOM     17  H   UNL     1       2.104   2.970  18.049  0.00  0.00    +0.000 HD
ENDBRANCH  11  16
BRANCH  12  18
ATOM     18  N   UNL     1       2.792   5.706  19.930  0.00  0.00    +0.000 N 
ATOM     19  H   UNL     1       2.898   5.357  20.879  0.00  0.00    +0.000 HD
BRANCH  18  20
ATOM     20  C   UNL     1       2.200   6.959  19.778  0.00  0.00    +0.000 A 
ATOM     21  C   UNL     1       2.391   7.684  18.601  0.00  0.00    +0.000 A 
ATOM     22  C   UNL     1       1.832   8.952  18.445  0.00  0.00    +0.000 A 
ATOM     23  C   UNL     1       1.076   9.530  19.467  0.00  0.00    +0.000 A 
ATOM     24  C   UNL     1       0.871   8.834  20.659  0.00  0.00    +0.000 A 
ATOM     25  C   UNL     1       1.451   7.570  20.799  0.00  0.00    +0.000 A 
BRANCH  24  26
ATOM     26  C   UNL     1       0.051   9.380  21.797  0.00  0.00    +0.000 C 
ATOM     27  F   UNL     1      -0.916   8.535  22.234  0.00  0.00    +0.000 F 
ATOM     28  F   UNL     1       0.813   9.680  22.888  0.00  0.00    +0.000 F 
ATOM     29  F   UNL     1      -0.585  10.543  21.469  0.00  0.00    +0.000 F 
ENDBRANCH  24  26
ENDBRANCH  18  20
ENDBRANCH  12  18
TORSDOF 4
ENDMDL
MODEL 2
REMARK VINA RESULT:      -8.0      0.647      1.057
REMARK  Name = 
REMARK  4 active torsions:
REMARK  status: ('A' for Active; 'I' for Inactive)
REMARK    1  A    between atoms: C_11  and  O_12
REMARK    2  A    between atoms: C_13  and  N_14
REMARK    3  A    between atoms: N_14  and  C_15
REMARK    4  A    between atoms: C_19  and  C_20
REMARK                            x       y       z     vdW  Elec       q    Type
REMARK                         _______ _______ _______ _____ _____    ______ ____
ROOT
ATOM      1  O   UNL     1       7.943   6.784  16.922  0.00  0.00    +0.000 OA
ATOM      2  C   UNL     1       7.222   5.822  16.736  0.00  0.00    +0.000 C 
ATOM      3  C   UNL     1       7.025   5.100  15.444  0.00  0.00    +0.000 A 
ATOM      4  C   UNL     1       7.289   5.429  14.133  0.00  0.00    +0.000 A 
ATOM      5  C   UNL     1       6.722   4.627  13.134  0.00  0.00    +0.000 A 
ATOM      6  C   UNL     1       5.954   3.478  13.431  0.00  0.00    +0.000 A 
ATOM      7  C   UNL     1       5.711   3.147  14.748  0.00  0.00    +0.000 A 
ATOM      8  C   UNL     1       6.183   4.026  15.711  0.00  0.00    +0.000 A 
ATOM      9  C   UNL     1       5.502   4.253  17.013  0.00  0.00    +0.000 C 
ATOM     10  C   UNL     1       4.182   4.951  16.600  0.00  0.00    +0.000 C 
ATOM     11  C   UNL     1       3.154   4.965  17.709  0.00  0.00    +0.000 C 
ATOM     12  C   UNL     1       3.735   5.792  18.870  0.00  0.00    +0.000 C 
ATOM     13  C   UNL     1       4.865   5.140  19.676  0.00  0.00    +0.000 C 
ATOM     14  C   UNL     1       6.229   5.550  19.078  0.00  0.00    +0.000 C 
ATOM     15  N   UNL     1       6.391   5.189  17.669  0.00  0.00    +0.000 N 
ENDROOT
BRANCH  11  16
ATOM     16  O   UNL     1       2.730   3.645  18.033  0.00  0.00    +0.000 OA
ATOM     17  H   UNL     1       3.319   3.246  18.692  0.00  0.00    +0.000 HD
ENDBRANCH  11  16
BRANCH  12  18
ATOM     18  N   UNL     1       2.668   6.303  19.720  0.00  0.00    +0.000 N 
ATOM     19  H   UNL     1       2.734   6.060  20.704  0.00  0.00    +0.000 HD
BRANCH  18  20
ATOM     20  C   UNL     1       2.152   7.561  19.411  0.00  0.00    +0.000 A 
ATOM     21  C   UNL     1       2.430   8.146  18.175  0.00  0.00    +0.000 A 
ATOM     22  C   UNL     1       1.948   9.417  17.862  0.00  0.00    +0.000 A 
ATOM     23  C   UNL     1       1.185  10.138  18.783  0.00  0.00    +0.000 A 
ATOM     24  C   UNL     1       0.896   9.585  20.031  0.00  0.00    +0.000 A 
ATOM     25  C   UNL     1       1.399   8.315  20.328  0.00  0.00    +0.000 A 
BRANCH  24  26
ATOM     26  C   UNL     1       0.062  10.290  21.068  0.00  0.00    +0.000 C 
ATOM     27  F   UNL     1       0.651  11.396  21.589  0.00  0.00    +0.000 F 
ATOM     28  F   UNL     1      -1.142  10.700  20.575  0.00  0.00    +0.000 F 
ATOM     29  F   UNL     1      -0.235   9.486  22.131  0.00  0.00    +0.000 F 
ENDBRANCH  24  26
ENDBRANCH  18  20
ENDBRANCH  12  18
TORSDOF 4
ENDMDL
MODEL 3
REMARK VINA RESULT:      -7.8      5.407     10.230
REMARK  Name = 
REMARK  4 active torsions:
REMARK  status: ('A' for Active; 'I' for Inactive)
REMARK    1  A    between atoms: C_11  and  O_12
REMARK    2  A    between atoms: C_13  and  N_14
REMARK    3  A    between atoms: N_14  and  C_15
REMARK    4  A    between atoms: C_19  and  C_20
REMARK                            x       y       z     vdW  Elec       q    Type
REMARK                         _______ _______ _______ _____ _____    ______ ____
ROOT
ATOM      1  O   UNL     1      -0.638  12.664  23.222  0.00  0.00    +0.000 OA
ATOM      2  C   UNL     1      -1.256  12.932  22.209  0.00  0.00    +0.000 C 
ATOM      3  C   UNL     1      -2.734  13.116  22.096  0.00  0.00    +0.000 A 
ATOM      4  C   UNL     1      -3.789  12.767  22.908  0.00  0.00    +0.000 A 
ATOM      5  C   UNL     1      -5.080  12.847  22.367  0.00  0.00    +0.000 A 
ATOM      6  C   UNL     1      -5.324  13.325  21.060  0.00  0.00    +0.000 A 
ATOM      7  C   UNL     1      -4.260  13.689  20.261  0.00  0.00    +0.000 A 
ATOM      8  C   UNL     1      -2.990  13.486  20.780  0.00  0.00    +0.000 A 
ATOM      9  C   UNL     1      -1.810  13.152  19.941  0.00  0.00    +0.000 C 
ATOM     10  C   UNL     1      -2.143  11.733  19.416  0.00  0.00    +0.000 C 
ATOM     11  C   UNL     1      -1.268  11.315  18.257  0.00  0.00    +0.000 C 
ATOM     12  C   UNL     1       0.183  11.257  18.769  0.00  0.00    +0.000 C 
ATOM     13  C   UNL     1       0.868  12.601  19.039  0.00  0.00    +0.000 C 
ATOM     14  C   UNL     1       0.663  12.996  20.519  0.00  0.00    +0.000 C 
ATOM     15  N   UNL     1      -0.741  13.098  20.917  0.00  0.00    +0.000 N 
ENDROOT
BRANCH  11  16
ATOM     16  O   UNL     1      -1.495  12.139  17.119  0.00  0.00    +0.000 OA
ATOM     17  H   UNL     1      -0.680  12.587  16.848  0.00  0.00    +0.000 HD
ENDBRANCH  11  16
BRANCH  12  18
ATOM     18  N   UNL     1       0.989  10.381  17.927  0.00  0.00    +0.000 N 
ATOM     19  H   UNL     1       1.581  10.848  17.246  0.00  0.00    +0.000 HD
BRANCH  18  20
ATOM     20  C   UNL     1       1.488   9.217  18.510  0.00  0.00    +0.000 A 
ATOM     21  C   UNL     1       1.157   8.897  19.827  0.00  0.00    +0.000 A 
ATOM     22  C   UNL     1       1.673   7.754  20.435  0.00  0.00    +0.000 A 
ATOM     23  C   UNL     1       2.543   6.908  19.744  0.00  0.00    +0.000 A 
ATOM     24  C   UNL     1       2.900   7.203  18.428  0.00  0.00    +0.000 A 
ATOM     25  C   UNL     1       2.381   8.361  17.842  0.00  0.00    +0.000 A 
BRANCH  24  26
ATOM     26  C   UNL     1       3.815   6.330  17.610  0.00  0.00    +0.000 C 
ATOM     27  F   UNL     1       4.932   5.932  18.269  0.00  0.00    +0.000 F 
ATOM     28  F   UNL     1       3.199   5.188  17.186  0.00  0.00    +0.000 F 
ATOM     29  F   UNL     1       4.249   6.951  16.475  0.00  0.00    +0.000 F 
ENDBRANCH  24  26
ENDBRANCH  18  20
ENDBRANCH  12  18
TORSDOF 4
ENDMDL
MODEL 4
REMARK VINA RESULT:      -7.6      4.283      6.786
REMARK  Name = 
REMARK  4 active torsions:
REMARK  status: ('A' for Active; 'I' for Inactive)
REMARK    1  A    between atoms: C_11  and  O_12
REMARK    2  A    between atoms: C_13  and  N_14
REMARK    3  A    between atoms: N_14  and  C_15
REMARK    4  A    between atoms: C_19  and  C_20
REMARK                            x       y       z     vdW  Elec       q    Type
REMARK                         _______ _______ _______ _____ _____    ______ ____
ROOT
ATOM      1  O   UNL     1       2.100   7.037  20.584  0.00  0.00    +0.000 OA
ATOM      2  C   UNL     1       2.148   6.190  19.713  0.00  0.00    +0.000 C 
ATOM      3  C   UNL     1       1.754   4.756  19.850  0.00  0.00    +0.000 A 
ATOM      4  C   UNL     1       1.550   3.937  20.937  0.00  0.00    +0.000 A 
ATOM      5  C   UNL     1       1.455   2.558  20.704  0.00  0.00    +0.000 A 
ATOM      6  C   UNL     1       1.500   2.005  19.405  0.00  0.00    +0.000 A 
ATOM      7  C   UNL     1       1.686   2.837  18.320  0.00  0.00    +0.000 A 
ATOM      8  C   UNL     1       1.897   4.181  18.591  0.00  0.00    +0.000 A 
ATOM      9  C   UNL     1       2.749   5.060  17.748  0.00  0.00    +0.000 C 
ATOM     10  C   UNL     1       4.171   4.489  17.971  0.00  0.00    +0.000 C 
ATOM     11  C   UNL     1       5.169   4.982  16.949  0.00  0.00    +0.000 C 
ATOM     12  C   UNL     1       5.286   6.508  17.112  0.00  0.00    +0.000 C 
ATOM     13  C   UNL     1       4.096   7.342  16.623  0.00  0.00    +0.000 C 
ATOM     14  C   UNL     1       3.115   7.578  17.794  0.00  0.00    +0.000 C 
ATOM     15  N   UNL     1       2.607   6.346  18.399  0.00  0.00    +0.000 N 
ENDROOT
BRANCH  11  16
ATOM     16  O   UNL     1       4.839   4.518  15.644  0.00  0.00    +0.000 OA
ATOM     17  H   UNL     1       5.516   4.780  15.002  0.00  0.00    +0.000 HD
ENDBRANCH  11  16
BRANCH  12  18
ATOM     18  N   UNL     1       6.556   6.985  16.580  0.00  0.00    +0.000 N 
ATOM     19  H   UNL     1       6.539   7.296  15.613  0.00  0.00    +0.000 HD
BRANCH  18  20
ATOM     20  C   UNL     1       7.396   7.675  17.453  0.00  0.00    +0.000 A 
ATOM     21  C   UNL     1       7.970   7.014  18.540  0.00  0.00    +0.000 A 
ATOM     22  C   UNL     1       8.786   7.697  19.441  0.00  0.00    +0.000 A 
ATOM     23  C   UNL     1       9.040   9.061  19.282  0.00  0.00    +0.000 A 
ATOM     24  C   UNL     1       8.475   9.753  18.211  0.00  0.00    +0.000 A 
ATOM     25  C   UNL     1       7.650   9.052  17.327  0.00  0.00    +0.000 A 
BRANCH  24  26
ATOM     26  C   UNL     1       8.718  11.218  17.961  0.00  0.00    +0.000 C 
ATOM     27  F   UNL     1       8.731  11.975  19.086  0.00  0.00    +0.000 F 
ATOM     28  F   UNL     1       9.911  11.447  17.338  0.00  0.00    +0.000 F 
ATOM     29  F   UNL     1       7.772  11.771  17.146  0.00  0.00    +0.000 F 
ENDBRANCH  24  26
ENDBRANCH  18  20
ENDBRANCH  12  18
TORSDOF 4
ENDMDL
MODEL 5
REMARK VINA RESULT:      -7.6      5.966     10.591
REMARK  Name = 
REMARK  4 active torsions:
REMARK  status: ('A' for Active; 'I' for Inactive)
REMARK    1  A    between atoms: C_11  and  O_12
REMARK    2  A    between atoms: C_13  and  N_14
REMARK    3  A    between atoms: N_14  and  C_15
REMARK    4  A    between atoms: C_19  and  C_20
REMARK                            x       y       z     vdW  Elec       q    Type
REMARK                         _______ _______ _______ _____ _____    ______ ____
ROOT
ATOM      1  O   UNL     1      -3.513  12.613  22.322  0.00  0.00    +0.000 OA
ATOM      2  C   UNL     1      -3.825  12.660  21.148  0.00  0.00    +0.000 C 
ATOM      3  C   UNL     1      -5.180  12.389  20.580  0.00  0.00    +0.000 A 
ATOM      4  C   UNL     1      -6.299  11.759  21.077  0.00  0.00    +0.000 A 
ATOM      5  C   UNL     1      -7.318  11.436  20.171  0.00  0.00    +0.000 A 
ATOM      6  C   UNL     1      -7.257  11.787  18.805  0.00  0.00    +0.000 A 
ATOM      7  C   UNL     1      -6.139  12.435  18.321  0.00  0.00    +0.000 A 
ATOM      8  C   UNL     1      -5.096  12.635  19.213  0.00  0.00    +0.000 A 
ATOM      9  C   UNL     1      -3.667  12.651  18.808  0.00  0.00    +0.000 C 
ATOM     10  C   UNL     1      -3.408  11.185  18.377  0.00  0.00    +0.000 C 
ATOM     11  C   UNL     1      -2.130  11.022  17.588  0.00  0.00    +0.000 C 
ATOM     12  C   UNL     1      -0.961  11.414  18.510  0.00  0.00    +0.000 C 
ATOM     13  C   UNL     1      -0.800  12.908  18.813  0.00  0.00    +0.000 C 
ATOM     14  C   UNL     1      -1.566  13.258  20.109  0.00  0.00    +0.000 C 
ATOM     15  N   UNL     1      -2.994  12.942  20.057  0.00  0.00    +0.000 N 
ENDROOT
BRANCH  11  16
ATOM     16  O   UNL     1      -2.202  11.713  16.345  0.00  0.00    +0.000 OA
ATOM     17  H   UNL     1      -1.321  11.814  15.954  0.00  0.00    +0.000 HD
ENDBRANCH  11  16
BRANCH  12  18
ATOM     18  N   UNL     1       0.280  10.801  18.054  0.00  0.00    +0.000 N 
ATOM     19  H   UNL     1       0.955  11.434  17.634  0.00  0.00    +0.000 HD
BRANCH  18  20
ATOM     20  C   UNL     1       0.786   9.744  18.809  0.00  0.00    +0.000 A 
ATOM     21  C   UNL     1       0.497   9.658  20.172  0.00  0.00    +0.000 A 
ATOM     22  C   UNL     1       1.021   8.625  20.948  0.00  0.00    +0.000 A 
ATOM     23  C   UNL     1       1.854   7.658  20.382  0.00  0.00    +0.000 A 
ATOM     24  C   UNL     1       2.168   7.719  19.024  0.00  0.00    +0.000 A 
ATOM     25  C   UNL     1       1.643   8.771  18.267  0.00  0.00    +0.000 A 
BRANCH  24  26
ATOM     26  C   UNL     1       3.042   6.703  18.336  0.00  0.00    +0.000 C 
ATOM     27  F   UNL     1       3.922   6.084  19.163  0.00  0.00    +0.000 F 
ATOM     28  F   UNL     1       2.315   5.711  17.745  0.00  0.00    +0.000 F 
ATOM     29  F   UNL     1       3.789   7.253  17.334  0.00  0.00    +0.000 F 
ENDBRANCH  24  26
ENDBRANCH  18  20
ENDBRANCH  12  18
TORSDOF 4
ENDMDL
MODEL 6
REMARK VINA RESULT:      -7.5      4.877      6.898
REMARK  Name = 
REMARK  4 active torsions:
REMARK  status: ('A' for Active; 'I' for Inactive)
REMARK    1  A    between atoms: C_11  and  O_12
REMARK    2  A    between atoms: C_13  and  N_14
REMARK    3  A    between atoms: N_14  and  C_15
REMARK    4  A    between atoms: C_19  and  C_20
REMARK                            x       y       z     vdW  Elec       q    Type
REMARK                         _______ _______ _______ _____ _____    ______ ____
ROOT
ATOM      1  O   UNL     1       2.801   7.575  17.835  0.00  0.00    +0.000 OA
ATOM      2  C   UNL     1       3.432   6.542  17.952  0.00  0.00    +0.000 C 
ATOM      3  C   UNL     1       2.967   5.293  18.627  0.00  0.00    +0.000 A 
ATOM      4  C   UNL     1       1.947   5.027  19.513  0.00  0.00    +0.000 A 
ATOM      5  C   UNL     1       1.960   3.788  20.166  0.00  0.00    +0.000 A 
ATOM      6  C   UNL     1       2.936   2.802  19.899  0.00  0.00    +0.000 A 
ATOM      7  C   UNL     1       3.943   3.071  18.996  0.00  0.00    +0.000 A 
ATOM      8  C   UNL     1       3.973   4.348  18.456  0.00  0.00    +0.000 A 
ATOM      9  C   UNL     1       5.229   5.040  18.065  0.00  0.00    +0.000 C 
ATOM     10  C   UNL     1       5.934   5.279  19.424  0.00  0.00    +0.000 C 
ATOM     11  C   UNL     1       7.393   5.647  19.272  0.00  0.00    +0.000 C 
ATOM     12  C   UNL     1       7.457   6.983  18.510  0.00  0.00    +0.000 C 
ATOM     13  C   UNL     1       7.124   6.936  17.015  0.00  0.00    +0.000 C 
ATOM     14  C   UNL     1       5.619   7.220  16.812  0.00  0.00    +0.000 C 
ATOM     15  N   UNL     1       4.739   6.288  17.518  0.00  0.00    +0.000 N 
ENDROOT
BRANCH  11  16
ATOM     16  O   UNL     1       8.137   4.571  18.709  0.00  0.00    +0.000 OA
ATOM     17  H   UNL     1       8.910   4.364  19.256  0.00  0.00    +0.000 HD
ENDBRANCH  11  16
BRANCH  12  18
ATOM     18  N   UNL     1       8.717   7.665  18.778  0.00  0.00    +0.000 N 
ATOM     19  H   UNL     1       9.555   7.178  18.473  0.00  0.00    +0.000 HD
BRANCH  18  20
ATOM     20  C   UNL     1       8.723   9.056  18.684  0.00  0.00    +0.000 A 
ATOM     21  C   UNL     1       8.029   9.691  17.652  0.00  0.00    +0.000 A 
ATOM     22  C   UNL     1       8.051  11.079  17.526  0.00  0.00    +0.000 A 
ATOM     23  C   UNL     1       8.775  11.867  18.423  0.00  0.00    +0.000 A 
ATOM     24  C   UNL     1       9.485  11.264  19.461  0.00  0.00    +0.000 A 
ATOM     25  C   UNL     1       9.460   9.870  19.562  0.00  0.00    +0.000 A 
BRANCH  24  26
ATOM     26  C   UNL     1      10.271  12.046  20.480  0.00  0.00    +0.000 C 
ATOM     27  F   UNL     1      11.578  11.691  20.559  0.00  0.00    +0.000 F 
ATOM     28  F   UNL     1      10.258  13.386  20.228  0.00  0.00    +0.000 F 
ATOM     29  F   UNL     1       9.768  11.909  21.742  0.00  0.00    +0.000 F 
ENDBRANCH  24  26
ENDBRANCH  18  20
ENDBRANCH  12  18
TORSDOF 4
ENDMDL
MODEL 7
REMARK VINA RESULT:      -7.4      4.858      7.903
REMARK  Name = 
REMARK  4 active torsions:
REMARK  status: ('A' for Active; 'I' for Inactive)
REMARK    1  A    between atoms: C_11  and  O_12
REMARK    2  A    between atoms: C_13  and  N_14
REMARK    3  A    between atoms: N_14  and  C_15
REMARK    4  A    between atoms: C_19  and  C_20
REMARK                            x       y       z     vdW  Elec       q    Type
REMARK                         _______ _______ _______ _____ _____    ______ ____
ROOT
ATOM      1  O   UNL     1       5.182   2.141  20.091  0.00  0.00    +0.000 OA
ATOM      2  C   UNL     1       4.621   3.039  19.494  0.00  0.00    +0.000 C 
ATOM      3  C   UNL     1       3.165   3.110  19.165  0.00  0.00    +0.000 A 
ATOM      4  C   UNL     1       2.162   2.168  19.132  0.00  0.00    +0.000 A 
ATOM      5  C   UNL     1       0.957   2.523  18.511  0.00  0.00    +0.000 A 
ATOM      6  C   UNL     1       0.729   3.814  17.984  0.00  0.00    +0.000 A 
ATOM      7  C   UNL     1       1.734   4.756  18.040  0.00  0.00    +0.000 A 
ATOM      8  C   UNL     1       2.954   4.340  18.551  0.00  0.00    +0.000 A 
ATOM      9  C   UNL     1       4.259   4.888  18.098  0.00  0.00    +0.000 C 
ATOM     10  C   UNL     1       4.364   4.381  16.638  0.00  0.00    +0.000 C 
ATOM     11  C   UNL     1       5.431   5.099  15.843  0.00  0.00    +0.000 C 
ATOM     12  C   UNL     1       6.787   4.795  16.504  0.00  0.00    +0.000 C 
ATOM     13  C   UNL     1       7.064   5.485  17.845  0.00  0.00    +0.000 C 
ATOM     14  C   UNL     1       6.616   4.563  19.002  0.00  0.00    +0.000 C 
ATOM     15  N   UNL     1       5.201   4.192  18.950  0.00  0.00    +0.000 N 
ENDROOT
BRANCH  11  16
ATOM     16  O   UNL     1       5.110   6.477  15.680  0.00  0.00    +0.000 OA
ATOM     17  H   UNL     1       4.843   6.664  14.768  0.00  0.00    +0.000 HD
ENDBRANCH  11  16
BRANCH  12  18
ATOM     18  N   UNL     1       7.875   4.975  15.551  0.00  0.00    +0.000 N 
ATOM     19  H   UNL     1       8.780   4.618  15.843  0.00  0.00    +0.000 HD
BRANCH  18  20
ATOM     20  C   UNL     1       7.559   4.874  14.196  0.00  0.00    +0.000 A 
ATOM     21  C   UNL     1       8.261   5.630  13.256  0.00  0.00    +0.000 A 
ATOM     22  C   UNL     1       7.937   5.564  11.902  0.00  0.00    +0.000 A 
ATOM     23  C   UNL     1       6.896   4.748  11.456  0.00  0.00    +0.000 A 
ATOM     24  C   UNL     1       6.169   3.985  12.370  0.00  0.00    +0.000 A 
ATOM     25  C   UNL     1       6.503   4.076  13.724  0.00  0.00    +0.000 A 
BRANCH  24  26
ATOM     26  C   UNL     1       5.048   3.066  11.964  0.00  0.00    +0.000 C 
ATOM     27  F   UNL     1       5.448   1.801  11.680  0.00  0.00    +0.000 F 
ATOM     28  F   UNL     1       4.094   2.953  12.933  0.00  0.00    +0.000 F 
ATOM     29  F   UNL     1       4.388   3.509  10.854  0.00  0.00    +0.000 F 
ENDBRANCH  24  26
ENDBRANCH  18  20
ENDBRANCH  12  18
TORSDOF 4
ENDMDL
MODEL 8
REMARK VINA RESULT:      -7.4      4.340      8.390
REMARK  Name = 
REMARK  4 active torsions:
REMARK  status: ('A' for Active; 'I' for Inactive)
REMARK    1  A    between atoms: C_11  and  O_12
REMARK    2  A    between atoms: C_13  and  N_14
REMARK    3  A    between atoms: N_14  and  C_15
REMARK    4  A    between atoms: C_19  and  C_20
REMARK                            x       y       z     vdW  Elec       q    Type
REMARK                         _______ _______ _______ _____ _____    ______ ____
ROOT
ATOM      1  O   UNL     1       2.796  12.218  17.975  0.00  0.00    +0.000 OA
ATOM      2  C   UNL     1       1.835  11.873  18.635  0.00  0.00    +0.000 C 
ATOM      3  C   UNL     1       1.051  12.731  19.574  0.00  0.00    +0.000 A 
ATOM      4  C   UNL     1       1.312  13.937  20.184  0.00  0.00    +0.000 A 
ATOM      5  C   UNL     1       0.466  14.332  21.230  0.00  0.00    +0.000 A 
ATOM      6  C   UNL     1      -0.657  13.571  21.624  0.00  0.00    +0.000 A 
ATOM      7  C   UNL     1      -0.919  12.373  20.993  0.00  0.00    +0.000 A 
ATOM      8  C   UNL     1       0.001  11.950  20.045  0.00  0.00    +0.000 A 
ATOM      9  C   UNL     1       0.300  10.519  19.780  0.00  0.00    +0.000 C 
ATOM     10  C   UNL     1       0.991  10.057  21.087  0.00  0.00    +0.000 C 
ATOM     11  C   UNL     1       1.073   8.553  21.208  0.00  0.00    +0.000 C 
ATOM     12  C   UNL     1       1.950   8.040  20.051  0.00  0.00    +0.000 C 
ATOM     13  C   UNL     1       1.326   8.077  18.652  0.00  0.00    +0.000 C 
ATOM     14  C   UNL     1       1.690   9.410  17.960  0.00  0.00    +0.000 C 
ATOM     15  N   UNL     1       1.258  10.599  18.696  0.00  0.00    +0.000 N 
ENDROOT
BRANCH  11  16
ATOM     16  O   UNL     1      -0.225   7.975  21.311  0.00  0.00    +0.000 OA
ATOM     17  H   UNL     1      -0.876   8.501  20.822  0.00  0.00    +0.000 HD
ENDBRANCH  11  16
BRANCH  12  18
ATOM     18  N   UNL     1       2.514   6.736  20.375  0.00  0.00    +0.000 N 
ATOM     19  H   UNL     1       2.276   6.369  21.292  0.00  0.00    +0.000 HD
BRANCH  18  20
ATOM     20  C   UNL     1       2.634   5.816  19.334  0.00  0.00    +0.000 A 
ATOM     21  C   UNL     1       1.735   4.753  19.233  0.00  0.00    +0.000 A 
ATOM     22  C   UNL     1       1.859   3.807  18.217  0.00  0.00    +0.000 A 
ATOM     23  C   UNL     1       2.893   3.895  17.282  0.00  0.00    +0.000 A 
ATOM     24  C   UNL     1       3.813   4.941  17.359  0.00  0.00    +0.000 A 
ATOM     25  C   UNL     1       3.677   5.871  18.393  0.00  0.00    +0.000 A 
BRANCH  24  26
ATOM     26  C   UNL     1       4.941   5.116  16.377  0.00  0.00    +0.000 C 
ATOM     27  F   UNL     1       4.945   4.203  15.373  0.00  0.00    +0.000 F 
ATOM     28  F   UNL     1       4.919   6.340  15.775  0.00  0.00    +0.000 F 
ATOM     29  F   UNL     1       6.167   5.026  16.972  0.00  0.00    +0.000 F 
ENDBRANCH  24  26
ENDBRANCH  18  20
ENDBRANCH  12  18
TORSDOF 4
ENDMDL
MODEL 9
REMARK VINA RESULT:      -7.3      4.547      6.899
REMARK  Name = 
REMARK  4 active torsions:
REMARK  status: ('A' for Active; 'I' for Inactive)
REMARK    1  A    between atoms: C_11  and  O_12
REMARK    2  A    between atoms: C_13  and  N_14
REMARK    3  A    between atoms: N_14  and  C_15
REMARK    4  A    between atoms: C_19  and  C_20
REMARK                            x       y       z     vdW  Elec       q    Type
REMARK                         _______ _______ _______ _____ _____    ______ ____
ROOT
ATOM      1  O   UNL     1       2.167   7.606  19.451  0.00  0.00    +0.000 OA
ATOM      2  C   UNL     1       2.676   6.549  19.129  0.00  0.00    +0.000 C 
ATOM      3  C   UNL     1       2.565   5.253  19.864  0.00  0.00    +0.000 A 
ATOM      4  C   UNL     1       2.186   4.930  21.147  0.00  0.00    +0.000 A 
ATOM      5  C   UNL     1       2.462   3.632  21.599  0.00  0.00    +0.000 A 
ATOM      6  C   UNL     1       3.049   2.651  20.770  0.00  0.00    +0.000 A 
ATOM      7  C   UNL     1       3.408   2.980  19.479  0.00  0.00    +0.000 A 
ATOM      8  C   UNL     1       3.234   4.302  19.100  0.00  0.00    +0.000 A 
ATOM      9  C   UNL     1       4.115   4.995  18.124  0.00  0.00    +0.000 C 
ATOM     10  C   UNL     1       5.468   5.080  18.873  0.00  0.00    +0.000 C 
ATOM     11  C   UNL     1       6.624   5.421  17.960  0.00  0.00    +0.000 C 
ATOM     12  C   UNL     1       6.361   6.823  17.382  0.00  0.00    +0.000 C 
ATOM     13  C   UNL     1       5.256   6.931  16.325  0.00  0.00    +0.000 C 
ATOM     14  C   UNL     1       3.916   7.275  17.013  0.00  0.00    +0.000 C 
ATOM     15  N   UNL     1       3.502   6.303  18.026  0.00  0.00    +0.000 N 
ENDROOT
BRANCH  11  16
ATOM     16  O   UNL     1       6.850   4.386  17.009  0.00  0.00    +0.000 OA
ATOM     17  H   UNL     1       6.191   3.681  17.103  0.00  0.00    +0.000 HD
ENDBRANCH  11  16
BRANCH  12  18
ATOM     18  N   UNL     1       7.608   7.441  16.948  0.00  0.00    +0.000 N 
ATOM     19  H   UNL     1       7.731   7.525  15.943  0.00  0.00    +0.000 HD
BRANCH  18  20
ATOM     20  C   UNL     1       8.119   8.470  17.738  0.00  0.00    +0.000 A 
ATOM     21  C   UNL     1       8.645   8.187  19.000  0.00  0.00    +0.000 A 
ATOM     22  C   UNL     1       9.131   9.208  19.816  0.00  0.00    +0.000 A 
ATOM     23  C   UNL     1       9.094  10.538  19.393  0.00  0.00    +0.000 A 
ATOM     24  C   UNL     1       8.568  10.856  18.141  0.00  0.00    +0.000 A 
ATOM     25  C   UNL     1       8.074   9.818  17.345  0.00  0.00    +0.000 A 
BRANCH  24  26
ATOM     26  C   UNL     1       8.513  12.263  17.606  0.00  0.00    +0.000 C 
ATOM     27  F   UNL     1       9.655  12.665  16.994  0.00  0.00    +0.000 F 
ATOM     28  F   UNL     1       7.514  12.431  16.692  0.00  0.00    +0.000 F 
ATOM     29  F   UNL     1       8.268  13.182  18.586  0.00  0.00    +0.000 F 
ENDBRANCH  24  26
ENDBRANCH  18  20
ENDBRANCH  12  18
TORSDOF 4
ENDMDL
