MODEL 1
REMARK VINA RESULT:      -6.9      0.000      0.000
REMARK  Name = 
REMARK  9 active torsions:
REMARK  status: ('A' for Active; 'I' for Inactive)
REMARK    1  A    between atoms: C_4  and  C_5
REMARK    2  A    between atoms: C_5  and  O_6
REMARK    3  A    between atoms: C_8  and  C_9
REMARK    4  A    between atoms: C_8  and  C_10
REMARK    5  A    between atoms: C_11  and  C_12
REMARK    6  A    between atoms: C_12  and  C_13
REMARK    7  A    between atoms: C_15  and  O_16
REMARK    8  A    between atoms: O_16  and  C_17
REMARK    9  A    between atoms: C_21  and  O_22
REMARK                            x       y       z     vdW  Elec       q    Type
REMARK                         _______ _______ _______ _____ _____    ______ ____
ROOT
ATOM      1  C   UNL     1       0.439   3.690  19.938  0.00  0.00    +0.000 C 
ATOM      2  C   UNL     1       1.764   3.906  19.890  0.00  0.00    +0.000 C 
ATOM      3  C   UNL     1       2.738   3.141  20.750  0.00  0.00    +0.000 C 
ATOM      4  C   UNL     1       3.822   2.445  19.910  0.00  0.00    +0.000 C 
ATOM      5  C   UNL     1       4.453   3.395  18.868  0.00  0.00    +0.000 C 
ATOM      6  C   UNL     1       3.409   4.157  18.007  0.00  0.00    +0.000 C 
ATOM      7  C   UNL     1       2.656   3.153  17.095  0.00  0.00    +0.000 C 
ATOM      8  C   UNL     1       4.155   5.124  17.064  0.00  0.00    +0.000 C 
ATOM      9  C   UNL     1       2.390   4.913  18.930  0.00  0.00    +0.000 C 
ENDROOT
BRANCH   4  10
ATOM     10  C   UNL     1       4.890   1.852  20.838  0.00  0.00    +0.000 C 
BRANCH  10  11
ATOM     11  O   UNL     1       5.518   0.725  20.242  0.00  0.00    +0.000 OA
ATOM     12  H   UNL     1       4.821   0.166  19.860  0.00  0.00    +0.000 HD
ENDBRANCH  10  11
ENDBRANCH   4  10
BRANCH   9  13
ATOM     13  C   UNL     1       3.012   6.120  19.697  0.00  0.00    +0.000 C 
BRANCH  13  14
ATOM     14  C   UNL     1       2.127   7.350  19.781  0.00  0.00    +0.000 A 
ATOM     15  C   UNL     1       1.292   7.527  20.900  0.00  0.00    +0.000 A 
ATOM     16  C   UNL     1       0.458   8.645  21.017  0.00  0.00    +0.000 A 
ATOM     17  C   UNL     1       0.466   9.600  19.990  0.00  0.00    +0.000 A 
ATOM     18 BR   UNL     1      -0.626  11.154  20.069  0.00  0.00    +0.000 Br
ATOM     19  C   UNL     1       1.279   9.437  18.866  0.00  0.00    +0.000 A 
ATOM     20  C   UNL     1       2.103   8.318  18.770  0.00  0.00    +0.000 A 
BRANCH  16  21
ATOM     21  O   UNL     1      -0.382   8.877  22.075  0.00  0.00    +0.000 OA
ATOM     22  C   UNL     1       0.177   9.459  23.244  0.00  0.00    +0.000 C 
ENDBRANCH  16  21
BRANCH  20  23
ATOM     23  O   UNL     1       2.901   8.158  17.671  0.00  0.00    +0.000 OA
ATOM     24  H   UNL     1       2.794   8.927  17.088  0.00  0.00    +0.000 HD
ENDBRANCH  20  23
ENDBRANCH  13  14
ENDBRANCH   9  13
TORSDOF 6
ENDMDL
MODEL 2
REMARK VINA RESULT:      -6.8      2.536      4.318
REMARK  Name = 
REMARK  9 active torsions:
REMARK  status: ('A' for Active; 'I' for Inactive)
REMARK    1  A    between atoms: C_4  and  C_5
REMARK    2  A    between atoms: C_5  and  O_6
REMARK    3  A    between atoms: C_8  and  C_9
REMARK    4  A    between atoms: C_8  and  C_10
REMARK    5  A    between atoms: C_11  and  C_12
REMARK    6  A    between atoms: C_12  and  C_13
REMARK    7  A    between atoms: C_15  and  O_16
REMARK    8  A    between atoms: O_16  and  C_17
REMARK    9  A    between atoms: C_21  and  O_22
REMARK                            x       y       z     vdW  Elec       q    Type
REMARK                         _______ _______ _______ _____ _____    ______ ____
ROOT
ATOM      1  C   UNL     1       6.087   7.857  17.217  0.00  0.00    +0.000 C 
ATOM      2  C   UNL     1       5.394   6.743  16.926  0.00  0.00    +0.000 C 
ATOM      3  C   UNL     1       5.287   6.203  15.522  0.00  0.00    +0.000 C 
ATOM      4  C   UNL     1       5.760   4.743  15.431  0.00  0.00    +0.000 C 
ATOM      5  C   UNL     1       5.142   3.858  16.537  0.00  0.00    +0.000 C 
ATOM      6  C   UNL     1       5.281   4.456  17.963  0.00  0.00    +0.000 C 
ATOM      7  C   UNL     1       6.775   4.470  18.377  0.00  0.00    +0.000 C 
ATOM      8  C   UNL     1       4.562   3.526  18.964  0.00  0.00    +0.000 C 
ATOM      9  C   UNL     1       4.699   5.913  18.001  0.00  0.00    +0.000 C 
ENDROOT
BRANCH   4  10
ATOM     10  C   UNL     1       5.445   4.186  14.036  0.00  0.00    +0.000 C 
BRANCH  10  11
ATOM     11  O   UNL     1       6.483   3.329  13.580  0.00  0.00    +0.000 OA
ATOM     12  H   UNL     1       7.163   3.884  13.164  0.00  0.00    +0.000 HD
ENDBRANCH  10  11
ENDBRANCH   4  10
BRANCH   9  13
ATOM     13  C   UNL     1       3.148   5.975  17.853  0.00  0.00    +0.000 C 
BRANCH  13  14
ATOM     14  C   UNL     1       2.468   7.057  18.673  0.00  0.00    +0.000 A 
ATOM     15  C   UNL     1       2.148   8.286  18.067  0.00  0.00    +0.000 A 
ATOM     16  C   UNL     1       1.525   9.312  18.786  0.00  0.00    +0.000 A 
ATOM     17  C   UNL     1       1.218   9.095  20.138  0.00  0.00    +0.000 A 
ATOM     18 BR   UNL     1       0.362  10.428  21.189  0.00  0.00    +0.000 Br
ATOM     19  C   UNL     1       1.537   7.886  20.760  0.00  0.00    +0.000 A 
ATOM     20  C   UNL     1       2.157   6.877  20.025  0.00  0.00    +0.000 A 
BRANCH  16  21
ATOM     21  O   UNL     1       1.189  10.533  18.261  0.00  0.00    +0.000 OA
ATOM     22  C   UNL     1       2.225  11.493  18.111  0.00  0.00    +0.000 C 
ENDBRANCH  16  21
BRANCH  20  23
ATOM     23  O   UNL     1       2.469   5.693  20.633  0.00  0.00    +0.000 OA
ATOM     24  H   UNL     1       3.424   5.667  20.805  0.00  0.00    +0.000 HD
ENDBRANCH  20  23
ENDBRANCH  13  14
ENDBRANCH   9  13
TORSDOF 6
ENDMDL
MODEL 3
REMARK VINA RESULT:      -6.7      0.958      1.192
REMARK  Name = 
REMARK  9 active torsions:
REMARK  status: ('A' for Active; 'I' for Inactive)
REMARK    1  A    between atoms: C_4  and  C_5
REMARK    2  A    between atoms: C_5  and  O_6
REMARK    3  A    between atoms: C_8  and  C_9
REMARK    4  A    between atoms: C_8  and  C_10
REMARK    5  A    between atoms: C_11  and  C_12
REMARK    6  A    between atoms: C_12  and  C_13
REMARK    7  A    between atoms: C_15  and  O_16
REMARK    8  A    between atoms: O_16  and  C_17
REMARK    9  A    between atoms: C_21  and  O_22
REMARK                            x       y       z     vdW  Elec       q    Type
REMARK                         _______ _______ _______ _____ _____    ______ ____
ROOT
ATOM      1  C   UNL     1       1.175   4.459  17.665  0.00  0.00    +0.000 C 
ATOM      2  C   UNL     1       2.298   4.570  18.394  0.00  0.00    +0.000 C 
ATOM      3  C   UNL     1       2.678   3.560  19.448  0.00  0.00    +0.000 C 
ATOM      4  C   UNL     1       4.078   2.973  19.201  0.00  0.00    +0.000 C 
ATOM      5  C   UNL     1       5.129   4.067  18.912  0.00  0.00    +0.000 C 
ATOM      6  C   UNL     1       4.692   5.079  17.819  0.00  0.00    +0.000 C 
ATOM      7  C   UNL     1       4.610   4.358  16.447  0.00  0.00    +0.000 C 
ATOM      8  C   UNL     1       5.783   6.160  17.677  0.00  0.00    +0.000 C 
ATOM      9  C   UNL     1       3.298   5.703  18.181  0.00  0.00    +0.000 C 
ENDROOT
BRANCH   4  10
ATOM     10  C   UNL     1       4.492   2.109  20.400  0.00  0.00    +0.000 C 
BRANCH  10  11
ATOM     11  O   UNL     1       5.311   1.022  19.990  0.00  0.00    +0.000 OA
ATOM     12  H   UNL     1       5.447   0.448  20.763  0.00  0.00    +0.000 HD
ENDBRANCH  10  11
ENDBRANCH   4  10
BRANCH   9  13
ATOM     13  C   UNL     1       3.339   6.663  19.410  0.00  0.00    +0.000 C 
BRANCH  13  14
ATOM     14  C   UNL     1       2.269   7.740  19.417  0.00  0.00    +0.000 A 
ATOM     15  C   UNL     1       1.458   7.902  20.556  0.00  0.00    +0.000 A 
ATOM     16  C   UNL     1       0.458   8.880  20.604  0.00  0.00    +0.000 A 
ATOM     17  C   UNL     1       0.273   9.708  19.487  0.00  0.00    +0.000 A 
ATOM     18 BR   UNL     1      -1.054  11.070  19.469  0.00  0.00    +0.000 Br
ATOM     19  C   UNL     1       1.060   9.555  18.344  0.00  0.00    +0.000 A 
ATOM     20  C   UNL     1       2.051   8.576  18.317  0.00  0.00    +0.000 A 
BRANCH  16  21
ATOM     21  O   UNL     1      -0.368   9.090  21.677  0.00  0.00    +0.000 OA
ATOM     22  C   UNL     1       0.226   9.524  22.892  0.00  0.00    +0.000 C 
ENDBRANCH  16  21
BRANCH  20  23
ATOM     23  O   UNL     1       2.824   8.427  17.198  0.00  0.00    +0.000 OA
ATOM     24  H   UNL     1       2.256   8.165  16.454  0.00  0.00    +0.000 HD
ENDBRANCH  20  23
ENDBRANCH  13  14
ENDBRANCH   9  13
TORSDOF 6
ENDMDL
MODEL 4
REMARK VINA RESULT:      -6.7      2.351      3.902
REMARK  Name = 
REMARK  9 active torsions:
REMARK  status: ('A' for Active; 'I' for Inactive)
REMARK    1  A    between atoms: C_4  and  C_5
REMARK    2  A    between atoms: C_5  and  O_6
REMARK    3  A    between atoms: C_8  and  C_9
REMARK    4  A    between atoms: C_8  and  C_10
REMARK    5  A    between atoms: C_11  and  C_12
REMARK    6  A    between atoms: C_12  and  C_13
REMARK    7  A    between atoms: C_15  and  O_16
REMARK    8  A    between atoms: O_16  and  C_17
REMARK    9  A    between atoms: C_21  and  O_22
REMARK                            x       y       z     vdW  Elec       q    Type
REMARK                         _______ _______ _______ _____ _____    ______ ____
ROOT
ATOM      1  C   UNL     1       6.452   5.563  19.408  0.00  0.00    +0.000 C 
ATOM      2  C   UNL     1       5.753   5.493  18.262  0.00  0.00    +0.000 C 
ATOM      3  C   UNL     1       6.423   5.421  16.913  0.00  0.00    +0.000 C 
ATOM      4  C   UNL     1       5.965   4.193  16.109  0.00  0.00    +0.000 C 
ATOM      5  C   UNL     1       4.427   4.039  16.103  0.00  0.00    +0.000 C 
ATOM      6  C   UNL     1       3.787   4.117  17.515  0.00  0.00    +0.000 C 
ATOM      7  C   UNL     1       4.218   2.882  18.350  0.00  0.00    +0.000 C 
ATOM      8  C   UNL     1       2.253   4.028  17.371  0.00  0.00    +0.000 C 
ATOM      9  C   UNL     1       4.229   5.437  18.241  0.00  0.00    +0.000 C 
ENDROOT
BRANCH   4  10
ATOM     10  C   UNL     1       6.519   4.276  14.681  0.00  0.00    +0.000 C 
BRANCH  10  11
ATOM     11  O   UNL     1       7.548   5.252  14.587  0.00  0.00    +0.000 OA
ATOM     12  H   UNL     1       8.367   4.851  14.923  0.00  0.00    +0.000 HD
ENDBRANCH  10  11
ENDBRANCH   4  10
BRANCH   9  13
ATOM     13  C   UNL     1       3.621   6.730  17.618  0.00  0.00    +0.000 C 
BRANCH  13  14
ATOM     14  C   UNL     1       2.706   7.517  18.539  0.00  0.00    +0.000 A 
ATOM     15  C   UNL     1       2.176   8.746  18.104  0.00  0.00    +0.000 A 
ATOM     16  C   UNL     1       1.332   9.506  18.922  0.00  0.00    +0.000 A 
ATOM     17  C   UNL     1       1.017   9.018  20.199  0.00  0.00    +0.000 A 
ATOM     18 BR   UNL     1      -0.131   9.977  21.373  0.00  0.00    +0.000 Br
ATOM     19  C   UNL     1       1.542   7.806  20.653  0.00  0.00    +0.000 A 
ATOM     20  C   UNL     1       2.379   7.065  19.823  0.00  0.00    +0.000 A 
BRANCH  16  21
ATOM     21  O   UNL     1       0.785  10.710  18.564  0.00  0.00    +0.000 OA
ATOM     22  C   UNL     1       1.618  11.858  18.630  0.00  0.00    +0.000 C 
ENDBRANCH  16  21
BRANCH  20  23
ATOM     23  O   UNL     1       2.892   5.878  20.265  0.00  0.00    +0.000 OA
ATOM     24  H   UNL     1       2.934   5.893  21.236  0.00  0.00    +0.000 HD
ENDBRANCH  20  23
ENDBRANCH  13  14
ENDBRANCH   9  13
TORSDOF 6
ENDMDL
MODEL 5
REMARK VINA RESULT:      -6.4      4.018      6.723
REMARK  Name = 
REMARK  9 active torsions:
REMARK  status: ('A' for Active; 'I' for Inactive)
REMARK    1  A    between atoms: C_4  and  C_5
REMARK    2  A    between atoms: C_5  and  O_6
REMARK    3  A    between atoms: C_8  and  C_9
REMARK    4  A    between atoms: C_8  and  C_10
REMARK    5  A    between atoms: C_11  and  C_12
REMARK    6  A    between atoms: C_12  and  C_13
REMARK    7  A    between atoms: C_15  and  O_16
REMARK    8  A    between atoms: O_16  and  C_17
REMARK    9  A    between atoms: C_21  and  O_22
REMARK                            x       y       z     vdW  Elec       q    Type
REMARK                         _______ _______ _______ _____ _____    ______ ____
ROOT
ATOM      1  C   UNL     1       2.520   6.922  18.217  0.00  0.00    +0.000 C 
ATOM      2  C   UNL     1       2.891   5.713  18.668  0.00  0.00    +0.000 C 
ATOM      3  C   UNL     1       2.916   5.373  20.137  0.00  0.00    +0.000 C 
ATOM      4  C   UNL     1       2.064   4.134  20.455  0.00  0.00    +0.000 C 
ATOM      5  C   UNL     1       2.355   2.961  19.492  0.00  0.00    +0.000 C 
ATOM      6  C   UNL     1       2.314   3.361  17.992  0.00  0.00    +0.000 C 
ATOM      7  C   UNL     1       0.863   3.736  17.594  0.00  0.00    +0.000 C 
ATOM      8  C   UNL     1       2.695   2.133  17.139  0.00  0.00    +0.000 C 
ATOM      9  C   UNL     1       3.274   4.575  17.726  0.00  0.00    +0.000 C 
ENDROOT
BRANCH   4  10
ATOM     10  C   UNL     1       2.283   3.718  21.915  0.00  0.00    +0.000 C 
BRANCH  10  11
ATOM     11  O   UNL     1       1.650   2.477  22.196  0.00  0.00    +0.000 OA
ATOM     12  H   UNL     1       1.228   2.551  23.068  0.00  0.00    +0.000 HD
ENDBRANCH  10  11
ENDBRANCH   4  10
BRANCH   9  13
ATOM     13  C   UNL     1       4.787   4.219  17.850  0.00  0.00    +0.000 C 
BRANCH  13  14
ATOM     14  C   UNL     1       5.625   4.550  16.629  0.00  0.00    +0.000 A 
ATOM     15  C   UNL     1       5.509   3.755  15.474  0.00  0.00    +0.000 A 
ATOM     16  C   UNL     1       6.265   4.022  14.327  0.00  0.00    +0.000 A 
ATOM     17  C   UNL     1       7.153   5.108  14.345  0.00  0.00    +0.000 A 
ATOM     18 BR   UNL     1       8.212   5.551  12.829  0.00  0.00    +0.000 Br
ATOM     19  C   UNL     1       7.291   5.902  15.486  0.00  0.00    +0.000 A 
ATOM     20  C   UNL     1       6.527   5.620  16.616  0.00  0.00    +0.000 A 
BRANCH  16  21
ATOM     21  O   UNL     1       6.205   3.288  13.171  0.00  0.00    +0.000 OA
ATOM     22  C   UNL     1       5.072   3.469  12.334  0.00  0.00    +0.000 C 
ENDBRANCH  16  21
BRANCH  20  23
ATOM     23  O   UNL     1       6.660   6.397  17.733  0.00  0.00    +0.000 OA
ATOM     24  H   UNL     1       5.993   6.128  18.387  0.00  0.00    +0.000 HD
ENDBRANCH  20  23
ENDBRANCH  13  14
ENDBRANCH   9  13
TORSDOF 6
ENDMDL
MODEL 6
REMARK VINA RESULT:      -6.3      3.325      6.392
REMARK  Name = 
REMARK  9 active torsions:
REMARK  status: ('A' for Active; 'I' for Inactive)
REMARK    1  A    between atoms: C_4  and  C_5
REMARK    2  A    between atoms: C_5  and  O_6
REMARK    3  A    between atoms: C_8  and  C_9
REMARK    4  A    between atoms: C_8  and  C_10
REMARK    5  A    between atoms: C_11  and  C_12
REMARK    6  A    between atoms: C_12  and  C_13
REMARK    7  A    between atoms: C_15  and  O_16
REMARK    8  A    between atoms: O_16  and  C_17
REMARK    9  A    between atoms: C_21  and  O_22
REMARK                            x       y       z     vdW  Elec       q    Type
REMARK                         _______ _______ _______ _____ _____    ______ ____
ROOT
ATOM      1  C   UNL     1       1.679   4.505  17.171  0.00  0.00    +0.000 C 
ATOM      2  C   UNL     1       2.221   4.788  18.367  0.00  0.00    +0.000 C 
ATOM      3  C   UNL     1       2.180   6.172  18.964  0.00  0.00    +0.000 C 
ATOM      4  C   UNL     1       1.540   6.175  20.363  0.00  0.00    +0.000 C 
ATOM      5  C   UNL     1       2.120   5.070  21.274  0.00  0.00    +0.000 C 
ATOM      6  C   UNL     1       2.137   3.665  20.615  0.00  0.00    +0.000 C 
ATOM      7  C   UNL     1       0.682   3.167  20.413  0.00  0.00    +0.000 C 
ATOM      8  C   UNL     1       2.805   2.668  21.586  0.00  0.00    +0.000 C 
ATOM      9  C   UNL     1       2.882   3.720  19.234  0.00  0.00    +0.000 C 
ENDROOT
BRANCH   4  10
ATOM     10  C   UNL     1       1.704   7.561  21.001  0.00  0.00    +0.000 C 
BRANCH  10  11
ATOM     11  O   UNL     1       1.521   8.592  20.040  0.00  0.00    +0.000 OA
ATOM     12  H   UNL     1       2.168   8.451  19.328  0.00  0.00    +0.000 HD
ENDBRANCH  10  11
ENDBRANCH   4  10
BRANCH   9  13
ATOM     13  C   UNL     1       4.418   3.958  19.358  0.00  0.00    +0.000 C 
BRANCH  13  14
ATOM     14  C   UNL     1       5.133   4.228  18.046  0.00  0.00    +0.000 A 
ATOM     15  C   UNL     1       5.868   5.417  17.890  0.00  0.00    +0.000 A 
ATOM     16  C   UNL     1       6.539   5.708  16.696  0.00  0.00    +0.000 A 
ATOM     17  C   UNL     1       6.467   4.784  15.643  0.00  0.00    +0.000 A 
ATOM     18 BR   UNL     1       7.356   5.090  13.990  0.00  0.00    +0.000 Br
ATOM     19  C   UNL     1       5.734   3.602  15.775  0.00  0.00    +0.000 A 
ATOM     20  C   UNL     1       5.074   3.332  16.972  0.00  0.00    +0.000 A 
BRANCH  16  21
ATOM     21  O   UNL     1       7.268   6.847  16.475  0.00  0.00    +0.000 OA
ATOM     22  C   UNL     1       7.581   7.657  17.598  0.00  0.00    +0.000 C 
ENDBRANCH  16  21
BRANCH  20  23
ATOM     23  O   UNL     1       4.357   2.176  17.102  0.00  0.00    +0.000 OA
ATOM     24  H   UNL     1       4.950   1.418  16.962  0.00  0.00    +0.000 HD
ENDBRANCH  20  23
ENDBRANCH  13  14
ENDBRANCH   9  13
TORSDOF 6
ENDMDL
MODEL 7
REMARK VINA RESULT:      -6.3      1.494      1.770
REMARK  Name = 
REMARK  9 active torsions:
REMARK  status: ('A' for Active; 'I' for Inactive)
REMARK    1  A    between atoms: C_4  and  C_5
REMARK    2  A    between atoms: C_5  and  O_6
REMARK    3  A    between atoms: C_8  and  C_9
REMARK    4  A    between atoms: C_8  and  C_10
REMARK    5  A    between atoms: C_11  and  C_12
REMARK    6  A    between atoms: C_12  and  C_13
REMARK    7  A    between atoms: C_15  and  O_16
REMARK    8  A    between atoms: O_16  and  C_17
REMARK    9  A    between atoms: C_21  and  O_22
REMARK                            x       y       z     vdW  Elec       q    Type
REMARK                         _______ _______ _______ _____ _____    ______ ____
ROOT
ATOM      1  C   UNL     1       1.028   4.736  17.526  0.00  0.00    +0.000 C 
ATOM      2  C   UNL     1       1.955   4.659  18.497  0.00  0.00    +0.000 C 
ATOM      3  C   UNL     1       1.667   4.035  19.839  0.00  0.00    +0.000 C 
ATOM      4  C   UNL     1       2.657   2.906  20.171  0.00  0.00    +0.000 C 
ATOM      5  C   UNL     1       4.124   3.325  19.928  0.00  0.00    +0.000 C 
ATOM      6  C   UNL     1       4.369   3.959  18.532  0.00  0.00    +0.000 C 
ATOM      7  C   UNL     1       4.168   2.885  17.431  0.00  0.00    +0.000 C 
ATOM      8  C   UNL     1       5.843   4.404  18.440  0.00  0.00    +0.000 C 
ATOM      9  C   UNL     1       3.383   5.159  18.299  0.00  0.00    +0.000 C 
ENDROOT
BRANCH   4  10
ATOM     10  C   UNL     1       2.445   2.445  21.619  0.00  0.00    +0.000 C 
BRANCH  10  11
ATOM     11  O   UNL     1       1.088   2.600  22.012  0.00  0.00    +0.000 OA
ATOM     12  H   UNL     1       0.787   3.469  21.699  0.00  0.00    +0.000 HD
ENDBRANCH  10  11
ENDBRANCH   4  10
BRANCH   9  13
ATOM     13  C   UNL     1       3.680   6.400  19.194  0.00  0.00    +0.000 C 
BRANCH  13  14
ATOM     14  C   UNL     1       2.646   7.508  19.117  0.00  0.00    +0.000 A 
ATOM     15  C   UNL     1       1.843   7.785  20.240  0.00  0.00    +0.000 A 
ATOM     16  C   UNL     1       0.875   8.795  20.212  0.00  0.00    +0.000 A 
ATOM     17  C   UNL     1       0.713   9.538  19.033  0.00  0.00    +0.000 A 
ATOM     18 BR   UNL     1      -0.569  10.936  18.908  0.00  0.00    +0.000 Br
ATOM     19  C   UNL     1       1.492   9.271  17.905  0.00  0.00    +0.000 A 
ATOM     20  C   UNL     1       2.451   8.262  17.954  0.00  0.00    +0.000 A 
BRANCH  16  21
ATOM     21  O   UNL     1       0.058   9.115  21.265  0.00  0.00    +0.000 OA
ATOM     22  C   UNL     1       0.666   9.313  22.533  0.00  0.00    +0.000 C 
ENDBRANCH  16  21
BRANCH  20  23
ATOM     23  O   UNL     1       3.215   8.001  16.851  0.00  0.00    +0.000 OA
ATOM     24  H   UNL     1       4.090   7.688  17.139  0.00  0.00    +0.000 HD
ENDBRANCH  20  23
ENDBRANCH  13  14
ENDBRANCH   9  13
TORSDOF 6
ENDMDL
MODEL 8
REMARK VINA RESULT:      -5.9      1.082      2.208
REMARK  Name = 
REMARK  9 active torsions:
REMARK  status: ('A' for Active; 'I' for Inactive)
REMARK    1  A    between atoms: C_4  and  C_5
REMARK    2  A    between atoms: C_5  and  O_6
REMARK    3  A    between atoms: C_8  and  C_9
REMARK    4  A    between atoms: C_8  and  C_10
REMARK    5  A    between atoms: C_11  and  C_12
REMARK    6  A    between atoms: C_12  and  C_13
REMARK    7  A    between atoms: C_15  and  O_16
REMARK    8  A    between atoms: O_16  and  C_17
REMARK    9  A    between atoms: C_21  and  O_22
REMARK                            x       y       z     vdW  Elec       q    Type
REMARK                         _______ _______ _______ _____ _____    ______ ____
ROOT
ATOM      1  C   UNL     1       0.579   3.825  19.878  0.00  0.00    +0.000 C 
ATOM      2  C   UNL     1       1.910   3.965  19.762  0.00  0.00    +0.000 C 
ATOM      3  C   UNL     1       2.880   3.223  20.647  0.00  0.00    +0.000 C 
ATOM      4  C   UNL     1       3.891   2.402  19.830  0.00  0.00    +0.000 C 
ATOM      5  C   UNL     1       4.524   3.225  18.686  0.00  0.00    +0.000 C 
ATOM      6  C   UNL     1       3.485   3.966  17.803  0.00  0.00    +0.000 C 
ATOM      7  C   UNL     1       2.645   2.931  17.010  0.00  0.00    +0.000 C 
ATOM      8  C   UNL     1       4.238   4.810  16.752  0.00  0.00    +0.000 C 
ATOM      9  C   UNL     1       2.545   4.852  18.695  0.00  0.00    +0.000 C 
ENDROOT
BRANCH   4  10
ATOM     10  C   UNL     1       4.967   1.833  20.765  0.00  0.00    +0.000 C 
BRANCH  10  11
ATOM     11  O   UNL     1       5.517   0.632  20.241  0.00  0.00    +0.000 OA
ATOM     12  H   UNL     1       6.477   0.655  20.394  0.00  0.00    +0.000 HD
ENDBRANCH  10  11
ENDBRANCH   4  10
BRANCH   9  13
ATOM     13  C   UNL     1       3.259   6.084  19.331  0.00  0.00    +0.000 C 
BRANCH  13  14
ATOM     14  C   UNL     1       2.371   7.295  19.552  0.00  0.00    +0.000 A 
ATOM     15  C   UNL     1       2.296   8.288  18.558  0.00  0.00    +0.000 A 
ATOM     16  C   UNL     1       1.493   9.423  18.722  0.00  0.00    +0.000 A 
ATOM     17  C   UNL     1       0.754   9.558  19.907  0.00  0.00    +0.000 A 
ATOM     18 BR   UNL     1      -0.372  11.060  20.210  0.00  0.00    +0.000 Br
ATOM     19  C   UNL     1       0.823   8.588  20.909  0.00  0.00    +0.000 A 
ATOM     20  C   UNL     1       1.628   7.466  20.726  0.00  0.00    +0.000 A 
BRANCH  16  21
ATOM     21  O   UNL     1       1.376  10.429  17.799  0.00  0.00    +0.000 OA
ATOM     22  C   UNL     1       2.338  11.474  17.837  0.00  0.00    +0.000 C 
ENDBRANCH  16  21
BRANCH  20  23
ATOM     23  O   UNL     1       1.696   6.515  21.705  0.00  0.00    +0.000 OA
ATOM     24  H   UNL     1       0.871   6.530  22.219  0.00  0.00    +0.000 HD
ENDBRANCH  20  23
ENDBRANCH  13  14
ENDBRANCH   9  13
TORSDOF 6
ENDMDL
MODEL 9
REMARK VINA RESULT:      -5.9      3.000      7.149
REMARK  Name = 
REMARK  9 active torsions:
REMARK  status: ('A' for Active; 'I' for Inactive)
REMARK    1  A    between atoms: C_4  and  C_5
REMARK    2  A    between atoms: C_5  and  O_6
REMARK    3  A    between atoms: C_8  and  C_9
REMARK    4  A    between atoms: C_8  and  C_10
REMARK    5  A    between atoms: C_11  and  C_12
REMARK    6  A    between atoms: C_12  and  C_13
REMARK    7  A    between atoms: C_15  and  O_16
REMARK    8  A    between atoms: O_16  and  C_17
REMARK    9  A    between atoms: C_21  and  O_22
REMARK                            x       y       z     vdW  Elec       q    Type
REMARK                         _______ _______ _______ _____ _____    ______ ____
ROOT
ATOM      1  C   UNL     1      -0.214   9.646  17.843  0.00  0.00    +0.000 C 
ATOM      2  C   UNL     1       0.565  10.002  18.878  0.00  0.00    +0.000 C 
ATOM      3  C   UNL     1       1.490  11.192  18.819  0.00  0.00    +0.000 C 
ATOM      4  C   UNL     1       1.220  12.186  19.961  0.00  0.00    +0.000 C 
ATOM      5  C   UNL     1       1.118  11.485  21.334  0.00  0.00    +0.000 C 
ATOM      6  C   UNL     1       0.152  10.269  21.343  0.00  0.00    +0.000 C 
ATOM      7  C   UNL     1      -1.304  10.761  21.138  0.00  0.00    +0.000 C 
ATOM      8  C   UNL     1       0.195   9.611  22.738  0.00  0.00    +0.000 C 
ATOM      9  C   UNL     1       0.541   9.256  20.209  0.00  0.00    +0.000 C 
ENDROOT
BRANCH   4  10
ATOM     10  C   UNL     1       2.309  13.267  19.971  0.00  0.00    +0.000 C 
BRANCH  10  11
ATOM     11  O   UNL     1       2.708  13.580  21.298  0.00  0.00    +0.000 OA
ATOM     12  H   UNL     1       3.316  14.337  21.253  0.00  0.00    +0.000 HD
ENDBRANCH  10  11
ENDBRANCH   4  10
BRANCH   9  13
ATOM     13  C   UNL     1       1.886   8.510  20.466  0.00  0.00    +0.000 C 
BRANCH  13  14
ATOM     14  C   UNL     1       1.979   7.126  19.852  0.00  0.00    +0.000 A 
ATOM     15  C   UNL     1       1.486   6.018  20.566  0.00  0.00    +0.000 A 
ATOM     16  C   UNL     1       1.554   4.722  20.039  0.00  0.00    +0.000 A 
ATOM     17  C   UNL     1       2.128   4.542  18.772  0.00  0.00    +0.000 A 
ATOM     18 BR   UNL     1       2.253   2.821  17.973  0.00  0.00    +0.000 Br
ATOM     19  C   UNL     1       2.633   5.628  18.052  0.00  0.00    +0.000 A 
ATOM     20  C   UNL     1       2.554   6.909  18.595  0.00  0.00    +0.000 A 
BRANCH  16  21
ATOM     21  O   UNL     1       1.098   3.600  20.680  0.00  0.00    +0.000 OA
ATOM     22  C   UNL     1       1.909   3.054  21.710  0.00  0.00    +0.000 C 
ENDBRANCH  16  21
BRANCH  20  23
ATOM     23  O   UNL     1       3.046   7.972  17.891  0.00  0.00    +0.000 OA
ATOM     24  H   UNL     1       2.724   8.795  18.294  0.00  0.00    +0.000 HD
ENDBRANCH  20  23
ENDBRANCH  13  14
ENDBRANCH   9  13
TORSDOF 6
ENDMDL
