MODEL 1
REMARK VINA RESULT:      -8.7      0.000      0.000
REMARK  Name = 
REMARK  3 active torsions:
REMARK  status: ('A' for Active; 'I' for Inactive)
REMARK    1  A    between atoms: C_5  and  C_6
REMARK    2  A    between atoms: N_12  and  N_13
REMARK    3  A    between atoms: C_14  and  C_15
REMARK                            x       y       z     vdW  Elec       q    Type
REMARK                         _______ _______ _______ _____ _____    ______ ____
ROOT
ATOM      1  O   UNL     1       4.911   3.524  13.102  0.00  0.00    +0.000 OA
ATOM      2  C   UNL     1       5.729   4.098  13.799  0.00  0.00    +0.000 A 
ATOM      3  N   UNL     1       6.962   4.570  13.351  0.00  0.00    +0.000 N 
ATOM      4  N   UNL     1       7.640   5.214  14.348  0.00  0.00    +0.000 NA
ATOM      5  C   UNL     1       6.854   5.106  15.390  0.00  0.00    +0.000 A 
ATOM      6  N   UNL     1       5.680   4.447  15.141  0.00  0.00    +0.000 N 
ATOM      7  H   UNL     1       7.320   4.494  12.410  0.00  0.00    +0.000 HD
ENDROOT
BRANCH   5   8
ATOM      8  C   UNL     1       7.227   5.643  16.719  0.00  0.00    +0.000 A 
ATOM      9  C   UNL     1       7.360   7.030  16.873  0.00  0.00    +0.000 A 
ATOM     10  C   UNL     1       7.823   7.563  18.079  0.00  0.00    +0.000 A 
ATOM     11  C   UNL     1       8.163   6.714  19.131  0.00  0.00    +0.000 A 
ATOM     12  C   UNL     1       8.034   5.333  18.982  0.00  0.00    +0.000 A 
ATOM     13  C   UNL     1       7.568   4.798  17.780  0.00  0.00    +0.000 A 
ENDBRANCH   5   8
BRANCH   6  14
ATOM     14  N   UNL     1       4.643   4.353  16.019  0.00  0.00    +0.000 NA
ATOM     15  C   UNL     1       4.478   3.283  16.723  0.00  0.00    +0.000 C 
BRANCH  15  16
ATOM     16  C   UNL     1       3.304   3.227  17.580  0.00  0.00    +0.000 A 
ATOM     17  C   UNL     1       2.483   2.120  17.721  0.00  0.00    +0.000 A 
ATOM     18  N   UNL     1       1.531   2.400  18.653  0.00  0.00    +0.000 N 
ATOM     19  C   UNL     1       1.745   3.648  19.186  0.00  0.00    +0.000 A 
ATOM     20  C   UNL     1       1.091   4.290  20.245  0.00  0.00    +0.000 A 
ATOM     21  C   UNL     1       1.545   5.558  20.611  0.00  0.00    +0.000 A 
ATOM     22  C   UNL     1       2.558   6.188  19.895  0.00  0.00    +0.000 A 
ATOM     23  C   UNL     1       3.187   5.542  18.821  0.00  0.00    +0.000 A 
ATOM     24  C   UNL     1       2.807   4.224  18.484  0.00  0.00    +0.000 A 
ATOM     25  H   UNL     1       0.812   1.762  18.961  0.00  0.00    +0.000 HD
ENDBRANCH  15  16
ENDBRANCH   6  14
TORSDOF 3
ENDMDL
MODEL 2
REMARK VINA RESULT:      -8.5      3.117      5.065
REMARK  Name = 
REMARK  3 active torsions:
REMARK  status: ('A' for Active; 'I' for Inactive)
REMARK    1  A    between atoms: C_5  and  C_6
REMARK    2  A    between atoms: N_12  and  N_13
REMARK    3  A    between atoms: C_14  and  C_15
REMARK                            x       y       z     vdW  Elec       q    Type
REMARK                         _______ _______ _______ _____ _____    ______ ____
ROOT
ATOM      1  O   UNL     1       0.698   2.980  19.367  0.00  0.00    +0.000 OA
ATOM      2  C   UNL     1       1.793   2.911  18.838  0.00  0.00    +0.000 A 
ATOM      3  N   UNL     1       2.475   1.723  18.578  0.00  0.00    +0.000 N 
ATOM      4  N   UNL     1       3.655   1.960  17.930  0.00  0.00    +0.000 NA
ATOM      5  C   UNL     1       3.709   3.264  17.831  0.00  0.00    +0.000 A 
ATOM      6  N   UNL     1       2.622   3.911  18.354  0.00  0.00    +0.000 N 
ATOM      7  H   UNL     1       2.149   0.792  18.794  0.00  0.00    +0.000 HD
ENDROOT
BRANCH   5   8
ATOM      8  C   UNL     1       4.862   3.962  17.216  0.00  0.00    +0.000 A 
ATOM      9  C   UNL     1       4.922   4.066  15.819  0.00  0.00    +0.000 A 
ATOM     10  C   UNL     1       6.049   4.613  15.202  0.00  0.00    +0.000 A 
ATOM     11  C   UNL     1       7.124   5.049  15.976  0.00  0.00    +0.000 A 
ATOM     12  C   UNL     1       7.070   4.946  17.365  0.00  0.00    +0.000 A 
ATOM     13  C   UNL     1       5.944   4.404  17.985  0.00  0.00    +0.000 A 
ENDBRANCH   5   8
BRANCH   6  14
ATOM     14  N   UNL     1       2.378   5.245  18.223  0.00  0.00    +0.000 NA
ATOM     15  C   UNL     1       2.625   6.053  19.201  0.00  0.00    +0.000 C 
BRANCH  15  16
ATOM     16  C   UNL     1       2.265   7.450  19.014  0.00  0.00    +0.000 A 
ATOM     17  C   UNL     1       2.485   8.173  17.853  0.00  0.00    +0.000 A 
ATOM     18  N   UNL     1       1.959   9.419  18.009  0.00  0.00    +0.000 N 
ATOM     19  C   UNL     1       1.331   9.516  19.227  0.00  0.00    +0.000 A 
ATOM     20  C   UNL     1       0.562  10.562  19.753  0.00  0.00    +0.000 A 
ATOM     21  C   UNL     1      -0.000  10.377  21.017  0.00  0.00    +0.000 A 
ATOM     22  C   UNL     1       0.264   9.228  21.756  0.00  0.00    +0.000 A 
ATOM     23  C   UNL     1       1.057   8.200  21.226  0.00  0.00    +0.000 A 
ATOM     24  C   UNL     1       1.566   8.322  19.914  0.00  0.00    +0.000 A 
ATOM     25  H   UNL     1       1.966  10.146  17.309  0.00  0.00    +0.000 HD
ENDBRANCH  15  16
ENDBRANCH   6  14
TORSDOF 3
ENDMDL
MODEL 3
REMARK VINA RESULT:      -8.5      0.203      1.027
REMARK  Name = 
REMARK  3 active torsions:
REMARK  status: ('A' for Active; 'I' for Inactive)
REMARK    1  A    between atoms: C_5  and  C_6
REMARK    2  A    between atoms: N_12  and  N_13
REMARK    3  A    between atoms: C_14  and  C_15
REMARK                            x       y       z     vdW  Elec       q    Type
REMARK                         _______ _______ _______ _____ _____    ______ ____
ROOT
ATOM      1  O   UNL     1       4.878   3.610  12.974  0.00  0.00    +0.000 OA
ATOM      2  C   UNL     1       5.735   4.129  13.668  0.00  0.00    +0.000 A 
ATOM      3  N   UNL     1       6.983   4.549  13.208  0.00  0.00    +0.000 N 
ATOM      4  N   UNL     1       7.707   5.138  14.206  0.00  0.00    +0.000 NA
ATOM      5  C   UNL     1       6.934   5.046  15.259  0.00  0.00    +0.000 A 
ATOM      6  N   UNL     1       5.726   4.451  15.017  0.00  0.00    +0.000 N 
ATOM      7  H   UNL     1       7.321   4.475  12.260  0.00  0.00    +0.000 HD
ENDROOT
BRANCH   5   8
ATOM      8  C   UNL     1       7.355   5.536  16.592  0.00  0.00    +0.000 A 
ATOM      9  C   UNL     1       7.587   4.604  17.612  0.00  0.00    +0.000 A 
ATOM     10  C   UNL     1       7.871   5.035  18.910  0.00  0.00    +0.000 A 
ATOM     11  C   UNL     1       7.915   6.399  19.196  0.00  0.00    +0.000 A 
ATOM     12  C   UNL     1       7.683   7.332  18.185  0.00  0.00    +0.000 A 
ATOM     13  C   UNL     1       7.403   6.903  16.887  0.00  0.00    +0.000 A 
ENDBRANCH   5   8
BRANCH   6  14
ATOM     14  N   UNL     1       4.700   4.390  15.911  0.00  0.00    +0.000 NA
ATOM     15  C   UNL     1       4.529   3.336  16.638  0.00  0.00    +0.000 C 
BRANCH  15  16
ATOM     16  C   UNL     1       3.366   3.314  17.512  0.00  0.00    +0.000 A 
ATOM     17  C   UNL     1       2.512   2.233  17.661  0.00  0.00    +0.000 A 
ATOM     18  N   UNL     1       1.583   2.539  18.608  0.00  0.00    +0.000 N 
ATOM     19  C   UNL     1       1.845   3.778  19.142  0.00  0.00    +0.000 A 
ATOM     20  C   UNL     1       1.227   4.436  20.212  0.00  0.00    +0.000 A 
ATOM     21  C   UNL     1       1.727   5.688  20.576  0.00  0.00    +0.000 A 
ATOM     22  C   UNL     1       2.749   6.289  19.847  0.00  0.00    +0.000 A 
ATOM     23  C   UNL     1       3.341   5.627  18.762  0.00  0.00    +0.000 A 
ATOM     24  C   UNL     1       2.915   4.323  18.426  0.00  0.00    +0.000 A 
ATOM     25  H   UNL     1       0.849   1.924  18.925  0.00  0.00    +0.000 HD
ENDBRANCH  15  16
ENDBRANCH   6  14
TORSDOF 3
ENDMDL
MODEL 4
REMARK VINA RESULT:      -8.4      3.065      4.957
REMARK  Name = 
REMARK  3 active torsions:
REMARK  status: ('A' for Active; 'I' for Inactive)
REMARK    1  A    between atoms: C_5  and  C_6
REMARK    2  A    between atoms: N_12  and  N_13
REMARK    3  A    between atoms: C_14  and  C_15
REMARK                            x       y       z     vdW  Elec       q    Type
REMARK                         _______ _______ _______ _____ _____    ______ ____
ROOT
ATOM      1  O   UNL     1       0.596   2.858  18.985  0.00  0.00    +0.000 OA
ATOM      2  C   UNL     1       1.737   2.832  18.558  0.00  0.00    +0.000 A 
ATOM      3  N   UNL     1       2.464   1.669  18.307  0.00  0.00    +0.000 N 
ATOM      4  N   UNL     1       3.695   1.955  17.785  0.00  0.00    +0.000 NA
ATOM      5  C   UNL     1       3.731   3.264  17.752  0.00  0.00    +0.000 A 
ATOM      6  N   UNL     1       2.587   3.867  18.200  0.00  0.00    +0.000 N 
ATOM      7  H   UNL     1       2.139   0.724  18.449  0.00  0.00    +0.000 HD
ENDROOT
BRANCH   5   8
ATOM      8  C   UNL     1       4.921   4.008  17.281  0.00  0.00    +0.000 A 
ATOM      9  C   UNL     1       5.869   4.431  18.224  0.00  0.00    +0.000 A 
ATOM     10  C   UNL     1       6.943   5.234  17.831  0.00  0.00    +0.000 A 
ATOM     11  C   UNL     1       7.068   5.627  16.499  0.00  0.00    +0.000 A 
ATOM     12  C   UNL     1       6.126   5.211  15.558  0.00  0.00    +0.000 A 
ATOM     13  C   UNL     1       5.055   4.405  15.946  0.00  0.00    +0.000 A 
ENDBRANCH   5   8
BRANCH   6  14
ATOM     14  N   UNL     1       2.330   5.202  18.110  0.00  0.00    +0.000 NA
ATOM     15  C   UNL     1       2.659   5.997  19.073  0.00  0.00    +0.000 C 
BRANCH  15  16
ATOM     16  C   UNL     1       2.280   7.396  18.938  0.00  0.00    +0.000 A 
ATOM     17  C   UNL     1       2.475   8.159  17.798  0.00  0.00    +0.000 A 
ATOM     18  N   UNL     1       1.937   9.393  18.003  0.00  0.00    +0.000 N 
ATOM     19  C   UNL     1       1.326   9.443  19.233  0.00  0.00    +0.000 A 
ATOM     20  C   UNL     1       0.554  10.461  19.804  0.00  0.00    +0.000 A 
ATOM     21  C   UNL     1       0.012  10.229  21.069  0.00  0.00    +0.000 A 
ATOM     22  C   UNL     1       0.300   9.059  21.766  0.00  0.00    +0.000 A 
ATOM     23  C   UNL     1       1.097   8.058  21.191  0.00  0.00    +0.000 A 
ATOM     24  C   UNL     1       1.585   8.229  19.876  0.00  0.00    +0.000 A 
ATOM     25  H   UNL     1       1.925  10.142  17.328  0.00  0.00    +0.000 HD
ENDBRANCH  15  16
ENDBRANCH   6  14
TORSDOF 3
ENDMDL
MODEL 5
REMARK VINA RESULT:      -8.4      2.179      6.576
REMARK  Name = 
REMARK  3 active torsions:
REMARK  status: ('A' for Active; 'I' for Inactive)
REMARK    1  A    between atoms: C_5  and  C_6
REMARK    2  A    between atoms: N_12  and  N_13
REMARK    3  A    between atoms: C_14  and  C_15
REMARK                            x       y       z     vdW  Elec       q    Type
REMARK                         _______ _______ _______ _____ _____    ______ ____
ROOT
ATOM      1  O   UNL     1       3.778   1.278  18.785  0.00  0.00    +0.000 OA
ATOM      2  C   UNL     1       3.200   2.302  19.104  0.00  0.00    +0.000 A 
ATOM      3  N   UNL     1       2.151   2.369  20.022  0.00  0.00    +0.000 N 
ATOM      4  N   UNL     1       1.741   3.659  20.213  0.00  0.00    +0.000 NA
ATOM      5  C   UNL     1       2.496   4.358  19.403  0.00  0.00    +0.000 A 
ATOM      6  N   UNL     1       3.404   3.613  18.700  0.00  0.00    +0.000 N 
ATOM      7  H   UNL     1       1.751   1.590  20.523  0.00  0.00    +0.000 HD
ENDROOT
BRANCH   5   8
ATOM      8  C   UNL     1       2.356   5.825  19.263  0.00  0.00    +0.000 A 
ATOM      9  C   UNL     1       1.985   6.579  20.386  0.00  0.00    +0.000 A 
ATOM     10  C   UNL     1       1.730   7.947  20.264  0.00  0.00    +0.000 A 
ATOM     11  C   UNL     1       1.835   8.566  19.020  0.00  0.00    +0.000 A 
ATOM     12  C   UNL     1       2.201   7.822  17.899  0.00  0.00    +0.000 A 
ATOM     13  C   UNL     1       2.460   6.455  18.018  0.00  0.00    +0.000 A 
ENDBRANCH   5   8
BRANCH   6  14
ATOM     14  N   UNL     1       4.396   4.132  17.925  0.00  0.00    +0.000 NA
ATOM     15  C   UNL     1       4.365   3.989  16.641  0.00  0.00    +0.000 C 
BRANCH  15  16
ATOM     16  C   UNL     1       5.500   4.502  15.889  0.00  0.00    +0.000 A 
ATOM     17  C   UNL     1       6.542   5.233  16.434  0.00  0.00    +0.000 A 
ATOM     18  N   UNL     1       7.458   5.481  15.458  0.00  0.00    +0.000 N 
ATOM     19  C   UNL     1       7.078   4.869  14.288  0.00  0.00    +0.000 A 
ATOM     20  C   UNL     1       7.767   4.759  13.074  0.00  0.00    +0.000 A 
ATOM     21  C   UNL     1       7.156   4.036  12.048  0.00  0.00    +0.000 A 
ATOM     22  C   UNL     1       5.875   3.515  12.205  0.00  0.00    +0.000 A 
ATOM     23  C   UNL     1       5.187   3.654  13.419  0.00  0.00    +0.000 A 
ATOM     24  C   UNL     1       5.817   4.305  14.504  0.00  0.00    +0.000 A 
ATOM     25  H   UNL     1       8.325   5.982  15.585  0.00  0.00    +0.000 HD
ENDBRANCH  15  16
ENDBRANCH   6  14
TORSDOF 3
ENDMDL
MODEL 6
REMARK VINA RESULT:      -8.4      3.288      5.643
REMARK  Name = 
REMARK  3 active torsions:
REMARK  status: ('A' for Active; 'I' for Inactive)
REMARK    1  A    between atoms: C_5  and  C_6
REMARK    2  A    between atoms: N_12  and  N_13
REMARK    3  A    between atoms: C_14  and  C_15
REMARK                            x       y       z     vdW  Elec       q    Type
REMARK                         _______ _______ _______ _____ _____    ______ ____
ROOT
ATOM      1  O   UNL     1       5.494   6.932  15.779  0.00  0.00    +0.000 OA
ATOM      2  C   UNL     1       4.940   6.035  16.389  0.00  0.00    +0.000 A 
ATOM      3  N   UNL     1       5.194   4.676  16.209  0.00  0.00    +0.000 N 
ATOM      4  N   UNL     1       4.456   3.914  17.071  0.00  0.00    +0.000 NA
ATOM      5  C   UNL     1       3.741   4.786  17.737  0.00  0.00    +0.000 A 
ATOM      6  N   UNL     1       3.976   6.088  17.385  0.00  0.00    +0.000 N 
ATOM      7  H   UNL     1       5.857   4.278  15.560  0.00  0.00    +0.000 HD
ENDROOT
BRANCH   5   8
ATOM      8  C   UNL     1       2.758   4.379  18.766  0.00  0.00    +0.000 A 
ATOM      9  C   UNL     1       3.022   4.681  20.110  0.00  0.00    +0.000 A 
ATOM     10  C   UNL     1       2.175   4.211  21.116  0.00  0.00    +0.000 A 
ATOM     11  C   UNL     1       1.068   3.430  20.787  0.00  0.00    +0.000 A 
ATOM     12  C   UNL     1       0.802   3.124  19.453  0.00  0.00    +0.000 A 
ATOM     13  C   UNL     1       1.644   3.596  18.444  0.00  0.00    +0.000 A 
ENDBRANCH   5   8
BRANCH   6  14
ATOM     14  N   UNL     1       3.475   7.170  18.044  0.00  0.00    +0.000 NA
ATOM     15  C   UNL     1       2.286   7.601  17.783  0.00  0.00    +0.000 C 
BRANCH  15  16
ATOM     16  C   UNL     1       1.852   8.808  18.470  0.00  0.00    +0.000 A 
ATOM     17  C   UNL     1       1.770  10.062  17.886  0.00  0.00    +0.000 A 
ATOM     18  N   UNL     1       1.259  10.934  18.798  0.00  0.00    +0.000 N 
ATOM     19  C   UNL     1       0.936  10.270  19.957  0.00  0.00    +0.000 A 
ATOM     20  C   UNL     1       0.283  10.741  21.102  0.00  0.00    +0.000 A 
ATOM     21  C   UNL     1       0.042   9.828  22.130  0.00  0.00    +0.000 A 
ATOM     22  C   UNL     1       0.508   8.519  22.047  0.00  0.00    +0.000 A 
ATOM     23  C   UNL     1       1.182   8.068  20.902  0.00  0.00    +0.000 A 
ATOM     24  C   UNL     1       1.362   8.947  19.811  0.00  0.00    +0.000 A 
ATOM     25  H   UNL     1       1.079  11.913  18.630  0.00  0.00    +0.000 HD
ENDBRANCH  15  16
ENDBRANCH   6  14
TORSDOF 3
ENDMDL
MODEL 7
REMARK VINA RESULT:      -8.4      2.147      6.526
REMARK  Name = 
REMARK  3 active torsions:
REMARK  status: ('A' for Active; 'I' for Inactive)
REMARK    1  A    between atoms: C_5  and  C_6
REMARK    2  A    between atoms: N_12  and  N_13
REMARK    3  A    between atoms: C_14  and  C_15
REMARK                            x       y       z     vdW  Elec       q    Type
REMARK                         _______ _______ _______ _____ _____    ______ ____
ROOT
ATOM      1  O   UNL     1       3.790   1.016  18.443  0.00  0.00    +0.000 OA
ATOM      2  C   UNL     1       3.167   1.990  18.828  0.00  0.00    +0.000 A 
ATOM      3  N   UNL     1       2.106   1.947  19.732  0.00  0.00    +0.000 N 
ATOM      4  N   UNL     1       1.641   3.202  20.011  0.00  0.00    +0.000 NA
ATOM      5  C   UNL     1       2.377   3.989  19.266  0.00  0.00    +0.000 A 
ATOM      6  N   UNL     1       3.322   3.334  18.524  0.00  0.00    +0.000 N 
ATOM      7  H   UNL     1       1.732   1.118  20.168  0.00  0.00    +0.000 HD
ENDROOT
BRANCH   5   8
ATOM      8  C   UNL     1       2.178   5.456  19.232  0.00  0.00    +0.000 A 
ATOM      9  C   UNL     1       2.338   6.131  18.014  0.00  0.00    +0.000 A 
ATOM     10  C   UNL     1       2.273   7.525  17.968  0.00  0.00    +0.000 A 
ATOM     11  C   UNL     1       2.058   8.251  19.139  0.00  0.00    +0.000 A 
ATOM     12  C   UNL     1       1.900   7.585  20.354  0.00  0.00    +0.000 A 
ATOM     13  C   UNL     1       1.961   6.192  20.402  0.00  0.00    +0.000 A 
ENDBRANCH   5   8
BRANCH   6  14
ATOM     14  N   UNL     1       4.303   3.947  17.804  0.00  0.00    +0.000 NA
ATOM     15  C   UNL     1       4.320   3.859  16.516  0.00  0.00    +0.000 C 
BRANCH  15  16
ATOM     16  C   UNL     1       5.441   4.474  15.823  0.00  0.00    +0.000 A 
ATOM     17  C   UNL     1       6.396   5.277  16.425  0.00  0.00    +0.000 A 
ATOM     18  N   UNL     1       7.331   5.615  15.495  0.00  0.00    +0.000 N 
ATOM     19  C   UNL     1       7.053   4.995  14.301  0.00  0.00    +0.000 A 
ATOM     20  C   UNL     1       7.802   4.963  13.118  0.00  0.00    +0.000 A 
ATOM     21  C   UNL     1       7.298   4.211  12.055  0.00  0.00    +0.000 A 
ATOM     22  C   UNL     1       6.058   3.586  12.146  0.00  0.00    +0.000 A 
ATOM     23  C   UNL     1       5.308   3.648  13.330  0.00  0.00    +0.000 A 
ATOM     24  C   UNL     1       5.834   4.328  14.451  0.00  0.00    +0.000 A 
ATOM     25  H   UNL     1       8.147   6.182  15.669  0.00  0.00    +0.000 HD
ENDBRANCH  15  16
ENDBRANCH   6  14
TORSDOF 3
ENDMDL
MODEL 8
REMARK VINA RESULT:      -8.3      3.329      5.783
REMARK  Name = 
REMARK  3 active torsions:
REMARK  status: ('A' for Active; 'I' for Inactive)
REMARK    1  A    between atoms: C_5  and  C_6
REMARK    2  A    between atoms: N_12  and  N_13
REMARK    3  A    between atoms: C_14  and  C_15
REMARK                            x       y       z     vdW  Elec       q    Type
REMARK                         _______ _______ _______ _____ _____    ______ ____
ROOT
ATOM      1  O   UNL     1       6.977   6.437  18.330  0.00  0.00    +0.000 OA
ATOM      2  C   UNL     1       6.184   5.538  18.550  0.00  0.00    +0.000 A 
ATOM      3  N   UNL     1       6.514   4.185  18.609  0.00  0.00    +0.000 N 
ATOM      4  N   UNL     1       5.425   3.421  18.922  0.00  0.00    +0.000 NA
ATOM      5  C   UNL     1       4.446   4.285  19.016  0.00  0.00    +0.000 A 
ATOM      6  N   UNL     1       4.822   5.584  18.806  0.00  0.00    +0.000 N 
ATOM      7  H   UNL     1       7.436   3.793  18.478  0.00  0.00    +0.000 HD
ENDROOT
BRANCH   5   8
ATOM      8  C   UNL     1       3.054   3.872  19.309  0.00  0.00    +0.000 A 
ATOM      9  C   UNL     1       2.557   4.046  20.609  0.00  0.00    +0.000 A 
ATOM     10  C   UNL     1       1.292   3.562  20.950  0.00  0.00    +0.000 A 
ATOM     11  C   UNL     1       0.523   2.893  19.998  0.00  0.00    +0.000 A 
ATOM     12  C   UNL     1       1.013   2.715  18.705  0.00  0.00    +0.000 A 
ATOM     13  C   UNL     1       2.275   3.201  18.360  0.00  0.00    +0.000 A 
ENDBRANCH   5   8
BRANCH   6  14
ATOM     14  N   UNL     1       4.019   6.665  19.009  0.00  0.00    +0.000 NA
ATOM     15  C   UNL     1       3.065   6.935  18.181  0.00  0.00    +0.000 C 
BRANCH  15  16
ATOM     16  C   UNL     1       2.301   8.150  18.421  0.00  0.00    +0.000 A 
ATOM     17  C   UNL     1       2.089   9.147  17.483  0.00  0.00    +0.000 A 
ATOM     18  N   UNL     1       1.275  10.092  18.028  0.00  0.00    +0.000 N 
ATOM     19  C   UNL     1       0.885   9.708  19.288  0.00  0.00    +0.000 A 
ATOM     20  C   UNL     1      -0.033  10.308  20.159  0.00  0.00    +0.000 A 
ATOM     21  C   UNL     1      -0.275   9.676  21.379  0.00  0.00    +0.000 A 
ATOM     22  C   UNL     1       0.433   8.535  21.745  0.00  0.00    +0.000 A 
ATOM     23  C   UNL     1       1.368   7.959  20.872  0.00  0.00    +0.000 A 
ATOM     24  C   UNL     1       1.568   8.528  19.595  0.00  0.00    +0.000 A 
ATOM     25  H   UNL     1       0.947  10.921  17.555  0.00  0.00    +0.000 HD
ENDBRANCH  15  16
ENDBRANCH   6  14
TORSDOF 3
ENDMDL
MODEL 9
REMARK VINA RESULT:      -8.3      3.219      5.573
REMARK  Name = 
REMARK  3 active torsions:
REMARK  status: ('A' for Active; 'I' for Inactive)
REMARK    1  A    between atoms: C_5  and  C_6
REMARK    2  A    between atoms: N_12  and  N_13
REMARK    3  A    between atoms: C_14  and  C_15
REMARK                            x       y       z     vdW  Elec       q    Type
REMARK                         _______ _______ _______ _____ _____    ______ ____
ROOT
ATOM      1  O   UNL     1       5.577   6.979  15.853  0.00  0.00    +0.000 OA
ATOM      2  C   UNL     1       5.063   6.043  16.438  0.00  0.00    +0.000 A 
ATOM      3  N   UNL     1       5.393   4.703  16.236  0.00  0.00    +0.000 N 
ATOM      4  N   UNL     1       4.686   3.886  17.073  0.00  0.00    +0.000 NA
ATOM      5  C   UNL     1       3.915   4.705  17.744  0.00  0.00    +0.000 A 
ATOM      6  N   UNL     1       4.084   6.024  17.419  0.00  0.00    +0.000 N 
ATOM      7  H   UNL     1       6.087   4.354  15.591  0.00  0.00    +0.000 HD
ENDROOT
BRANCH   5   8
ATOM      8  C   UNL     1       2.941   4.225  18.750  0.00  0.00    +0.000 A 
ATOM      9  C   UNL     1       1.820   3.504  18.315  0.00  0.00    +0.000 A 
ATOM     10  C   UNL     1       0.823   3.138  19.222  0.00  0.00    +0.000 A 
ATOM     11  C   UNL     1       0.935   3.498  20.564  0.00  0.00    +0.000 A 
ATOM     12  C   UNL     1       2.047   4.217  21.002  0.00  0.00    +0.000 A 
ATOM     13  C   UNL     1       3.047   4.581  20.099  0.00  0.00    +0.000 A 
ENDBRANCH   5   8
BRANCH   6  14
ATOM     14  N   UNL     1       3.516   7.065  18.091  0.00  0.00    +0.000 NA
ATOM     15  C   UNL     1       2.428   7.607  17.655  0.00  0.00    +0.000 C 
BRANCH  15  16
ATOM     16  C   UNL     1       1.925   8.764  18.381  0.00  0.00    +0.000 A 
ATOM     17  C   UNL     1       1.819  10.040  17.854  0.00  0.00    +0.000 A 
ATOM     18  N   UNL     1       1.244  10.850  18.786  0.00  0.00    +0.000 N 
ATOM     19  C   UNL     1       0.903  10.119  19.899  0.00  0.00    +0.000 A 
ATOM     20  C   UNL     1       0.193  10.512  21.039  0.00  0.00    +0.000 A 
ATOM     21  C   UNL     1      -0.053   9.543  22.013  0.00  0.00    +0.000 A 
ATOM     22  C   UNL     1       0.462   8.256  21.886  0.00  0.00    +0.000 A 
ATOM     23  C   UNL     1       1.193   7.884  20.748  0.00  0.00    +0.000 A 
ATOM     24  C   UNL     1       1.382   8.820  19.707  0.00  0.00    +0.000 A 
ATOM     25  H   UNL     1       1.035  11.829  18.658  0.00  0.00    +0.000 HD
ENDBRANCH  15  16
ENDBRANCH   6  14
TORSDOF 3
ENDMDL
