MODEL 1
REMARK VINA RESULT:      -7.6      0.000      0.000
REMARK  Name = 
REMARK  1 active torsions:
REMARK  status: ('A' for Active; 'I' for Inactive)
REMARK    1  A    between atoms: C_2  and  C_3
REMARK                            x       y       z     vdW  Elec       q    Type
REMARK                         _______ _______ _______ _____ _____    ______ ____
ROOT
ATOM      1  O   UNL     1       8.126   4.049  16.381  0.00  0.00    +0.000 OA
ATOM      2  C   UNL     1       7.088   4.426  15.838  0.00  0.00    +0.000 C 
ATOM      3  N   UNL     1       6.052   5.020  16.584  0.00  0.00    +0.000 N 
ATOM      4  C   UNL     1       4.898   5.698  15.985  0.00  0.00    +0.000 C 
ATOM      5  C   UNL     1       4.151   6.627  16.945  0.00  0.00    +0.000 C 
ATOM      6  C   UNL     1       5.118   7.550  17.701  0.00  0.00    +0.000 C 
ATOM      7  C   UNL     1       6.397   6.846  18.146  0.00  0.00    +0.000 C 
ATOM      8  C   UNL     1       6.285   5.323  18.009  0.00  0.00    +0.000 C 
ATOM      9  C   UNL     1       5.225   4.750  18.992  0.00  0.00    +0.000 C 
ATOM     10  N   UNL     1       3.867   4.646  18.446  0.00  0.00    +0.000 N 
ATOM     11  C   UNL     1       2.976   3.975  19.303  0.00  0.00    +0.000 A 
ATOM     12  N   UNL     1       3.404   3.564  20.508  0.00  0.00    +0.000 NA
ATOM     13  C   UNL     1       2.507   2.995  21.334  0.00  0.00    +0.000 A 
ATOM     14  C   UNL     1       1.194   2.798  21.003  0.00  0.00    +0.000 A 
ATOM     15  C   UNL     1       0.844   3.216  19.746  0.00  0.00    +0.000 A 
ATOM     16  N   UNL     1       1.704   3.808  18.896  0.00  0.00    +0.000 NA
ATOM     17  C   UNL     1       3.234   5.836  17.884  0.00  0.00    +0.000 C 
ENDROOT
BRANCH   2  18
ATOM     18  C   UNL     1       6.970   4.357  14.381  0.00  0.00    +0.000 A 
ATOM     19  C   UNL     1       7.495   5.103  13.339  0.00  0.00    +0.000 A 
ATOM     20  C   UNL     1       7.146   4.486  12.115  0.00  0.00    +0.000 A 
ATOM     21  C   UNL     1       6.329   3.426  12.419  0.00  0.00    +0.000 A 
ATOM     22  N   UNL     1       6.162   3.403  13.780  0.00  0.00    +0.000 N 
ATOM     23  H   UNL     1       5.584   2.753  14.296  0.00  0.00    +0.000 HD
ENDBRANCH   2  18
TORSDOF 1
ENDMDL
MODEL 2
REMARK VINA RESULT:      -6.3      3.622      5.172
REMARK  Name = 
REMARK  1 active torsions:
REMARK  status: ('A' for Active; 'I' for Inactive)
REMARK    1  A    between atoms: C_2  and  C_3
REMARK                            x       y       z     vdW  Elec       q    Type
REMARK                         _______ _______ _______ _____ _____    ______ ____
ROOT
ATOM      1  O   UNL     1       4.793   6.804  16.280  0.00  0.00    +0.000 OA
ATOM      2  C   UNL     1       4.949   6.358  17.415  0.00  0.00    +0.000 C 
ATOM      3  N   UNL     1       3.857   6.202  18.291  0.00  0.00    +0.000 N 
ATOM      4  C   UNL     1       3.924   5.470  19.559  0.00  0.00    +0.000 C 
ATOM      5  C   UNL     1       2.560   5.055  20.116  0.00  0.00    +0.000 C 
ATOM      6  C   UNL     1       1.690   4.394  19.037  0.00  0.00    +0.000 C 
ATOM      7  C   UNL     1       1.794   5.080  17.677  0.00  0.00    +0.000 C 
ATOM      8  C   UNL     1       2.494   6.439  17.778  0.00  0.00    +0.000 C 
ATOM      9  C   UNL     1       1.642   7.448  18.599  0.00  0.00    +0.000 C 
ATOM     10  N   UNL     1       1.932   7.476  20.038  0.00  0.00    +0.000 N 
ATOM     11  C   UNL     1       1.262   8.509  20.717  0.00  0.00    +0.000 A 
ATOM     12  N   UNL     1       0.412   9.300  20.040  0.00  0.00    +0.000 NA
ATOM     13  C   UNL     1      -0.271  10.228  20.735  0.00  0.00    +0.000 A 
ATOM     14  C   UNL     1      -0.130  10.419  22.083  0.00  0.00    +0.000 A 
ATOM     15  C   UNL     1       0.777   9.594  22.693  0.00  0.00    +0.000 A 
ATOM     16  N   UNL     1       1.466   8.639  22.041  0.00  0.00    +0.000 NA
ATOM     17  C   UNL     1       1.858   6.233  20.801  0.00  0.00    +0.000 C 
ENDROOT
BRANCH   2  18
ATOM     18  C   UNL     1       6.269   5.882  17.829  0.00  0.00    +0.000 A 
ATOM     19  C   UNL     1       7.247   6.379  18.673  0.00  0.00    +0.000 A 
ATOM     20  C   UNL     1       8.273   5.413  18.802  0.00  0.00    +0.000 A 
ATOM     21  C   UNL     1       7.957   4.378  17.957  0.00  0.00    +0.000 A 
ATOM     22  N   UNL     1       6.791   4.704  17.314  0.00  0.00    +0.000 N 
ATOM     23  H   UNL     1       6.328   4.149  16.606  0.00  0.00    +0.000 HD
ENDBRANCH   2  18
TORSDOF 1
ENDMDL
MODEL 3
REMARK VINA RESULT:      -6.2      9.419     12.460
REMARK  Name = 
REMARK  1 active torsions:
REMARK  status: ('A' for Active; 'I' for Inactive)
REMARK    1  A    between atoms: C_2  and  C_3
REMARK                            x       y       z     vdW  Elec       q    Type
REMARK                         _______ _______ _______ _____ _____    ______ ____
ROOT
ATOM      1  O   UNL     1      -0.406  11.082  23.294  0.00  0.00    +0.000 OA
ATOM      2  C   UNL     1      -1.072  11.927  22.697  0.00  0.00    +0.000 C 
ATOM      3  N   UNL     1      -0.826  12.220  21.342  0.00  0.00    +0.000 N 
ATOM      4  C   UNL     1      -1.716  13.034  20.507  0.00  0.00    +0.000 C 
ATOM      5  C   UNL     1      -1.495  12.860  19.003  0.00  0.00    +0.000 C 
ATOM      6  C   UNL     1      -1.426  11.376  18.613  0.00  0.00    +0.000 C 
ATOM      7  C   UNL     1      -0.644  10.528  19.612  0.00  0.00    +0.000 C 
ATOM      8  C   UNL     1       0.145  11.394  20.600  0.00  0.00    +0.000 C 
ATOM      9  C   UNL     1       1.272  12.184  19.874  0.00  0.00    +0.000 C 
ATOM     10  N   UNL     1       0.885  13.519  19.401  0.00  0.00    +0.000 N 
ATOM     11  C   UNL     1       1.968  14.262  18.900  0.00  0.00    +0.000 A 
ATOM     12  N   UNL     1       3.186  13.697  18.842  0.00  0.00    +0.000 NA
ATOM     13  C   UNL     1       4.184  14.408  18.285  0.00  0.00    +0.000 A 
ATOM     14  C   UNL     1       4.027  15.677  17.796  0.00  0.00    +0.000 A 
ATOM     15  C   UNL     1       2.764  16.193  17.921  0.00  0.00    +0.000 A 
ATOM     16  N   UNL     1       1.733  15.510  18.452  0.00  0.00    +0.000 NA
ATOM     17  C   UNL     1      -0.274  13.654  18.524  0.00  0.00    +0.000 C 
ENDROOT
BRANCH   2  18
ATOM     18  C   UNL     1      -2.207  12.559  23.370  0.00  0.00    +0.000 A 
ATOM     19  C   UNL     1      -2.439  13.830  23.869  0.00  0.00    +0.000 A 
ATOM     20  C   UNL     1      -3.785  13.913  24.296  0.00  0.00    +0.000 A 
ATOM     21  C   UNL     1      -4.332  12.663  24.144  0.00  0.00    +0.000 A 
ATOM     22  N   UNL     1      -3.352  11.834  23.662  0.00  0.00    +0.000 N 
ATOM     23  H   UNL     1      -3.449  10.843  23.481  0.00  0.00    +0.000 HD
ENDBRANCH   2  18
TORSDOF 1
ENDMDL
MODEL 4
REMARK VINA RESULT:      -6.0      9.399     11.357
REMARK  Name = 
REMARK  1 active torsions:
REMARK  status: ('A' for Active; 'I' for Inactive)
REMARK    1  A    between atoms: C_2  and  C_3
REMARK                            x       y       z     vdW  Elec       q    Type
REMARK                         _______ _______ _______ _____ _____    ______ ____
ROOT
ATOM      1  O   UNL     1      -3.571  12.247  19.323  0.00  0.00    +0.000 OA
ATOM      2  C   UNL     1      -2.567  11.838  18.743  0.00  0.00    +0.000 C 
ATOM      3  N   UNL     1      -1.284  12.025  19.294  0.00  0.00    +0.000 N 
ATOM      4  C   UNL     1      -0.073  11.371  18.788  0.00  0.00    +0.000 C 
ATOM      5  C   UNL     1       1.095  11.364  19.776  0.00  0.00    +0.000 C 
ATOM      6  C   UNL     1       0.649  10.900  21.171  0.00  0.00    +0.000 C 
ATOM      7  C   UNL     1      -0.710  11.458  21.584  0.00  0.00    +0.000 C 
ATOM      8  C   UNL     1      -1.168  12.587  20.654  0.00  0.00    +0.000 C 
ATOM      9  C   UNL     1      -0.241  13.828  20.783  0.00  0.00    +0.000 C 
ATOM     10  N   UNL     1       0.889  13.857  19.846  0.00  0.00    +0.000 N 
ATOM     11  C   UNL     1       1.606  15.066  19.881  0.00  0.00    +0.000 A 
ATOM     12  N   UNL     1       1.254  16.016  20.764  0.00  0.00    +0.000 NA
ATOM     13  C   UNL     1       2.008  17.128  20.825  0.00  0.00    +0.000 A 
ATOM     14  C   UNL     1       3.097  17.349  20.025  0.00  0.00    +0.000 A 
ATOM     15  C   UNL     1       3.371  16.347  19.132  0.00  0.00    +0.000 A 
ATOM     16  N   UNL     1       2.656  15.209  19.051  0.00  0.00    +0.000 NA
ATOM     17  C   UNL     1       1.807  12.722  19.806  0.00  0.00    +0.000 C 
ENDROOT
BRANCH   2  18
ATOM     18  C   UNL     1      -2.709  11.052  17.518  0.00  0.00    +0.000 A 
ATOM     19  C   UNL     1      -3.060   9.739  17.256  0.00  0.00    +0.000 A 
ATOM     20  C   UNL     1      -3.169   9.565  15.857  0.00  0.00    +0.000 A 
ATOM     21  C   UNL     1      -2.788  10.749  15.275  0.00  0.00    +0.000 A 
ATOM     22  N   UNL     1      -2.435  11.614  16.280  0.00  0.00    +0.000 N 
ATOM     23  H   UNL     1      -2.081  12.553  16.157  0.00  0.00    +0.000 HD
ENDBRANCH   2  18
TORSDOF 1
ENDMDL
MODEL 5
REMARK VINA RESULT:      -5.8      6.216      8.547
REMARK  Name = 
REMARK  1 active torsions:
REMARK  status: ('A' for Active; 'I' for Inactive)
REMARK    1  A    between atoms: C_2  and  C_3
REMARK                            x       y       z     vdW  Elec       q    Type
REMARK                         _______ _______ _______ _____ _____    ______ ____
ROOT
ATOM      1  O   UNL     1       0.485  12.426  21.938  0.00  0.00    +0.000 OA
ATOM      2  C   UNL     1       1.127  12.354  20.892  0.00  0.00    +0.000 C 
ATOM      3  N   UNL     1       1.006  11.237  20.042  0.00  0.00    +0.000 N 
ATOM      4  C   UNL     1       1.553  11.182  18.683  0.00  0.00    +0.000 C 
ATOM      5  C   UNL     1       0.942  10.086  17.806  0.00  0.00    +0.000 C 
ATOM      6  C   UNL     1      -0.592  10.095  17.883  0.00  0.00    +0.000 C 
ATOM      7  C   UNL     1      -1.122  10.343  19.292  0.00  0.00    +0.000 C 
ATOM      8  C   UNL     1      -0.016  10.218  20.346  0.00  0.00    +0.000 C 
ATOM      9  C   UNL     1       0.508   8.757  20.436  0.00  0.00    +0.000 C 
ATOM     10  N   UNL     1       1.651   8.455  19.566  0.00  0.00    +0.000 N 
ATOM     11  C   UNL     1       2.198   7.180  19.794  0.00  0.00    +0.000 A 
ATOM     12  N   UNL     1       1.621   6.366  20.695  0.00  0.00    +0.000 NA
ATOM     13  C   UNL     1       2.121   5.125  20.832  0.00  0.00    +0.000 A 
ATOM     14  C   UNL     1       3.193   4.658  20.120  0.00  0.00    +0.000 A 
ATOM     15  C   UNL     1       3.743   5.558  19.246  0.00  0.00    +0.000 A 
ATOM     16  N   UNL     1       3.263   6.802  19.061  0.00  0.00    +0.000 NA
ATOM     17  C   UNL     1       1.541   8.713  18.133  0.00  0.00    +0.000 C 
ENDROOT
BRANCH   2  18
ATOM     18  C   UNL     1       1.947  13.489  20.468  0.00  0.00    +0.000 A 
ATOM     19  C   UNL     1       3.259  13.864  20.701  0.00  0.00    +0.000 A 
ATOM     20  C   UNL     1       3.555  15.000  19.913  0.00  0.00    +0.000 A 
ATOM     21  C   UNL     1       2.392  15.365  19.281  0.00  0.00    +0.000 A 
ATOM     22  N   UNL     1       1.409  14.498  19.683  0.00  0.00    +0.000 N 
ATOM     23  H   UNL     1       0.436  14.536  19.410  0.00  0.00    +0.000 HD
ENDBRANCH   2  18
TORSDOF 1
ENDMDL
MODEL 6
REMARK VINA RESULT:      -5.8      8.414     10.521
REMARK  Name = 
REMARK  1 active torsions:
REMARK  status: ('A' for Active; 'I' for Inactive)
REMARK    1  A    between atoms: C_2  and  C_3
REMARK                            x       y       z     vdW  Elec       q    Type
REMARK                         _______ _______ _______ _____ _____    ______ ____
ROOT
ATOM      1  O   UNL     1      -0.256  14.963  21.371  0.00  0.00    +0.000 OA
ATOM      2  C   UNL     1      -0.192  14.713  20.168  0.00  0.00    +0.000 C 
ATOM      3  N   UNL     1      -0.543  13.443  19.672  0.00  0.00    +0.000 N 
ATOM      4  C   UNL     1      -0.715  13.141  18.247  0.00  0.00    +0.000 C 
ATOM      5  C   UNL     1      -1.506  11.860  17.969  0.00  0.00    +0.000 C 
ATOM      6  C   UNL     1      -2.798  11.806  18.798  0.00  0.00    +0.000 C 
ATOM      7  C   UNL     1      -2.615  12.307  20.228  0.00  0.00    +0.000 C 
ATOM      8  C   UNL     1      -1.135  12.455  20.595  0.00  0.00    +0.000 C 
ATOM      9  C   UNL     1      -0.426  11.071  20.630  0.00  0.00    +0.000 C 
ATOM     10  N   UNL     1       0.189  10.658  19.363  0.00  0.00    +0.000 N 
ATOM     11  C   UNL     1       0.955   9.485  19.477  0.00  0.00    +0.000 A 
ATOM     12  N   UNL     1       1.006   8.843  20.656  0.00  0.00    +0.000 NA
ATOM     13  C   UNL     1       1.685   7.682  20.711  0.00  0.00    +0.000 A 
ATOM     14  C   UNL     1       2.338   7.136  19.639  0.00  0.00    +0.000 A 
ATOM     15  C   UNL     1       2.264   7.868  18.483  0.00  0.00    +0.000 A 
ATOM     16  N   UNL     1       1.580   9.022  18.378  0.00  0.00    +0.000 NA
ATOM     17  C   UNL     1      -0.632  10.615  18.156  0.00  0.00    +0.000 C 
ENDROOT
BRANCH   2  18
ATOM     18  C   UNL     1       0.150  15.778  19.226  0.00  0.00    +0.000 A 
ATOM     19  C   UNL     1      -0.594  16.709  18.520  0.00  0.00    +0.000 A 
ATOM     20  C   UNL     1       0.291  17.592  17.859  0.00  0.00    +0.000 A 
ATOM     21  C   UNL     1       1.564  17.132  18.089  0.00  0.00    +0.000 A 
ATOM     22  N   UNL     1       1.466  15.993  18.846  0.00  0.00    +0.000 N 
ATOM     23  H   UNL     1       2.237  15.412  19.145  0.00  0.00    +0.000 HD
ENDBRANCH   2  18
TORSDOF 1
ENDMDL
MODEL 7
REMARK VINA RESULT:      -5.8      9.781     11.463
REMARK  Name = 
REMARK  1 active torsions:
REMARK  status: ('A' for Active; 'I' for Inactive)
REMARK    1  A    between atoms: C_2  and  C_3
REMARK                            x       y       z     vdW  Elec       q    Type
REMARK                         _______ _______ _______ _____ _____    ______ ____
ROOT
ATOM      1  O   UNL     1       0.126  10.214  23.449  0.00  0.00    +0.000 OA
ATOM      2  C   UNL     1      -0.205  10.455  22.289  0.00  0.00    +0.000 C 
ATOM      3  N   UNL     1      -1.093  11.507  21.991  0.00  0.00    +0.000 N 
ATOM      4  C   UNL     1      -1.351  12.000  20.634  0.00  0.00    +0.000 C 
ATOM      5  C   UNL     1      -1.985  13.392  20.583  0.00  0.00    +0.000 C 
ATOM      6  C   UNL     1      -1.245  14.380  21.497  0.00  0.00    +0.000 C 
ATOM      7  C   UNL     1      -0.828  13.769  22.832  0.00  0.00    +0.000 C 
ATOM      8  C   UNL     1      -1.508  12.417  23.075  0.00  0.00    +0.000 C 
ATOM      9  C   UNL     1      -3.045  12.587  23.248  0.00  0.00    +0.000 C 
ATOM     10  N   UNL     1      -3.823  12.471  22.009  0.00  0.00    +0.000 N 
ATOM     11  C   UNL     1      -5.212  12.467  22.227  0.00  0.00    +0.000 A 
ATOM     12  N   UNL     1      -5.684  12.624  23.475  0.00  0.00    +0.000 NA
ATOM     13  C   UNL     1      -7.018  12.694  23.639  0.00  0.00    +0.000 A 
ATOM     14  C   UNL     1      -7.913  12.594  22.608  0.00  0.00    +0.000 A 
ATOM     15  C   UNL     1      -7.353  12.403  21.372  0.00  0.00    +0.000 A 
ATOM     16  N   UNL     1      -6.025  12.349  21.160  0.00  0.00    +0.000 NA
ATOM     17  C   UNL     1      -3.488  13.329  20.876  0.00  0.00    +0.000 C 
ENDROOT
BRANCH   2  18
ATOM     18  C   UNL     1       0.414   9.711  21.192  0.00  0.00    +0.000 A 
ATOM     19  C   UNL     1       0.667   9.997  19.862  0.00  0.00    +0.000 A 
ATOM     20  C   UNL     1       1.424   8.941  19.304  0.00  0.00    +0.000 A 
ATOM     21  C   UNL     1       1.541   7.976  20.273  0.00  0.00    +0.000 A 
ATOM     22  N   UNL     1       0.861   8.412  21.381  0.00  0.00    +0.000 N 
ATOM     23  H   UNL     1       0.743   7.898  22.245  0.00  0.00    +0.000 HD
ENDBRANCH   2  18
TORSDOF 1
ENDMDL
MODEL 8
REMARK VINA RESULT:      -5.8      9.906     12.677
REMARK  Name = 
REMARK  1 active torsions:
REMARK  status: ('A' for Active; 'I' for Inactive)
REMARK    1  A    between atoms: C_2  and  C_3
REMARK                            x       y       z     vdW  Elec       q    Type
REMARK                         _______ _______ _______ _____ _____    ______ ____
ROOT
ATOM      1  O   UNL     1      -5.120  13.192  19.763  0.00  0.00    +0.000 OA
ATOM      2  C   UNL     1      -4.910  12.742  20.888  0.00  0.00    +0.000 C 
ATOM      3  N   UNL     1      -3.598  12.585  21.375  0.00  0.00    +0.000 N 
ATOM      4  C   UNL     1      -3.275  12.279  22.772  0.00  0.00    +0.000 C 
ATOM      5  C   UNL     1      -1.827  12.584  23.162  0.00  0.00    +0.000 C 
ATOM      6  C   UNL     1      -1.403  13.984  22.695  0.00  0.00    +0.000 C 
ATOM      7  C   UNL     1      -1.919  14.336  21.303  0.00  0.00    +0.000 C 
ATOM      8  C   UNL     1      -2.474  13.108  20.574  0.00  0.00    +0.000 C 
ATOM      9  C   UNL     1      -1.346  12.084  20.265  0.00  0.00    +0.000 C 
ATOM     10  N   UNL     1      -1.136  11.063  21.299  0.00  0.00    +0.000 N 
ATOM     11  C   UNL     1      -0.225  10.064  20.913  0.00  0.00    +0.000 A 
ATOM     12  N   UNL     1       0.390  10.156  19.721  0.00  0.00    +0.000 NA
ATOM     13  C   UNL     1       1.312   9.226  19.416  0.00  0.00    +0.000 A 
ATOM     14  C   UNL     1       1.641   8.186  20.243  0.00  0.00    +0.000 A 
ATOM     15  C   UNL     1       0.948   8.145  21.424  0.00  0.00    +0.000 A 
ATOM     16  N   UNL     1       0.032   9.065  21.779  0.00  0.00    +0.000 NA
ATOM     17  C   UNL     1      -0.876  11.485  22.672  0.00  0.00    +0.000 C 
ENDROOT
BRANCH   2  18
ATOM     18  C   UNL     1      -6.039  12.466  21.777  0.00  0.00    +0.000 A 
ATOM     19  C   UNL     1      -6.549  13.091  22.902  0.00  0.00    +0.000 A 
ATOM     20  C   UNL     1      -7.754  12.451  23.273  0.00  0.00    +0.000 A 
ATOM     21  C   UNL     1      -7.917  11.381  22.429  0.00  0.00    +0.000 A 
ATOM     22  N   UNL     1      -6.838  11.349  21.583  0.00  0.00    +0.000 N 
ATOM     23  H   UNL     1      -6.663  10.652  20.870  0.00  0.00    +0.000 HD
ENDBRANCH   2  18
TORSDOF 1
ENDMDL
MODEL 9
REMARK VINA RESULT:      -5.7      7.235      9.374
REMARK  Name = 
REMARK  1 active torsions:
REMARK  status: ('A' for Active; 'I' for Inactive)
REMARK    1  A    between atoms: C_2  and  C_3
REMARK                            x       y       z     vdW  Elec       q    Type
REMARK                         _______ _______ _______ _____ _____    ______ ____
ROOT
ATOM      1  O   UNL     1       1.671  13.911  21.781  0.00  0.00    +0.000 OA
ATOM      2  C   UNL     1       1.528  13.775  20.567  0.00  0.00    +0.000 C 
ATOM      3  N   UNL     1       0.900  12.632  20.034  0.00  0.00    +0.000 N 
ATOM      4  C   UNL     1       0.488  12.505  18.632  0.00  0.00    +0.000 C 
ATOM      5  C   UNL     1      -0.541  11.401  18.380  0.00  0.00    +0.000 C 
ATOM      6  C   UNL     1      -1.699  11.470  19.387  0.00  0.00    +0.000 C 
ATOM      7  C   UNL     1      -1.241  11.790  20.808  0.00  0.00    +0.000 C 
ATOM      8  C   UNL     1       0.279  11.664  20.958  0.00  0.00    +0.000 C 
ATOM      9  C   UNL     1       0.738  10.189  20.781  0.00  0.00    +0.000 C 
ATOM     10  N   UNL     1       1.095   9.812  19.408  0.00  0.00    +0.000 N 
ATOM     11  C   UNL     1       1.658   8.527  19.316  0.00  0.00    +0.000 A 
ATOM     12  N   UNL     1       1.758   7.770  20.422  0.00  0.00    +0.000 NA
ATOM     13  C   UNL     1       2.228   6.517  20.286  0.00  0.00    +0.000 A 
ATOM     14  C   UNL     1       2.627   5.984  19.090  0.00  0.00    +0.000 A 
ATOM     15  C   UNL     1       2.523   6.830  18.017  0.00  0.00    +0.000 A 
ATOM     16  N   UNL     1       2.039   8.083  18.104  0.00  0.00    +0.000 NA
ATOM     17  C   UNL     1       0.124  10.020  18.338  0.00  0.00    +0.000 C 
ENDROOT
BRANCH   2  18
ATOM     18  C   UNL     1       1.916  14.861  19.668  0.00  0.00    +0.000 A 
ATOM     19  C   UNL     1       1.273  15.994  19.199  0.00  0.00    +0.000 A 
ATOM     20  C   UNL     1       2.194  16.766  18.454  0.00  0.00    +0.000 A 
ATOM     21  C   UNL     1       3.363  16.049  18.394  0.00  0.00    +0.000 A 
ATOM     22  N   UNL     1       3.162  14.867  19.059  0.00  0.00    +0.000 N 
ATOM     23  H   UNL     1       3.835  14.118  19.155  0.00  0.00    +0.000 HD
ENDBRANCH   2  18
TORSDOF 1
ENDMDL
