MODEL 1
REMARK VINA RESULT:      -5.4      0.000      0.000
REMARK  Name = 
REMARK  2 active torsions:
REMARK  status: ('A' for Active; 'I' for Inactive)
REMARK    1  A    between atoms: C_4  and  C_6
REMARK    2  A    between atoms: C_6  and  N_7
REMARK                            x       y       z     vdW  Elec       q    Type
REMARK                         _______ _______ _______ _____ _____    ______ ____
ROOT
ATOM      1  C   UNL     1       4.357   4.270  16.832  0.00  0.00    +0.000 C 
ENDROOT
BRANCH   1   5
ATOM      2  I   UNL     1       1.634   4.424  20.458  0.00  0.00    +0.000 I 
ATOM      3  C   UNL     1       2.812   4.841  18.784  0.00  0.00    +0.000 C 
ATOM      4  I   UNL     1       2.833   6.904  18.418  0.00  0.00    +0.000 I 
ATOM      5  C   UNL     1       3.472   3.936  18.021  0.00  0.00    +0.000 C 
ATOM      6  I   UNL     1       3.465   1.837  18.467  0.00  0.00    +0.000 I 
ENDBRANCH   1   5
BRANCH   1   7
ATOM      7  N   UNL     1       5.757   4.420  17.182  0.00  0.00    +0.000 N 
ATOM      8  C   UNL     1       6.852   4.399  16.376  0.00  0.00    +0.000 A 
ATOM      9  N   UNL     1       7.923   4.470  17.133  0.00  0.00    +0.000 NA
ATOM     10  N   UNL     1       7.468   4.518  18.427  0.00  0.00    +0.000 NA
ATOM     11  N   UNL     1       6.143   4.477  18.466  0.00  0.00    +0.000 NA
ENDBRANCH   1   7
TORSDOF 2
ENDMDL
MODEL 2
REMARK VINA RESULT:      -5.3      0.446      2.221
REMARK  Name = 
REMARK  2 active torsions:
REMARK  status: ('A' for Active; 'I' for Inactive)
REMARK    1  A    between atoms: C_4  and  C_6
REMARK    2  A    between atoms: C_6  and  N_7
REMARK                            x       y       z     vdW  Elec       q    Type
REMARK                         _______ _______ _______ _____ _____    ______ ____
ROOT
ATOM      1  C   UNL     1       4.393   4.663  16.859  0.00  0.00    +0.000 C 
ENDROOT
BRANCH   1   5
ATOM      2  I   UNL     1       1.572   4.175  20.380  0.00  0.00    +0.000 I 
ATOM      3  C   UNL     1       2.909   3.908  18.796  0.00  0.00    +0.000 C 
ATOM      4  I   UNL     1       3.316   1.869  18.536  0.00  0.00    +0.000 I 
ATOM      5  C   UNL     1       3.456   4.886  18.034  0.00  0.00    +0.000 C 
ATOM      6  I   UNL     1       2.967   6.958  18.302  0.00  0.00    +0.000 I 
ENDBRANCH   1   5
BRANCH   1   7
ATOM      7  N   UNL     1       5.793   4.643  17.236  0.00  0.00    +0.000 N 
ATOM      8  C   UNL     1       6.895   4.520  16.449  0.00  0.00    +0.000 A 
ATOM      9  N   UNL     1       7.952   4.447  17.225  0.00  0.00    +0.000 NA
ATOM     10  N   UNL     1       7.479   4.511  18.512  0.00  0.00    +0.000 NA
ATOM     11  N   UNL     1       6.158   4.620  18.528  0.00  0.00    +0.000 NA
ENDBRANCH   1   7
TORSDOF 2
ENDMDL
MODEL 3
REMARK VINA RESULT:      -5.3      0.916      2.488
REMARK  Name = 
REMARK  2 active torsions:
REMARK  status: ('A' for Active; 'I' for Inactive)
REMARK    1  A    between atoms: C_4  and  C_6
REMARK    2  A    between atoms: C_6  and  N_7
REMARK                            x       y       z     vdW  Elec       q    Type
REMARK                         _______ _______ _______ _____ _____    ______ ____
ROOT
ATOM      1  C   UNL     1       4.393   4.842  16.885  0.00  0.00    +0.000 C 
ENDROOT
BRANCH   1   5
ATOM      2  I   UNL     1       1.486   4.078  20.284  0.00  0.00    +0.000 I 
ATOM      3  C   UNL     1       2.882   3.939  18.736  0.00  0.00    +0.000 C 
ATOM      4  I   UNL     1       3.387   1.933  18.402  0.00  0.00    +0.000 I 
ATOM      5  C   UNL     1       3.410   4.973  18.036  0.00  0.00    +0.000 C 
ATOM      6  I   UNL     1       2.822   7.009  18.377  0.00  0.00    +0.000 I 
ENDBRANCH   1   5
BRANCH   1   7
ATOM      7  N   UNL     1       5.770   4.702  17.317  0.00  0.00    +0.000 N 
ATOM      8  C   UNL     1       6.328   4.999  18.521  0.00  0.00    +0.000 A 
ATOM      9  N   UNL     1       7.626   4.811  18.432  0.00  0.00    +0.000 NA
ATOM     10  N   UNL     1       7.861   4.408  17.141  0.00  0.00    +0.000 NA
ATOM     11  N   UNL     1       6.731   4.349  16.449  0.00  0.00    +0.000 NA
ENDBRANCH   1   7
TORSDOF 2
ENDMDL
MODEL 4
REMARK VINA RESULT:      -5.3      0.777      1.112
REMARK  Name = 
REMARK  2 active torsions:
REMARK  status: ('A' for Active; 'I' for Inactive)
REMARK    1  A    between atoms: C_4  and  C_6
REMARK    2  A    between atoms: C_6  and  N_7
REMARK                            x       y       z     vdW  Elec       q    Type
REMARK                         _______ _______ _______ _____ _____    ______ ____
ROOT
ATOM      1  C   UNL     1       4.404   4.510  16.840  0.00  0.00    +0.000 C 
ENDROOT
BRANCH   1   5
ATOM      2  I   UNL     1       1.521   4.444  20.344  0.00  0.00    +0.000 I 
ATOM      3  C   UNL     1       2.766   4.962  18.748  0.00  0.00    +0.000 C 
ATOM      4  I   UNL     1       2.777   7.041  18.490  0.00  0.00    +0.000 I 
ATOM      5  C   UNL     1       3.471   4.105  17.969  0.00  0.00    +0.000 C 
ATOM      6  I   UNL     1       3.472   1.985  18.305  0.00  0.00    +0.000 I 
ENDBRANCH   1   5
BRANCH   1   7
ATOM      7  N   UNL     1       5.805   4.468  17.209  0.00  0.00    +0.000 N 
ATOM      8  C   UNL     1       6.393   4.779  18.395  0.00  0.00    +0.000 A 
ATOM      9  N   UNL     1       7.695   4.695  18.246  0.00  0.00    +0.000 NA
ATOM     10  N   UNL     1       7.903   4.341  16.935  0.00  0.00    +0.000 NA
ATOM     11  N   UNL     1       6.751   4.211  16.291  0.00  0.00    +0.000 NA
ENDBRANCH   1   7
TORSDOF 2
ENDMDL
MODEL 5
REMARK VINA RESULT:      -5.1      1.403      2.609
REMARK  Name = 
REMARK  2 active torsions:
REMARK  status: ('A' for Active; 'I' for Inactive)
REMARK    1  A    between atoms: C_4  and  C_6
REMARK    2  A    between atoms: C_6  and  N_7
REMARK                            x       y       z     vdW  Elec       q    Type
REMARK                         _______ _______ _______ _____ _____    ______ ____
ROOT
ATOM      1  C   UNL     1       4.781   4.925  17.630  0.00  0.00    +0.000 C 
ENDROOT
BRANCH   1   5
ATOM      2  I   UNL     1       1.165   3.669  20.067  0.00  0.00    +0.000 I 
ATOM      3  C   UNL     1       2.918   3.760  18.933  0.00  0.00    +0.000 C 
ATOM      4  I   UNL     1       3.639   1.827  18.568  0.00  0.00    +0.000 I 
ATOM      5  C   UNL     1       3.529   4.886  18.490  0.00  0.00    +0.000 C 
ATOM      6  I   UNL     1       2.724   6.844  18.842  0.00  0.00    +0.000 I 
ENDBRANCH   1   5
BRANCH   1   7
ATOM      7  N   UNL     1       5.960   5.366  18.349  0.00  0.00    +0.000 N 
ATOM      8  C   UNL     1       6.998   6.128  17.914  0.00  0.00    +0.000 A 
ATOM      9  N   UNL     1       7.894   6.193  18.872  0.00  0.00    +0.000 NA
ATOM     10  N   UNL     1       7.396   5.438  19.905  0.00  0.00    +0.000 NA
ATOM     11  N   UNL     1       6.217   4.921  19.589  0.00  0.00    +0.000 NA
ENDBRANCH   1   7
TORSDOF 2
ENDMDL
MODEL 6
REMARK VINA RESULT:      -4.9      1.016      2.426
REMARK  Name = 
REMARK  2 active torsions:
REMARK  status: ('A' for Active; 'I' for Inactive)
REMARK    1  A    between atoms: C_4  and  C_6
REMARK    2  A    between atoms: C_6  and  N_7
REMARK                            x       y       z     vdW  Elec       q    Type
REMARK                         _______ _______ _______ _____ _____    ______ ____
ROOT
ATOM      1  C   UNL     1       4.258   4.220  16.484  0.00  0.00    +0.000 C 
ENDROOT
BRANCH   1   5
ATOM      2  I   UNL     1       2.081   4.842  20.416  0.00  0.00    +0.000 I 
ATOM      3  C   UNL     1       3.027   4.077  18.717  0.00  0.00    +0.000 C 
ATOM      4  I   UNL     1       2.959   1.983  18.740  0.00  0.00    +0.000 I 
ATOM      5  C   UNL     1       3.613   4.800  17.732  0.00  0.00    +0.000 C 
ATOM      6  I   UNL     1       3.610   6.946  17.724  0.00  0.00    +0.000 I 
ENDBRANCH   1   5
BRANCH   1   7
ATOM      7  N   UNL     1       5.634   4.639  16.300  0.00  0.00    +0.000 N 
ATOM      8  C   UNL     1       6.226   5.193  15.208  0.00  0.00    +0.000 A 
ATOM      9  N   UNL     1       7.511   5.315  15.452  0.00  0.00    +0.000 NA
ATOM     10  N   UNL     1       7.705   4.807  16.713  0.00  0.00    +0.000 NA
ATOM     11  N   UNL     1       6.563   4.382  17.234  0.00  0.00    +0.000 NA
ENDBRANCH   1   7
TORSDOF 2
ENDMDL
MODEL 7
REMARK VINA RESULT:      -4.9      1.372      2.643
REMARK  Name = 
REMARK  2 active torsions:
REMARK  status: ('A' for Active; 'I' for Inactive)
REMARK    1  A    between atoms: C_4  and  C_6
REMARK    2  A    between atoms: C_6  and  N_7
REMARK                            x       y       z     vdW  Elec       q    Type
REMARK                         _______ _______ _______ _____ _____    ______ ____
ROOT
ATOM      1  C   UNL     1       5.489   5.425  19.245  0.00  0.00    +0.000 C 
ENDROOT
BRANCH   1   5
ATOM      2  I   UNL     1       1.409   3.571  18.532  0.00  0.00    +0.000 I 
ATOM      3  C   UNL     1       3.398   3.973  19.030  0.00  0.00    +0.000 C 
ATOM      4  I   UNL     1       4.320   2.240  19.761  0.00  0.00    +0.000 I 
ATOM      5  C   UNL     1       4.028   5.168  18.916  0.00  0.00    +0.000 C 
ATOM      6  I   UNL     1       3.059   6.905  18.110  0.00  0.00    +0.000 I 
ENDBRANCH   1   5
BRANCH   1   7
ATOM      7  N   UNL     1       6.391   5.088  18.161  0.00  0.00    +0.000 N 
ATOM      8  C   UNL     1       6.174   5.123  16.819  0.00  0.00    +0.000 A 
ATOM      9  N   UNL     1       7.234   4.635  16.216  0.00  0.00    +0.000 NA
ATOM     10  N   UNL     1       8.106   4.280  17.215  0.00  0.00    +0.000 NA
ATOM     11  N   UNL     1       7.593   4.544  18.409  0.00  0.00    +0.000 NA
ENDBRANCH   1   7
TORSDOF 2
ENDMDL
MODEL 8
REMARK VINA RESULT:      -4.7      2.645      2.972
REMARK  Name = 
REMARK  2 active torsions:
REMARK  status: ('A' for Active; 'I' for Inactive)
REMARK    1  A    between atoms: C_4  and  C_6
REMARK    2  A    between atoms: C_6  and  N_7
REMARK                            x       y       z     vdW  Elec       q    Type
REMARK                         _______ _______ _______ _____ _____    ______ ____
ROOT
ATOM      1  C   UNL     1       5.202   6.741  16.719  0.00  0.00    +0.000 C 
ENDROOT
BRANCH   1   5
ATOM      2  I   UNL     1       3.113   2.833  17.698  0.00  0.00    +0.000 I 
ATOM      3  C   UNL     1       3.780   4.811  17.602  0.00  0.00    +0.000 C 
ATOM      4  I   UNL     1       2.800   5.970  19.047  0.00  0.00    +0.000 I 
ATOM      5  C   UNL     1       4.702   5.306  16.740  0.00  0.00    +0.000 C 
ATOM      6  I   UNL     1       5.720   4.069  15.312  0.00  0.00    +0.000 I 
ENDBRANCH   1   5
BRANCH   1   7
ATOM      7  N   UNL     1       6.464   6.921  17.410  0.00  0.00    +0.000 N 
ATOM      8  C   UNL     1       7.037   6.148  18.371  0.00  0.00    +0.000 A 
ATOM      9  N   UNL     1       8.131   6.746  18.784  0.00  0.00    +0.000 NA
ATOM     10  N   UNL     1       8.214   7.916  18.070  0.00  0.00    +0.000 NA
ATOM     11  N   UNL     1       7.192   8.036  17.234  0.00  0.00    +0.000 NA
ENDBRANCH   1   7
TORSDOF 2
ENDMDL
MODEL 9
REMARK VINA RESULT:      -4.7      3.996      4.871
REMARK  Name = 
REMARK  2 active torsions:
REMARK  status: ('A' for Active; 'I' for Inactive)
REMARK    1  A    between atoms: C_4  and  C_6
REMARK    2  A    between atoms: C_6  and  N_7
REMARK                            x       y       z     vdW  Elec       q    Type
REMARK                         _______ _______ _______ _____ _____    ______ ____
ROOT
ATOM      1  C   UNL     1       1.535   4.711  18.778  0.00  0.00    +0.000 C 
ENDROOT
BRANCH   1   5
ATOM      2  I   UNL     1       5.251   6.437  16.827  0.00  0.00    +0.000 I 
ATOM      3  C   UNL     1       3.414   6.119  17.771  0.00  0.00    +0.000 C 
ATOM      4  I   UNL     1       2.455   7.950  18.112  0.00  0.00    +0.000 I 
ATOM      5  C   UNL     1       2.894   4.920  18.131  0.00  0.00    +0.000 C 
ATOM      6  I   UNL     1       3.889   3.065  17.712  0.00  0.00    +0.000 I 
ENDBRANCH   1   5
BRANCH   1   7
ATOM      7  N   UNL     1       1.608   4.053  20.068  0.00  0.00    +0.000 N 
ATOM      8  C   UNL     1       2.366   4.366  21.153  0.00  0.00    +0.000 A 
ATOM      9  N   UNL     1       2.188   3.437  22.064  0.00  0.00    +0.000 NA
ATOM     10  N   UNL     1       1.316   2.531  21.513  0.00  0.00    +0.000 NA
ATOM     11  N   UNL     1       0.964   2.895  20.288  0.00  0.00    +0.000 NA
ENDBRANCH   1   7
TORSDOF 2
ENDMDL
