MODEL 1
REMARK VINA RESULT:      -9.1      0.000      0.000
REMARK  Name = 
REMARK  7 active torsions:
REMARK  status: ('A' for Active; 'I' for Inactive)
REMARK    1  A    between atoms: N_1  and  C_2
REMARK    2  A    between atoms: C_7  and  N_8
REMARK    3  A    between atoms: C_9  and  C_11
REMARK    4  A    between atoms: C_14  and  C_15
REMARK    5  A    between atoms: C_15  and  C_16
REMARK    6  A    between atoms: C_16  and  N_17
REMARK    7  A    between atoms: C_22  and  C_23
REMARK                            x       y       z     vdW  Elec       q    Type
REMARK                         _______ _______ _______ _____ _____    ______ ____
ROOT
ATOM      1  C   UNL     1       7.888   8.530  17.999  0.00  0.00    +0.000 A 
ATOM      2  C   UNL     1       8.389   7.511  18.816  0.00  0.00    +0.000 A 
ATOM      3  C   UNL     1       7.873   6.220  18.764  0.00  0.00    +0.000 A 
ATOM      4  C   UNL     1       6.836   5.892  17.884  0.00  0.00    +0.000 A 
ATOM      5  C   UNL     1       6.317   6.919  17.072  0.00  0.00    +0.000 A 
ATOM      6  C   UNL     1       6.838   8.234  17.127  0.00  0.00    +0.000 A 
ENDROOT
BRANCH   1   8
ATOM      7  N   UNL     1       9.546   9.981  19.105  0.00  0.00    +0.000 N 
ATOM      8  C   UNL     1       8.535   9.865  18.165  0.00  0.00    +0.000 C 
ATOM      9  O   UNL     1       8.097  10.793  17.477  0.00  0.00    +0.000 OA
ATOM     10  H   UNL     1       9.968   9.141  19.464  0.00  0.00    +0.000 HD
BRANCH   7  16
ATOM     11  C   UNL     1      11.237  11.746  18.885  0.00  0.00    +0.000 A 
ATOM     12  C   UNL     1      11.722  13.007  19.283  0.00  0.00    +0.000 A 
ATOM     13  C   UNL     1      11.194  13.673  20.389  0.00  0.00    +0.000 A 
ATOM     14  C   UNL     1      10.145  13.105  21.094  0.00  0.00    +0.000 A 
ATOM     15  C   UNL     1       9.609  11.887  20.675  0.00  0.00    +0.000 A 
ATOM     16  C   UNL     1      10.114  11.209  19.555  0.00  0.00    +0.000 A 
BRANCH  11  17
ATOM     17  N   UNL     1      11.742  11.194  17.686  0.00  0.00    +0.000 N 
ATOM     18  H   UNL     1      11.355  11.641  16.859  0.00  0.00    +0.000 HD
ATOM     19  H   UNL     1      12.749  11.139  17.637  0.00  0.00    +0.000 HD
ENDBRANCH  11  17
ENDBRANCH   7  16
ENDBRANCH   1   8
BRANCH   4  20
ATOM     20  C   UNL     1       6.283   4.477  17.802  0.00  0.00    +0.000 C 
BRANCH  20  21
ATOM     21  C   UNL     1       5.199   4.243  16.714  0.00  0.00    +0.000 C 
BRANCH  21  22
ATOM     22  N   UNL     1       3.999   3.585  17.221  0.00  0.00    +0.000 N 
ATOM     23  C   UNL     1       3.352   4.302  18.234  0.00  0.00    +0.000 A 
ATOM     24  N   UNL     1       2.916   3.589  19.275  0.00  0.00    +0.000 NA
ATOM     25  C   UNL     1       2.298   4.266  20.271  0.00  0.00    +0.000 A 
ATOM     26  C   UNL     1       2.089   5.628  20.272  0.00  0.00    +0.000 A 
ATOM     27  C   UNL     1       2.557   6.270  19.158  0.00  0.00    +0.000 A 
ATOM     28  N   UNL     1       3.195   5.627  18.150  0.00  0.00    +0.000 NA
ATOM     29  H   UNL     1       4.166   2.668  17.621  0.00  0.00    +0.000 HD
BRANCH  27  30
ATOM     30  C   UNL     1       2.515   7.715  18.940  0.00  0.00    +0.000 A 
ATOM     31  C   UNL     1       2.896   8.357  17.767  0.00  0.00    +0.000 A 
ATOM     32  N   UNL     1       1.963   9.300  17.397  0.00  0.00    +0.000 NA
ATOM     33  C   UNL     1       1.050   9.275  18.340  0.00  0.00    +0.000 A 
ATOM     34  N   UNL     1      -0.157   9.910  18.412  0.00  0.00    +0.000 NA
ATOM     35  C   UNL     1      -0.600  10.107  19.613  0.00  0.00    +0.000 A 
ATOM     36  C   UNL     1       0.116   9.767  20.877  0.00  0.00    +0.000 A 
ATOM     37  C   UNL     1       1.145   8.917  20.730  0.00  0.00    +0.000 A 
ATOM     38  N   UNL     1       1.552   8.579  19.442  0.00  0.00    +0.000 N 
ENDBRANCH  27  30
ENDBRANCH  21  22
ENDBRANCH  20  21
ENDBRANCH   4  20
TORSDOF 7
ENDMDL
MODEL 2
REMARK VINA RESULT:      -9.1      0.556      1.443
REMARK  Name = 
REMARK  7 active torsions:
REMARK  status: ('A' for Active; 'I' for Inactive)
REMARK    1  A    between atoms: N_1  and  C_2
REMARK    2  A    between atoms: C_7  and  N_8
REMARK    3  A    between atoms: C_9  and  C_11
REMARK    4  A    between atoms: C_14  and  C_15
REMARK    5  A    between atoms: C_15  and  C_16
REMARK    6  A    between atoms: C_16  and  N_17
REMARK    7  A    between atoms: C_22  and  C_23
REMARK                            x       y       z     vdW  Elec       q    Type
REMARK                         _______ _______ _______ _____ _____    ______ ____
ROOT
ATOM      1  C   UNL     1       8.007   8.271  18.225  0.00  0.00    +0.000 A 
ATOM      2  C   UNL     1       6.979   8.052  17.302  0.00  0.00    +0.000 A 
ATOM      3  C   UNL     1       6.374   6.806  17.172  0.00  0.00    +0.000 A 
ATOM      4  C   UNL     1       6.768   5.725  17.967  0.00  0.00    +0.000 A 
ATOM      5  C   UNL     1       7.815   5.936  18.886  0.00  0.00    +0.000 A 
ATOM      6  C   UNL     1       8.434   7.202  19.017  0.00  0.00    +0.000 A 
ENDROOT
BRANCH   1   8
ATOM      7  N   UNL     1       9.623   9.910  19.107  0.00  0.00    +0.000 N 
ATOM      8  C   UNL     1       8.564   9.655  18.252  0.00  0.00    +0.000 C 
ATOM      9  O   UNL     1       8.014  10.497  17.533  0.00  0.00    +0.000 OA
ATOM     10  H   UNL     1      10.128   9.130  19.493  0.00  0.00    +0.000 HD
BRANCH   7  16
ATOM     11  C   UNL     1       9.791  11.795  20.668  0.00  0.00    +0.000 A 
ATOM     12  C   UNL     1      10.376  13.030  21.009  0.00  0.00    +0.000 A 
ATOM     13  C   UNL     1      11.178  13.728  20.106  0.00  0.00    +0.000 A 
ATOM     14  C   UNL     1      11.440  13.183  18.859  0.00  0.00    +0.000 A 
ATOM     15  C   UNL     1      10.921  11.930  18.529  0.00  0.00    +0.000 A 
ATOM     16  C   UNL     1      10.127  11.204  19.429  0.00  0.00    +0.000 A 
BRANCH  11  17
ATOM     17  N   UNL     1       9.092  11.097  21.679  0.00  0.00    +0.000 N 
ATOM     18  H   UNL     1       8.103  10.994  21.468  0.00  0.00    +0.000 HD
ATOM     19  H   UNL     1       9.504  10.214  21.945  0.00  0.00    +0.000 HD
ENDBRANCH  11  17
ENDBRANCH   7  16
ENDBRANCH   1   8
BRANCH   4  20
ATOM     20  C   UNL     1       6.096   4.365  17.850  0.00  0.00    +0.000 C 
BRANCH  20  21
ATOM     21  C   UNL     1       5.091   4.213  16.675  0.00  0.00    +0.000 C 
BRANCH  21  22
ATOM     22  N   UNL     1       3.833   3.584  17.063  0.00  0.00    +0.000 N 
ATOM     23  C   UNL     1       3.152   4.270  18.075  0.00  0.00    +0.000 A 
ATOM     24  N   UNL     1       2.618   3.520  19.041  0.00  0.00    +0.000 NA
ATOM     25  C   UNL     1       1.965   4.166  20.035  0.00  0.00    +0.000 A 
ATOM     26  C   UNL     1       1.815   5.535  20.106  0.00  0.00    +0.000 A 
ATOM     27  C   UNL     1       2.383   6.217  19.065  0.00  0.00    +0.000 A 
ATOM     28  N   UNL     1       3.058   5.604  18.062  0.00  0.00    +0.000 NA
ATOM     29  H   UNL     1       3.933   2.639  17.416  0.00  0.00    +0.000 HD
BRANCH  27  30
ATOM     30  C   UNL     1       2.419   7.672  18.933  0.00  0.00    +0.000 A 
ATOM     31  C   UNL     1       2.808   8.362  17.790  0.00  0.00    +0.000 A 
ATOM     32  N   UNL     1       1.921   9.376  17.501  0.00  0.00    +0.000 NA
ATOM     33  C   UNL     1       1.031   9.344  18.466  0.00  0.00    +0.000 A 
ATOM     34  N   UNL     1      -0.136  10.040  18.606  0.00  0.00    +0.000 NA
ATOM     35  C   UNL     1      -0.539  10.189  19.829  0.00  0.00    +0.000 A 
ATOM     36  C   UNL     1       0.186   9.734  21.051  0.00  0.00    +0.000 A 
ATOM     37  C   UNL     1       1.162   8.839  20.827  0.00  0.00    +0.000 A 
ATOM     38  N   UNL     1       1.518   8.557  19.511  0.00  0.00    +0.000 N 
ENDBRANCH  27  30
ENDBRANCH  21  22
ENDBRANCH  20  21
ENDBRANCH   4  20
TORSDOF 7
ENDMDL
MODEL 3
REMARK VINA RESULT:      -9.0      1.230      1.487
REMARK  Name = 
REMARK  7 active torsions:
REMARK  status: ('A' for Active; 'I' for Inactive)
REMARK    1  A    between atoms: N_1  and  C_2
REMARK    2  A    between atoms: C_7  and  N_8
REMARK    3  A    between atoms: C_9  and  C_11
REMARK    4  A    between atoms: C_14  and  C_15
REMARK    5  A    between atoms: C_15  and  C_16
REMARK    6  A    between atoms: C_16  and  N_17
REMARK    7  A    between atoms: C_22  and  C_23
REMARK                            x       y       z     vdW  Elec       q    Type
REMARK                         _______ _______ _______ _____ _____    ______ ____
ROOT
ATOM      1  C   UNL     1       8.072   8.276  18.229  0.00  0.00    +0.000 A 
ATOM      2  C   UNL     1       8.379   7.145  18.993  0.00  0.00    +0.000 A 
ATOM      3  C   UNL     1       7.784   5.913  18.738  0.00  0.00    +0.000 A 
ATOM      4  C   UNL     1       6.860   5.760  17.700  0.00  0.00    +0.000 A 
ATOM      5  C   UNL     1       6.534   6.899  16.939  0.00  0.00    +0.000 A 
ATOM      6  C   UNL     1       7.136   8.154  17.200  0.00  0.00    +0.000 A 
ENDROOT
BRANCH   1   8
ATOM      7  N   UNL     1       8.924  10.518  17.659  0.00  0.00    +0.000 N 
ATOM      8  C   UNL     1       8.784   9.529  18.618  0.00  0.00    +0.000 C 
ATOM      9  O   UNL     1       9.238   9.584  19.766  0.00  0.00    +0.000 OA
ATOM     10  H   UNL     1       8.354  10.470  16.832  0.00  0.00    +0.000 HD
BRANCH   7  16
ATOM     11  C   UNL     1       9.218  12.951  17.538  0.00  0.00    +0.000 A 
ATOM     12  C   UNL     1      10.032  14.079  17.757  0.00  0.00    +0.000 A 
ATOM     13  C   UNL     1      11.380  13.950  18.088  0.00  0.00    +0.000 A 
ATOM     14  C   UNL     1      11.929  12.686  18.244  0.00  0.00    +0.000 A 
ATOM     15  C   UNL     1      11.121  11.558  18.095  0.00  0.00    +0.000 A 
ATOM     16  C   UNL     1       9.759  11.667  17.779  0.00  0.00    +0.000 A 
BRANCH  11  17
ATOM     17  N   UNL     1       7.837  13.166  17.325  0.00  0.00    +0.000 N 
ATOM     18  H   UNL     1       7.310  13.201  18.193  0.00  0.00    +0.000 HD
ATOM     19  H   UNL     1       7.619  13.952  16.730  0.00  0.00    +0.000 HD
ENDBRANCH  11  17
ENDBRANCH   7  16
ENDBRANCH   1   8
BRANCH   4  20
ATOM     20  C   UNL     1       6.223   4.411  17.398  0.00  0.00    +0.000 C 
BRANCH  20  21
ATOM     21  C   UNL     1       5.027   4.442  16.406  0.00  0.00    +0.000 C 
BRANCH  21  22
ATOM     22  N   UNL     1       3.835   3.768  16.912  0.00  0.00    +0.000 N 
ATOM     23  C   UNL     1       3.230   4.430  17.986  0.00  0.00    +0.000 A 
ATOM     24  N   UNL     1       2.818   3.662  18.997  0.00  0.00    +0.000 NA
ATOM     25  C   UNL     1       2.241   4.285  20.051  0.00  0.00    +0.000 A 
ATOM     26  C   UNL     1       2.049   5.648  20.139  0.00  0.00    +0.000 A 
ATOM     27  C   UNL     1       2.490   6.349  19.050  0.00  0.00    +0.000 A 
ATOM     28  N   UNL     1       3.087   5.760  17.986  0.00  0.00    +0.000 NA
ATOM     29  H   UNL     1       4.003   2.827  17.252  0.00  0.00    +0.000 HD
BRANCH  27  30
ATOM     30  C   UNL     1       2.459   7.805  18.919  0.00  0.00    +0.000 A 
ATOM     31  C   UNL     1       2.864   8.514  17.793  0.00  0.00    +0.000 A 
ATOM     32  N   UNL     1       1.942   9.484  17.465  0.00  0.00    +0.000 NA
ATOM     33  C   UNL     1       1.014   9.407  18.390  0.00  0.00    +0.000 A 
ATOM     34  N   UNL     1      -0.191  10.045  18.479  0.00  0.00    +0.000 NA
ATOM     35  C   UNL     1      -0.654  10.172  19.683  0.00  0.00    +0.000 A 
ATOM     36  C   UNL     1       0.039   9.752  20.936  0.00  0.00    +0.000 A 
ATOM     37  C   UNL     1       1.066   8.905  20.755  0.00  0.00    +0.000 A 
ATOM     38  N   UNL     1       1.492   8.643  19.456  0.00  0.00    +0.000 N 
ENDBRANCH  27  30
ENDBRANCH  21  22
ENDBRANCH  20  21
ENDBRANCH   4  20
TORSDOF 7
ENDMDL
MODEL 4
REMARK VINA RESULT:      -8.7      4.900      8.743
REMARK  Name = 
REMARK  7 active torsions:
REMARK  status: ('A' for Active; 'I' for Inactive)
REMARK    1  A    between atoms: N_1  and  C_2
REMARK    2  A    between atoms: C_7  and  N_8
REMARK    3  A    between atoms: C_9  and  C_11
REMARK    4  A    between atoms: C_14  and  C_15
REMARK    5  A    between atoms: C_15  and  C_16
REMARK    6  A    between atoms: C_16  and  N_17
REMARK    7  A    between atoms: C_22  and  C_23
REMARK                            x       y       z     vdW  Elec       q    Type
REMARK                         _______ _______ _______ _____ _____    ______ ____
ROOT
ATOM      1  C   UNL     1       0.208   9.917  21.280  0.00  0.00    +0.000 A 
ATOM      2  C   UNL     1       0.100  10.533  20.028  0.00  0.00    +0.000 A 
ATOM      3  C   UNL     1       0.716   9.999  18.901  0.00  0.00    +0.000 A 
ATOM      4  C   UNL     1       1.463   8.819  18.977  0.00  0.00    +0.000 A 
ATOM      5  C   UNL     1       1.590   8.204  20.239  0.00  0.00    +0.000 A 
ATOM      6  C   UNL     1       0.967   8.748  21.387  0.00  0.00    +0.000 A 
ENDROOT
BRANCH   1   8
ATOM      7  N   UNL     1      -1.435  11.573  22.073  0.00  0.00    +0.000 N 
ATOM      8  C   UNL     1      -0.502  10.603  22.399  0.00  0.00    +0.000 C 
ATOM      9  O   UNL     1      -0.181  10.285  23.548  0.00  0.00    +0.000 OA
ATOM     10  H   UNL     1      -1.774  11.618  21.127  0.00  0.00    +0.000 HD
BRANCH   7  16
ATOM     11  C   UNL     1      -1.390  13.699  23.298  0.00  0.00    +0.000 A 
ATOM     12  C   UNL     1      -2.045  14.622  24.136  0.00  0.00    +0.000 A 
ATOM     13  C   UNL     1      -3.251  14.307  24.762  0.00  0.00    +0.000 A 
ATOM     14  C   UNL     1      -3.842  13.075  24.529  0.00  0.00    +0.000 A 
ATOM     15  C   UNL     1      -3.239  12.174  23.650  0.00  0.00    +0.000 A 
ATOM     16  C   UNL     1      -2.036  12.478  22.997  0.00  0.00    +0.000 A 
BRANCH  11  17
ATOM     17  N   UNL     1      -0.237  14.139  22.608  0.00  0.00    +0.000 N 
ATOM     18  H   UNL     1      -0.089  13.636  21.737  0.00  0.00    +0.000 HD
ATOM     19  H   UNL     1      -0.182  15.138  22.470  0.00  0.00    +0.000 HD
ENDBRANCH  11  17
ENDBRANCH   7  16
ENDBRANCH   1   8
BRANCH   4  20
ATOM     20  C   UNL     1       2.120   8.214  17.745  0.00  0.00    +0.000 C 
BRANCH  20  21
ATOM     21  C   UNL     1       3.662   8.039  17.825  0.00  0.00    +0.000 C 
BRANCH  21  22
ATOM     22  N   UNL     1       4.264   7.611  16.566  0.00  0.00    +0.000 N 
ATOM     23  C   UNL     1       4.695   6.280  16.575  0.00  0.00    +0.000 A 
ATOM     24  N   UNL     1       5.885   6.041  16.018  0.00  0.00    +0.000 NA
ATOM     25  C   UNL     1       6.325   4.762  16.027  0.00  0.00    +0.000 A 
ATOM     26  C   UNL     1       5.626   3.702  16.565  0.00  0.00    +0.000 A 
ATOM     27  C   UNL     1       4.413   4.042  17.100  0.00  0.00    +0.000 A 
ATOM     28  N   UNL     1       3.949   5.315  17.122  0.00  0.00    +0.000 NA
ATOM     29  H   UNL     1       5.082   8.145  16.295  0.00  0.00    +0.000 HD
BRANCH  27  30
ATOM     30  C   UNL     1       3.508   3.121  17.783  0.00  0.00    +0.000 A 
ATOM     31  C   UNL     1       3.714   1.752  17.919  0.00  0.00    +0.000 A 
ATOM     32  N   UNL     1       3.468   1.344  19.211  0.00  0.00    +0.000 NA
ATOM     33  C   UNL     1       3.077   2.422  19.848  0.00  0.00    +0.000 A 
ATOM     34  N   UNL     1       2.831   2.616  21.178  0.00  0.00    +0.000 NA
ATOM     35  C   UNL     1       2.008   3.580  21.447  0.00  0.00    +0.000 A 
ATOM     36  C   UNL     1       1.282   4.415  20.446  0.00  0.00    +0.000 A 
ATOM     37  C   UNL     1       1.773   4.351  19.197  0.00  0.00    +0.000 A 
ATOM     38  N   UNL     1       2.763   3.414  18.917  0.00  0.00    +0.000 N 
ENDBRANCH  27  30
ENDBRANCH  21  22
ENDBRANCH  20  21
ENDBRANCH   4  20
TORSDOF 7
ENDMDL
MODEL 5
REMARK VINA RESULT:      -8.7      0.844      1.242
REMARK  Name = 
REMARK  7 active torsions:
REMARK  status: ('A' for Active; 'I' for Inactive)
REMARK    1  A    between atoms: N_1  and  C_2
REMARK    2  A    between atoms: C_7  and  N_8
REMARK    3  A    between atoms: C_9  and  C_11
REMARK    4  A    between atoms: C_14  and  C_15
REMARK    5  A    between atoms: C_15  and  C_16
REMARK    6  A    between atoms: C_16  and  N_17
REMARK    7  A    between atoms: C_22  and  C_23
REMARK                            x       y       z     vdW  Elec       q    Type
REMARK                         _______ _______ _______ _____ _____    ______ ____
ROOT
ATOM      1  C   UNL     1       8.203   8.463  18.351  0.00  0.00    +0.000 A 
ATOM      2  C   UNL     1       7.259   8.323  17.328  0.00  0.00    +0.000 A 
ATOM      3  C   UNL     1       6.631   7.106  17.082  0.00  0.00    +0.000 A 
ATOM      4  C   UNL     1       6.917   5.976  17.855  0.00  0.00    +0.000 A 
ATOM      5  C   UNL     1       7.880   6.107  18.874  0.00  0.00    +0.000 A 
ATOM      6  C   UNL     1       8.522   7.344  19.124  0.00  0.00    +0.000 A 
ENDROOT
BRANCH   1   8
ATOM      7  N   UNL     1       9.524  10.092  19.646  0.00  0.00    +0.000 N 
ATOM      8  C   UNL     1       8.796   9.824  18.498  0.00  0.00    +0.000 C 
ATOM      9  O   UNL     1       8.564  10.639  17.599  0.00  0.00    +0.000 OA
ATOM     10  H   UNL     1       9.828   9.320  20.214  0.00  0.00    +0.000 HD
BRANCH   7  16
ATOM     11  C   UNL     1      11.124  11.945  19.474  0.00  0.00    +0.000 A 
ATOM     12  C   UNL     1      11.486  13.260  19.822  0.00  0.00    +0.000 A 
ATOM     13  C   UNL     1      10.798  13.968  20.807  0.00  0.00    +0.000 A 
ATOM     14  C   UNL     1       9.709  13.384  21.437  0.00  0.00    +0.000 A 
ATOM     15  C   UNL     1       9.296  12.105  21.058  0.00  0.00    +0.000 A 
ATOM     16  C   UNL     1       9.964  11.384  20.057  0.00  0.00    +0.000 A 
BRANCH  11  17
ATOM     17  N   UNL     1      11.793  11.343  18.384  0.00  0.00    +0.000 N 
ATOM     18  H   UNL     1      12.240  12.026  17.778  0.00  0.00    +0.000 HD
ATOM     19  H   UNL     1      12.432  10.603  18.637  0.00  0.00    +0.000 HD
ENDBRANCH  11  17
ENDBRANCH   7  16
ENDBRANCH   1   8
BRANCH   4  20
ATOM     20  C   UNL     1       6.218   4.647  17.608  0.00  0.00    +0.000 C 
BRANCH  20  21
ATOM     21  C   UNL     1       5.680   3.928  18.875  0.00  0.00    +0.000 C 
BRANCH  21  22
ATOM     22  N   UNL     1       4.381   3.292  18.675  0.00  0.00    +0.000 N 
ATOM     23  C   UNL     1       3.319   3.988  19.262  0.00  0.00    +0.000 A 
ATOM     24  N   UNL     1       2.412   3.249  19.905  0.00  0.00    +0.000 NA
ATOM     25  C   UNL     1       1.383   3.906  20.490  0.00  0.00    +0.000 A 
ATOM     26  C   UNL     1       1.214   5.273  20.458  0.00  0.00    +0.000 A 
ATOM     27  C   UNL     1       2.186   5.944  19.766  0.00  0.00    +0.000 A 
ATOM     28  N   UNL     1       3.238   5.321  19.182  0.00  0.00    +0.000 NA
ATOM     29  H   UNL     1       4.316   2.354  19.056  0.00  0.00    +0.000 HD
BRANCH  27  30
ATOM     30  C   UNL     1       2.273   7.397  19.633  0.00  0.00    +0.000 A 
ATOM     31  C   UNL     1       2.454   8.080  18.436  0.00  0.00    +0.000 A 
ATOM     32  N   UNL     1       1.584   9.144  18.340  0.00  0.00    +0.000 NA
ATOM     33  C   UNL     1       0.913   9.146  19.468  0.00  0.00    +0.000 A 
ATOM     34  N   UNL     1      -0.160   9.901  19.849  0.00  0.00    +0.000 NA
ATOM     35  C   UNL     1      -0.293  10.054  21.130  0.00  0.00    +0.000 A 
ATOM     36  C   UNL     1       0.644   9.545  22.173  0.00  0.00    +0.000 A 
ATOM     37  C   UNL     1       1.501   8.602  21.749  0.00  0.00    +0.000 A 
ATOM     38  N   UNL     1       1.561   8.320  20.387  0.00  0.00    +0.000 N 
ENDBRANCH  27  30
ENDBRANCH  21  22
ENDBRANCH  20  21
ENDBRANCH   4  20
TORSDOF 7
ENDMDL
MODEL 6
REMARK VINA RESULT:      -8.6      4.869     10.220
REMARK  Name = 
REMARK  7 active torsions:
REMARK  status: ('A' for Active; 'I' for Inactive)
REMARK    1  A    between atoms: N_1  and  C_2
REMARK    2  A    between atoms: C_7  and  N_8
REMARK    3  A    between atoms: C_9  and  C_11
REMARK    4  A    between atoms: C_14  and  C_15
REMARK    5  A    between atoms: C_15  and  C_16
REMARK    6  A    between atoms: C_16  and  N_17
REMARK    7  A    between atoms: C_22  and  C_23
REMARK                            x       y       z     vdW  Elec       q    Type
REMARK                         _______ _______ _______ _____ _____    ______ ____
ROOT
ATOM      1  C   UNL     1      -1.009  11.252  22.288  0.00  0.00    +0.000 A 
ATOM      2  C   UNL     1      -0.839  10.102  23.065  0.00  0.00    +0.000 A 
ATOM      3  C   UNL     1       0.060   9.105  22.699  0.00  0.00    +0.000 A 
ATOM      4  C   UNL     1       0.833   9.220  21.539  0.00  0.00    +0.000 A 
ATOM      5  C   UNL     1       0.652  10.369  20.743  0.00  0.00    +0.000 A 
ATOM      6  C   UNL     1      -0.264  11.382  21.113  0.00  0.00    +0.000 A 
ENDROOT
BRANCH   1   8
ATOM      7  N   UNL     1      -3.289  12.188  22.277  0.00  0.00    +0.000 N 
ATOM      8  C   UNL     1      -2.009  12.234  22.802  0.00  0.00    +0.000 C 
ATOM      9  O   UNL     1      -1.614  13.053  23.639  0.00  0.00    +0.000 OA
ATOM     10  H   UNL     1      -3.569  11.371  21.761  0.00  0.00    +0.000 HD
BRANCH   7  16
ATOM     11  C   UNL     1      -5.063  13.162  23.665  0.00  0.00    +0.000 A 
ATOM     12  C   UNL     1      -5.984  14.204  23.888  0.00  0.00    +0.000 A 
ATOM     13  C   UNL     1      -6.235  15.173  22.918  0.00  0.00    +0.000 A 
ATOM     14  C   UNL     1      -5.539  15.139  21.719  0.00  0.00    +0.000 A 
ATOM     15  C   UNL     1      -4.576  14.152  21.507  0.00  0.00    +0.000 A 
ATOM     16  C   UNL     1      -4.296  13.178  22.478  0.00  0.00    +0.000 A 
BRANCH  11  17
ATOM     17  N   UNL     1      -4.778  12.292  24.742  0.00  0.00    +0.000 N 
ATOM     18  H   UNL     1      -5.620  11.935  25.186  0.00  0.00    +0.000 HD
ATOM     19  H   UNL     1      -4.133  11.547  24.524  0.00  0.00    +0.000 HD
ENDBRANCH  11  17
ENDBRANCH   7  16
ENDBRANCH   1   8
BRANCH   4  20
ATOM     20  C   UNL     1       1.836   8.147  21.142  0.00  0.00    +0.000 C 
BRANCH  20  21
ATOM     21  C   UNL     1       1.232   6.874  20.487  0.00  0.00    +0.000 C 
BRANCH  21  22
ATOM     22  N   UNL     1       1.526   5.648  21.221  0.00  0.00    +0.000 N 
ATOM     23  C   UNL     1       2.451   4.817  20.580  0.00  0.00    +0.000 A 
ATOM     24  N   UNL     1       2.172   3.512  20.580  0.00  0.00    +0.000 NA
ATOM     25  C   UNL     1       3.050   2.693  19.954  0.00  0.00    +0.000 A 
ATOM     26  C   UNL     1       4.202   3.120  19.329  0.00  0.00    +0.000 A 
ATOM     27  C   UNL     1       4.410   4.471  19.394  0.00  0.00    +0.000 A 
ATOM     28  N   UNL     1       3.544   5.321  19.998  0.00  0.00    +0.000 NA
ATOM     29  H   UNL     1       0.717   5.057  21.381  0.00  0.00    +0.000 HD
BRANCH  27  30
ATOM     30  C   UNL     1       5.520   5.182  18.763  0.00  0.00    +0.000 A 
ATOM     31  C   UNL     1       6.782   5.349  19.322  0.00  0.00    +0.000 A 
ATOM     32  N   UNL     1       7.768   5.076  18.399  0.00  0.00    +0.000 NA
ATOM     33  C   UNL     1       7.134   4.791  17.286  0.00  0.00    +0.000 A 
ATOM     34  N   UNL     1       7.615   4.324  16.096  0.00  0.00    +0.000 NA
ATOM     35  C   UNL     1       6.884   4.606  15.063  0.00  0.00    +0.000 A 
ATOM     36  C   UNL     1       5.641   5.432  15.070  0.00  0.00    +0.000 A 
ATOM     37  C   UNL     1       5.095   5.618  16.282  0.00  0.00    +0.000 A 
ATOM     38  N   UNL     1       5.802   5.194  17.404  0.00  0.00    +0.000 N 
ENDBRANCH  27  30
ENDBRANCH  21  22
ENDBRANCH  20  21
ENDBRANCH   4  20
TORSDOF 7
ENDMDL
MODEL 7
REMARK VINA RESULT:      -8.6      0.807      1.363
REMARK  Name = 
REMARK  7 active torsions:
REMARK  status: ('A' for Active; 'I' for Inactive)
REMARK    1  A    between atoms: N_1  and  C_2
REMARK    2  A    between atoms: C_7  and  N_8
REMARK    3  A    between atoms: C_9  and  C_11
REMARK    4  A    between atoms: C_14  and  C_15
REMARK    5  A    between atoms: C_15  and  C_16
REMARK    6  A    between atoms: C_16  and  N_17
REMARK    7  A    between atoms: C_22  and  C_23
REMARK                            x       y       z     vdW  Elec       q    Type
REMARK                         _______ _______ _______ _____ _____    ______ ____
ROOT
ATOM      1  C   UNL     1       7.871   8.463  17.948  0.00  0.00    +0.000 A 
ATOM      2  C   UNL     1       8.383   7.474  18.794  0.00  0.00    +0.000 A 
ATOM      3  C   UNL     1       7.870   6.181  18.794  0.00  0.00    +0.000 A 
ATOM      4  C   UNL     1       6.824   5.820  17.938  0.00  0.00    +0.000 A 
ATOM      5  C   UNL     1       6.293   6.816  17.096  0.00  0.00    +0.000 A 
ATOM      6  C   UNL     1       6.811   8.133  17.099  0.00  0.00    +0.000 A 
ENDROOT
BRANCH   1   8
ATOM      7  N   UNL     1       9.604   9.929  18.907  0.00  0.00    +0.000 N 
ATOM      8  C   UNL     1       8.516   9.804  18.059  0.00  0.00    +0.000 C 
ATOM      9  O   UNL     1       8.010  10.728  17.414  0.00  0.00    +0.000 OA
ATOM     10  H   UNL     1      10.065   9.093  19.226  0.00  0.00    +0.000 HD
BRANCH   7  16
ATOM     11  C   UNL     1       9.858  11.725  20.560  0.00  0.00    +0.000 A 
ATOM     12  C   UNL     1      10.526  12.891  20.979  0.00  0.00    +0.000 A 
ATOM     13  C   UNL     1      11.417  13.560  20.142  0.00  0.00    +0.000 A 
ATOM     14  C   UNL     1      11.686  13.051  18.880  0.00  0.00    +0.000 A 
ATOM     15  C   UNL     1      11.083  11.860  18.473  0.00  0.00    +0.000 A 
ATOM     16  C   UNL     1      10.196  11.162  19.308  0.00  0.00    +0.000 A 
BRANCH  11  17
ATOM     17  N   UNL     1       9.064  11.042  21.510  0.00  0.00    +0.000 N 
ATOM     18  H   UNL     1       9.552  10.254  21.930  0.00  0.00    +0.000 HD
ATOM     19  H   UNL     1       8.646  11.632  22.214  0.00  0.00    +0.000 HD
ENDBRANCH  11  17
ENDBRANCH   7  16
ENDBRANCH   1   8
BRANCH   4  20
ATOM     20  C   UNL     1       6.273   4.401  17.912  0.00  0.00    +0.000 C 
BRANCH  20  21
ATOM     21  C   UNL     1       5.677   3.889  19.252  0.00  0.00    +0.000 C 
BRANCH  21  22
ATOM     22  N   UNL     1       4.362   3.272  19.105  0.00  0.00    +0.000 N 
ATOM     23  C   UNL     1       3.307   4.096  19.514  0.00  0.00    +0.000 A 
ATOM     24  N   UNL     1       2.346   3.511  20.232  0.00  0.00    +0.000 NA
ATOM     25  C   UNL     1       1.323   4.293  20.648  0.00  0.00    +0.000 A 
ATOM     26  C   UNL     1       1.212   5.639  20.373  0.00  0.00    +0.000 A 
ATOM     27  C   UNL     1       2.237   6.146  19.621  0.00  0.00    +0.000 A 
ATOM     28  N   UNL     1       3.284   5.396  19.202  0.00  0.00    +0.000 NA
ATOM     29  H   UNL     1       4.243   2.418  19.638  0.00  0.00    +0.000 HD
BRANCH  27  30
ATOM     30  C   UNL     1       2.389   7.550  19.245  0.00  0.00    +0.000 A 
ATOM     31  C   UNL     1       2.908   8.002  18.036  0.00  0.00    +0.000 A 
ATOM     32  N   UNL     1       2.122   9.000  17.505  0.00  0.00    +0.000 NA
ATOM     33  C   UNL     1       1.166   9.194  18.384  0.00  0.00    +0.000 A 
ATOM     34  N   UNL     1       0.046   9.972  18.306  0.00  0.00    +0.000 NA
ATOM     35  C   UNL     1      -0.431  10.359  19.447  0.00  0.00    +0.000 A 
ATOM     36  C   UNL     1       0.170  10.085  20.785  0.00  0.00    +0.000 A 
ATOM     37  C   UNL     1       1.090   9.107  20.799  0.00  0.00    +0.000 A 
ATOM     38  N   UNL     1       1.517   8.576  19.585  0.00  0.00    +0.000 N 
ENDBRANCH  27  30
ENDBRANCH  21  22
ENDBRANCH  20  21
ENDBRANCH   4  20
TORSDOF 7
ENDMDL
MODEL 8
REMARK VINA RESULT:      -8.6      4.607      9.169
REMARK  Name = 
REMARK  7 active torsions:
REMARK  status: ('A' for Active; 'I' for Inactive)
REMARK    1  A    between atoms: N_1  and  C_2
REMARK    2  A    between atoms: C_7  and  N_8
REMARK    3  A    between atoms: C_9  and  C_11
REMARK    4  A    between atoms: C_14  and  C_15
REMARK    5  A    between atoms: C_15  and  C_16
REMARK    6  A    between atoms: C_16  and  N_17
REMARK    7  A    between atoms: C_22  and  C_23
REMARK                            x       y       z     vdW  Elec       q    Type
REMARK                         _______ _______ _______ _____ _____    ______ ____
ROOT
ATOM      1  C   UNL     1      -0.203  10.610  21.354  0.00  0.00    +0.000 A 
ATOM      2  C   UNL     1      -0.180  11.283  20.127  0.00  0.00    +0.000 A 
ATOM      3  C   UNL     1       0.473  10.752  19.020  0.00  0.00    +0.000 A 
ATOM      4  C   UNL     1       1.128   9.518  19.092  0.00  0.00    +0.000 A 
ATOM      5  C   UNL     1       1.123   8.845  20.329  0.00  0.00    +0.000 A 
ATOM      6  C   UNL     1       0.462   9.386  21.457  0.00  0.00    +0.000 A 
ENDROOT
BRANCH   1   8
ATOM      7  N   UNL     1      -1.561  12.502  22.160  0.00  0.00    +0.000 N 
ATOM      8  C   UNL     1      -0.939  11.300  22.453  0.00  0.00    +0.000 C 
ATOM      9  O   UNL     1      -0.912  10.769  23.569  0.00  0.00    +0.000 OA
ATOM     10  H   UNL     1      -1.702  12.749  21.195  0.00  0.00    +0.000 HD
BRANCH   7  16
ATOM     11  C   UNL     1      -3.504  13.420  23.345  0.00  0.00    +0.000 A 
ATOM     12  C   UNL     1      -4.014  14.244  24.367  0.00  0.00    +0.000 A 
ATOM     13  C   UNL     1      -3.190  15.119  25.075  0.00  0.00    +0.000 A 
ATOM     14  C   UNL     1      -1.832  15.157  24.797  0.00  0.00    +0.000 A 
ATOM     15  C   UNL     1      -1.299  14.301  23.833  0.00  0.00    +0.000 A 
ATOM     16  C   UNL     1      -2.108  13.401  23.122  0.00  0.00    +0.000 A 
BRANCH  11  17
ATOM     17  N   UNL     1      -4.380  12.478  22.760  0.00  0.00    +0.000 N 
ATOM     18  H   UNL     1      -5.189  12.284  23.344  0.00  0.00    +0.000 HD
ATOM     19  H   UNL     1      -4.653  12.687  21.811  0.00  0.00    +0.000 HD
ENDBRANCH  11  17
ENDBRANCH   7  16
ENDBRANCH   1   8
BRANCH   4  20
ATOM     20  C   UNL     1       1.825   8.917  17.880  0.00  0.00    +0.000 C 
BRANCH  20  21
ATOM     21  C   UNL     1       2.603   7.598  18.138  0.00  0.00    +0.000 C 
BRANCH  21  22
ATOM     22  N   UNL     1       3.696   7.374  17.198  0.00  0.00    +0.000 N 
ATOM     23  C   UNL     1       4.591   6.378  17.605  0.00  0.00    +0.000 A 
ATOM     24  N   UNL     1       5.888   6.645  17.434  0.00  0.00    +0.000 NA
ATOM     25  C   UNL     1       6.771   5.699  17.832  0.00  0.00    +0.000 A 
ATOM     26  C   UNL     1       6.415   4.491  18.393  0.00  0.00    +0.000 A 
ATOM     27  C   UNL     1       5.065   4.303  18.515  0.00  0.00    +0.000 A 
ATOM     28  N   UNL     1       4.155   5.234  18.142  0.00  0.00    +0.000 NA
ATOM     29  H   UNL     1       4.276   8.190  17.034  0.00  0.00    +0.000 HD
BRANCH  27  30
ATOM     30  C   UNL     1       4.431   3.138  19.130  0.00  0.00    +0.000 A 
ATOM     31  C   UNL     1       5.079   2.210  19.938  0.00  0.00    +0.000 A 
ATOM     32  N   UNL     1       4.337   1.937  21.066  0.00  0.00    +0.000 NA
ATOM     33  C   UNL     1       3.238   2.643  20.938  0.00  0.00    +0.000 A 
ATOM     34  N   UNL     1       2.218   2.848  21.824  0.00  0.00    +0.000 NA
ATOM     35  C   UNL     1       1.079   3.148  21.285  0.00  0.00    +0.000 A 
ATOM     36  C   UNL     1       0.793   3.215  19.822  0.00  0.00    +0.000 A 
ATOM     37  C   UNL     1       1.882   3.272  19.037  0.00  0.00    +0.000 A 
ATOM     38  N   UNL     1       3.133   3.091  19.620  0.00  0.00    +0.000 N 
ENDBRANCH  27  30
ENDBRANCH  21  22
ENDBRANCH  20  21
ENDBRANCH   4  20
TORSDOF 7
ENDMDL
MODEL 9
REMARK VINA RESULT:      -8.5      5.126      8.690
REMARK  Name = 
REMARK  7 active torsions:
REMARK  status: ('A' for Active; 'I' for Inactive)
REMARK    1  A    between atoms: N_1  and  C_2
REMARK    2  A    between atoms: C_7  and  N_8
REMARK    3  A    between atoms: C_9  and  C_11
REMARK    4  A    between atoms: C_14  and  C_15
REMARK    5  A    between atoms: C_15  and  C_16
REMARK    6  A    between atoms: C_16  and  N_17
REMARK    7  A    between atoms: C_22  and  C_23
REMARK                            x       y       z     vdW  Elec       q    Type
REMARK                         _______ _______ _______ _____ _____    ______ ____
ROOT
ATOM      1  C   UNL     1       2.243   7.450  18.792  0.00  0.00    +0.000 A 
ATOM      2  C   UNL     1       1.938   8.586  18.034  0.00  0.00    +0.000 A 
ATOM      3  C   UNL     1       1.326   9.697  18.605  0.00  0.00    +0.000 A 
ATOM      4  C   UNL     1       0.997   9.721  19.965  0.00  0.00    +0.000 A 
ATOM      5  C   UNL     1       1.286   8.573  20.729  0.00  0.00    +0.000 A 
ATOM      6  C   UNL     1       1.906   7.441  20.147  0.00  0.00    +0.000 A 
ENDROOT
BRANCH   1   8
ATOM      7  N   UNL     1       4.202   6.517  17.623  0.00  0.00    +0.000 N 
ATOM      8  C   UNL     1       2.896   6.335  18.046  0.00  0.00    +0.000 C 
ATOM      9  O   UNL     1       2.210   5.332  17.820  0.00  0.00    +0.000 OA
ATOM     10  H   UNL     1       4.738   7.269  18.024  0.00  0.00    +0.000 HD
BRANCH   7  16
ATOM     11  C   UNL     1       5.277   4.368  17.126  0.00  0.00    +0.000 A 
ATOM     12  C   UNL     1       5.876   3.509  16.184  0.00  0.00    +0.000 A 
ATOM     13  C   UNL     1       6.207   3.951  14.904  0.00  0.00    +0.000 A 
ATOM     14  C   UNL     1       5.909   5.253  14.530  0.00  0.00    +0.000 A 
ATOM     15  C   UNL     1       5.256   6.098  15.428  0.00  0.00    +0.000 A 
ATOM     16  C   UNL     1       4.898   5.667  16.715  0.00  0.00    +0.000 A 
BRANCH  11  17
ATOM     17  N   UNL     1       4.864   3.810  18.358  0.00  0.00    +0.000 N 
ATOM     18  H   UNL     1       5.270   4.290  19.157  0.00  0.00    +0.000 HD
ATOM     19  H   UNL     1       3.865   3.704  18.460  0.00  0.00    +0.000 HD
ENDBRANCH  11  17
ENDBRANCH   7  16
ENDBRANCH   1   8
BRANCH   4  20
ATOM     20  C   UNL     1       0.350  10.940  20.604  0.00  0.00    +0.000 C 
BRANCH  20  21
ATOM     21  C   UNL     1      -1.022  11.361  20.009  0.00  0.00    +0.000 C 
BRANCH  21  22
ATOM     22  N   UNL     1      -0.946  11.780  18.613  0.00  0.00    +0.000 N 
ATOM     23  C   UNL     1      -2.119  11.537  17.890  0.00  0.00    +0.000 A 
ATOM     24  N   UNL     1      -1.963  11.040  16.661  0.00  0.00    +0.000 NA
ATOM     25  C   UNL     1      -3.087  10.787  15.951  0.00  0.00    +0.000 A 
ATOM     26  C   UNL     1      -4.366  11.016  16.411  0.00  0.00    +0.000 A 
ATOM     27  C   UNL     1      -4.425  11.539  17.674  0.00  0.00    +0.000 A 
ATOM     28  N   UNL     1      -3.321  11.789  18.420  0.00  0.00    +0.000 NA
ATOM     29  H   UNL     1      -0.216  11.318  18.081  0.00  0.00    +0.000 HD
BRANCH  27  30
ATOM     30  C   UNL     1      -5.654  11.815  18.414  0.00  0.00    +0.000 A 
ATOM     31  C   UNL     1      -6.749  10.961  18.490  0.00  0.00    +0.000 A 
ATOM     32  N   UNL     1      -7.198  10.852  19.788  0.00  0.00    +0.000 NA
ATOM     33  C   UNL     1      -6.431  11.652  20.490  0.00  0.00    +0.000 A 
ATOM     34  N   UNL     1      -6.352  11.831  21.841  0.00  0.00    +0.000 NA
ATOM     35  C   UNL     1      -5.902  12.988  22.214  0.00  0.00    +0.000 A 
ATOM     36  C   UNL     1      -5.544  14.120  21.311  0.00  0.00    +0.000 A 
ATOM     37  C   UNL     1      -5.388  13.783  20.020  0.00  0.00    +0.000 A 
ATOM     38  N   UNL     1      -5.735  12.495  19.621  0.00  0.00    +0.000 N 
ENDBRANCH  27  30
ENDBRANCH  21  22
ENDBRANCH  20  21
ENDBRANCH   4  20
TORSDOF 7
ENDMDL
