MODEL 1
REMARK VINA RESULT:      -7.4      0.000      0.000
REMARK  Name = 
REMARK  8 active torsions:
REMARK  status: ('A' for Active; 'I' for Inactive)
REMARK    1  A    between atoms: C_1  and  O_2
REMARK    2  A    between atoms: O_2  and  C_3
REMARK    3  A    between atoms: C_9  and  S_10
REMARK    4  A    between atoms: S_10  and  N_13
REMARK    5  A    between atoms: N_13  and  C_14
REMARK    6  A    between atoms: C_16  and  N_17
REMARK    7  A    between atoms: C_19  and  C_20
REMARK    8  A    between atoms: C_22  and  C_23
REMARK                            x       y       z     vdW  Elec       q    Type
REMARK                         _______ _______ _______ _____ _____    ______ ____
ROOT
ATOM      1  C   UNL     1       0.593   9.215  19.840  0.00  0.00    +0.000 A 
ATOM      2  C   UNL     1       1.167   8.003  20.212  0.00  0.00    +0.000 A 
ATOM      3  C   UNL     1       2.194   7.395  19.467  0.00  0.00    +0.000 A 
ATOM      4  C   UNL     1       2.611   8.059  18.296  0.00  0.00    +0.000 A 
ATOM      5  C   UNL     1       2.046   9.269  17.901  0.00  0.00    +0.000 A 
ATOM      6  C   UNL     1       1.053   9.841  18.680  0.00  0.00    +0.000 A 
ATOM      7  F   UNL     1       0.552  11.014  18.287  0.00  0.00    +0.000 F 
ENDROOT
BRANCH   3   8
ATOM      8  N   UNL     1       2.781   6.212  19.864  0.00  0.00    +0.000 N 
ATOM      9  C   UNL     1       2.094   5.276  20.768  0.00  0.00    +0.000 C 
ATOM     10  C   UNL     1       1.932   3.893  20.086  0.00  0.00    +0.000 C 
ATOM     11  C   UNL     1       1.286   2.906  21.052  0.00  0.00    +0.000 C 
ATOM     12  N   UNL     1       3.220   3.335  19.622  0.00  0.00    +0.000 NA
ATOM     13  C   UNL     1       3.867   4.285  18.688  0.00  0.00    +0.000 C 
ATOM     14  C   UNL     1       5.223   3.704  18.287  0.00  0.00    +0.000 C 
ATOM     15  C   UNL     1       4.046   5.703  19.298  0.00  0.00    +0.000 C 
ATOM     16  H   UNL     1       3.052   2.454  19.138  0.00  0.00    +0.000 HD
ENDBRANCH   3   8
BRANCH   1  17
ATOM     17  N   UNL     1      -0.425   9.814  20.623  0.00  0.00    +0.000 N 
ATOM     18  H   UNL     1      -1.381   9.449  20.631  0.00  0.00    +0.000 HD
BRANCH  17  19
ATOM     19  S   UNL     1      -0.042  10.933  21.808  0.00  0.00    +0.000 S 
ATOM     20  O   UNL     1       1.005  11.794  21.273  0.00  0.00    +0.000 OA
ATOM     21  O   UNL     1       0.186  10.227  23.037  0.00  0.00    +0.000 OA
BRANCH  19  28
ATOM     22  C   UNL     1      -2.238  12.467  20.968  0.00  0.00    +0.000 A 
ATOM     23  C   UNL     1      -3.375  13.231  21.268  0.00  0.00    +0.000 A 
ATOM     24  C   UNL     1      -3.762  13.450  22.591  0.00  0.00    +0.000 A 
ATOM     25 BR   UNL     1      -5.324  14.447  22.958  0.00  0.00    +0.000 Br
ATOM     26  C   UNL     1      -3.029  12.913  23.641  0.00  0.00    +0.000 A 
ATOM     27  C   UNL     1      -1.891  12.167  23.360  0.00  0.00    +0.000 A 
ATOM     28  C   UNL     1      -1.488  11.945  22.035  0.00  0.00    +0.000 A 
BRANCH  22  30
ATOM     29  C   UNL     1      -2.915  11.809  18.795  0.00  0.00    +0.000 C 
ATOM     30  O   UNL     1      -1.862  12.182  19.684  0.00  0.00    +0.000 OA
ENDBRANCH  22  30
ENDBRANCH  19  28
ENDBRANCH  17  19
ENDBRANCH   1  17
TORSDOF 5
ENDMDL
MODEL 2
REMARK VINA RESULT:      -7.4      5.406      8.911
REMARK  Name = 
REMARK  8 active torsions:
REMARK  status: ('A' for Active; 'I' for Inactive)
REMARK    1  A    between atoms: C_1  and  O_2
REMARK    2  A    between atoms: O_2  and  C_3
REMARK    3  A    between atoms: C_9  and  S_10
REMARK    4  A    between atoms: S_10  and  N_13
REMARK    5  A    between atoms: N_13  and  C_14
REMARK    6  A    between atoms: C_16  and  N_17
REMARK    7  A    between atoms: C_19  and  C_20
REMARK    8  A    between atoms: C_22  and  C_23
REMARK                            x       y       z     vdW  Elec       q    Type
REMARK                         _______ _______ _______ _____ _____    ______ ____
ROOT
ATOM      1  C   UNL     1       3.061   5.041  18.690  0.00  0.00    +0.000 A 
ATOM      2  C   UNL     1       2.751   6.362  19.001  0.00  0.00    +0.000 A 
ATOM      3  C   UNL     1       1.937   6.707  20.095  0.00  0.00    +0.000 A 
ATOM      4  C   UNL     1       1.418   5.646  20.864  0.00  0.00    +0.000 A 
ATOM      5  C   UNL     1       1.710   4.317  20.567  0.00  0.00    +0.000 A 
ATOM      6  C   UNL     1       2.536   4.027  19.492  0.00  0.00    +0.000 A 
ATOM      7  F   UNL     1       2.818   2.745  19.252  0.00  0.00    +0.000 F 
ENDROOT
BRANCH   3   8
ATOM      8  N   UNL     1       1.664   8.020  20.417  0.00  0.00    +0.000 N 
ATOM      9  C   UNL     1       1.518   9.053  19.379  0.00  0.00    +0.000 C 
ATOM     10  C   UNL     1       0.115   9.708  19.468  0.00  0.00    +0.000 C 
ATOM     11  C   UNL     1      -0.005  10.827  18.438  0.00  0.00    +0.000 C 
ATOM     12  N   UNL     1      -0.170  10.259  20.809  0.00  0.00    +0.000 NA
ATOM     13  C   UNL     1      -0.048   9.186  21.824  0.00  0.00    +0.000 C 
ATOM     14  C   UNL     1      -0.282   9.810  23.200  0.00  0.00    +0.000 C 
ATOM     15  C   UNL     1       1.329   8.470  21.782  0.00  0.00    +0.000 C 
ATOM     16  H   UNL     1      -1.118  10.629  20.827  0.00  0.00    +0.000 HD
ENDBRANCH   3   8
BRANCH   1  17
ATOM     17  N   UNL     1       3.902   4.726  17.593  0.00  0.00    +0.000 N 
ATOM     18  H   UNL     1       3.624   4.924  16.629  0.00  0.00    +0.000 HD
BRANCH  17  19
ATOM     19  S   UNL     1       5.507   4.318  17.840  0.00  0.00    +0.000 S 
ATOM     20  O   UNL     1       5.955   3.580  16.665  0.00  0.00    +0.000 OA
ATOM     21  O   UNL     1       5.625   3.715  19.138  0.00  0.00    +0.000 OA
BRANCH  19  28
ATOM     22  C   UNL     1       6.080   6.963  17.094  0.00  0.00    +0.000 A 
ATOM     23  C   UNL     1       6.855   8.124  17.226  0.00  0.00    +0.000 A 
ATOM     24  C   UNL     1       7.921   8.175  18.125  0.00  0.00    +0.000 A 
ATOM     25 BR   UNL     1       8.918   9.769  18.310  0.00  0.00    +0.000 Br
ATOM     26  C   UNL     1       8.237   7.075  18.912  0.00  0.00    +0.000 A 
ATOM     27  C   UNL     1       7.488   5.912  18.781  0.00  0.00    +0.000 A 
ATOM     28  C   UNL     1       6.418   5.846  17.877  0.00  0.00    +0.000 A 
BRANCH  22  30
ATOM     29  C   UNL     1       5.260   6.530  14.913  0.00  0.00    +0.000 C 
ATOM     30  O   UNL     1       4.992   6.896  16.268  0.00  0.00    +0.000 OA
ENDBRANCH  22  30
ENDBRANCH  19  28
ENDBRANCH  17  19
ENDBRANCH   1  17
TORSDOF 5
ENDMDL
MODEL 3
REMARK VINA RESULT:      -7.3      1.024      1.155
REMARK  Name = 
REMARK  8 active torsions:
REMARK  status: ('A' for Active; 'I' for Inactive)
REMARK    1  A    between atoms: C_1  and  O_2
REMARK    2  A    between atoms: O_2  and  C_3
REMARK    3  A    between atoms: C_9  and  S_10
REMARK    4  A    between atoms: S_10  and  N_13
REMARK    5  A    between atoms: N_13  and  C_14
REMARK    6  A    between atoms: C_16  and  N_17
REMARK    7  A    between atoms: C_19  and  C_20
REMARK    8  A    between atoms: C_22  and  C_23
REMARK                            x       y       z     vdW  Elec       q    Type
REMARK                         _______ _______ _______ _____ _____    ______ ____
ROOT
ATOM      1  C   UNL     1       1.510   9.194  20.024  0.00  0.00    +0.000 A 
ATOM      2  C   UNL     1       1.937   7.905  20.330  0.00  0.00    +0.000 A 
ATOM      3  C   UNL     1       2.343   6.991  19.340  0.00  0.00    +0.000 A 
ATOM      4  C   UNL     1       2.277   7.428  18.002  0.00  0.00    +0.000 A 
ATOM      5  C   UNL     1       1.846   8.711  17.673  0.00  0.00    +0.000 A 
ATOM      6  C   UNL     1       1.478   9.585  18.684  0.00  0.00    +0.000 A 
ATOM      7  F   UNL     1       1.096  10.815  18.336  0.00  0.00    +0.000 F 
ENDROOT
BRANCH   3   8
ATOM      8  N   UNL     1       2.799   5.729  19.655  0.00  0.00    +0.000 N 
ATOM      9  C   UNL     1       2.313   5.008  20.843  0.00  0.00    +0.000 C 
ATOM     10  C   UNL     1       1.664   3.663  20.427  0.00  0.00    +0.000 C 
ATOM     11  C   UNL     1       1.228   2.888  21.666  0.00  0.00    +0.000 C 
ATOM     12  N   UNL     1       2.574   2.817  19.628  0.00  0.00    +0.000 NA
ATOM     13  C   UNL     1       3.015   3.558  18.424  0.00  0.00    +0.000 C 
ATOM     14  C   UNL     1       4.007   2.677  17.664  0.00  0.00    +0.000 C 
ATOM     15  C   UNL     1       3.662   4.929  18.763  0.00  0.00    +0.000 C 
ATOM     16  H   UNL     1       2.084   1.972  19.339  0.00  0.00    +0.000 HD
ENDBRANCH   3   8
BRANCH   1  17
ATOM     17  N   UNL     1       1.128  10.100  21.045  0.00  0.00    +0.000 N 
ATOM     18  H   UNL     1       1.442  11.073  21.044  0.00  0.00    +0.000 HD
BRANCH  17  19
ATOM     19  S   UNL     1      -0.105   9.714  22.110  0.00  0.00    +0.000 S 
ATOM     20  O   UNL     1       0.472   9.664  23.446  0.00  0.00    +0.000 OA
ATOM     21  O   UNL     1      -0.798   8.564  21.598  0.00  0.00    +0.000 OA
BRANCH  19  28
ATOM     22  C   UNL     1      -1.726  11.655  20.894  0.00  0.00    +0.000 A 
ATOM     23  C   UNL     1      -2.644  12.712  20.993  0.00  0.00    +0.000 A 
ATOM     24  C   UNL     1      -3.080  13.165  22.239  0.00  0.00    +0.000 A 
ATOM     25 BR   UNL     1      -4.349  14.562  22.336  0.00  0.00    +0.000 Br
ATOM     26  C   UNL     1      -2.618  12.577  23.408  0.00  0.00    +0.000 A 
ATOM     27  C   UNL     1      -1.698  11.540  23.326  0.00  0.00    +0.000 A 
ATOM     28  C   UNL     1      -1.245  11.079  22.081  0.00  0.00    +0.000 A 
BRANCH  22  30
ATOM     29  C   UNL     1      -2.197  11.381  18.587  0.00  0.00    +0.000 C 
ATOM     30  O   UNL     1      -1.321  11.146  19.691  0.00  0.00    +0.000 OA
ENDBRANCH  22  30
ENDBRANCH  19  28
ENDBRANCH  17  19
ENDBRANCH   1  17
TORSDOF 5
ENDMDL
MODEL 4
REMARK VINA RESULT:      -7.2      5.508      9.679
REMARK  Name = 
REMARK  8 active torsions:
REMARK  status: ('A' for Active; 'I' for Inactive)
REMARK    1  A    between atoms: C_1  and  O_2
REMARK    2  A    between atoms: O_2  and  C_3
REMARK    3  A    between atoms: C_9  and  S_10
REMARK    4  A    between atoms: S_10  and  N_13
REMARK    5  A    between atoms: N_13  and  C_14
REMARK    6  A    between atoms: C_16  and  N_17
REMARK    7  A    between atoms: C_19  and  C_20
REMARK    8  A    between atoms: C_22  and  C_23
REMARK                            x       y       z     vdW  Elec       q    Type
REMARK                         _______ _______ _______ _____ _____    ______ ____
ROOT
ATOM      1  C   UNL     1       2.376   6.222  19.106  0.00  0.00    +0.000 A 
ATOM      2  C   UNL     1       2.085   7.393  18.411  0.00  0.00    +0.000 A 
ATOM      3  C   UNL     1       1.506   8.514  19.033  0.00  0.00    +0.000 A 
ATOM      4  C   UNL     1       1.202   8.397  20.404  0.00  0.00    +0.000 A 
ATOM      5  C   UNL     1       1.477   7.232  21.117  0.00  0.00    +0.000 A 
ATOM      6  C   UNL     1       2.071   6.162  20.467  0.00  0.00    +0.000 A 
ATOM      7  F   UNL     1       2.346   5.072  21.185  0.00  0.00    +0.000 F 
ENDROOT
BRANCH   3   8
ATOM      8  N   UNL     1       1.255   9.682  18.346  0.00  0.00    +0.000 N 
ATOM      9  C   UNL     1      -0.109  10.059  17.939  0.00  0.00    +0.000 C 
ATOM     10  C   UNL     1      -0.494  11.428  18.556  0.00  0.00    +0.000 C 
ATOM     11  C   UNL     1      -1.879  11.848  18.073  0.00  0.00    +0.000 C 
ATOM     12  N   UNL     1       0.473  12.494  18.222  0.00  0.00    +0.000 NA
ATOM     13  C   UNL     1       1.826  12.098  18.677  0.00  0.00    +0.000 C 
ATOM     14  C   UNL     1       2.806  13.193  18.252  0.00  0.00    +0.000 C 
ATOM     15  C   UNL     1       2.275  10.723  18.111  0.00  0.00    +0.000 C 
ATOM     16  H   UNL     1       0.202  13.355  18.693  0.00  0.00    +0.000 HD
ENDBRANCH   3   8
BRANCH   1  17
ATOM     17  N   UNL     1       2.981   5.117  18.457  0.00  0.00    +0.000 N 
ATOM     18  H   UNL     1       2.568   4.694  17.622  0.00  0.00    +0.000 HD
BRANCH  17  19
ATOM     19  S   UNL     1       4.549   4.664  18.827  0.00  0.00    +0.000 S 
ATOM     20  O   UNL     1       4.517   3.260  19.216  0.00  0.00    +0.000 OA
ATOM     21  O   UNL     1       5.095   5.634  19.735  0.00  0.00    +0.000 OA
BRANCH  19  28
ATOM     22  C   UNL     1       6.879   4.678  17.263  0.00  0.00    +0.000 A 
ATOM     23  C   UNL     1       7.503   4.748  16.008  0.00  0.00    +0.000 A 
ATOM     24  C   UNL     1       6.750   4.882  14.841  0.00  0.00    +0.000 A 
ATOM     25 BR   UNL     1       7.619   4.928  13.164  0.00  0.00    +0.000 Br
ATOM     26  C   UNL     1       5.364   4.948  14.896  0.00  0.00    +0.000 A 
ATOM     27  C   UNL     1       4.733   4.897  16.132  0.00  0.00    +0.000 A 
ATOM     28  C   UNL     1       5.478   4.768  17.314  0.00  0.00    +0.000 A 
BRANCH  22  30
ATOM     29  C   UNL     1       8.108   5.665  19.032  0.00  0.00    +0.000 C 
ATOM     30  O   UNL     1       7.580   4.487  18.422  0.00  0.00    +0.000 OA
ENDBRANCH  22  30
ENDBRANCH  19  28
ENDBRANCH  17  19
ENDBRANCH   1  17
TORSDOF 5
ENDMDL
MODEL 5
REMARK VINA RESULT:      -7.2      1.798      2.304
REMARK  Name = 
REMARK  8 active torsions:
REMARK  status: ('A' for Active; 'I' for Inactive)
REMARK    1  A    between atoms: C_1  and  O_2
REMARK    2  A    between atoms: O_2  and  C_3
REMARK    3  A    between atoms: C_9  and  S_10
REMARK    4  A    between atoms: S_10  and  N_13
REMARK    5  A    between atoms: N_13  and  C_14
REMARK    6  A    between atoms: C_16  and  N_17
REMARK    7  A    between atoms: C_19  and  C_20
REMARK    8  A    between atoms: C_22  and  C_23
REMARK                            x       y       z     vdW  Elec       q    Type
REMARK                         _______ _______ _______ _____ _____    ______ ____
ROOT
ATOM      1  C   UNL     1       1.804   8.580  19.813  0.00  0.00    +0.000 A 
ATOM      2  C   UNL     1       2.102   7.272  20.183  0.00  0.00    +0.000 A 
ATOM      3  C   UNL     1       2.603   6.327  19.269  0.00  0.00    +0.000 A 
ATOM      4  C   UNL     1       2.771   6.754  17.937  0.00  0.00    +0.000 A 
ATOM      5  C   UNL     1       2.472   8.056  17.544  0.00  0.00    +0.000 A 
ATOM      6  C   UNL     1       2.003   8.959  18.485  0.00  0.00    +0.000 A 
ATOM      7  F   UNL     1       1.753  10.206  18.081  0.00  0.00    +0.000 F 
ENDROOT
BRANCH   3   8
ATOM      8  N   UNL     1       2.929   5.043  19.652  0.00  0.00    +0.000 N 
ATOM      9  C   UNL     1       2.475   4.483  20.935  0.00  0.00    +0.000 C 
ATOM     10  C   UNL     1       1.630   3.205  20.693  0.00  0.00    +0.000 C 
ATOM     11  C   UNL     1       1.223   2.587  22.027  0.00  0.00    +0.000 C 
ATOM     12  N   UNL     1       2.351   2.191  19.896  0.00  0.00    +0.000 NA
ATOM     13  C   UNL     1       2.763   2.777  18.600  0.00  0.00    +0.000 C 
ATOM     14  C   UNL     1       3.563   1.720  17.836  0.00  0.00    +0.000 C 
ATOM     15  C   UNL     1       3.600   4.075  18.762  0.00  0.00    +0.000 C 
ATOM     16  H   UNL     1       1.736   1.397  19.723  0.00  0.00    +0.000 HD
ENDBRANCH   3   8
BRANCH   1  17
ATOM     17  N   UNL     1       1.321   9.517  20.762  0.00  0.00    +0.000 N 
ATOM     18  H   UNL     1       1.933  10.223  21.178  0.00  0.00    +0.000 HD
BRANCH  17  19
ATOM     19  S   UNL     1      -0.324   9.719  21.000  0.00  0.00    +0.000 S 
ATOM     20  O   UNL     1      -0.753   8.709  21.958  0.00  0.00    +0.000 OA
ATOM     21  O   UNL     1      -0.959   9.787  19.714  0.00  0.00    +0.000 OA
BRANCH  19  28
ATOM     22  C   UNL     1       0.156  12.459  21.372  0.00  0.00    +0.000 A 
ATOM     23  C   UNL     1      -0.108  13.661  22.046  0.00  0.00    +0.000 A 
ATOM     24  C   UNL     1      -1.042  13.710  23.082  0.00  0.00    +0.000 A 
ATOM     25 BR   UNL     1      -1.405  15.354  23.939  0.00  0.00    +0.000 Br
ATOM     26  C   UNL     1      -1.734  12.570  23.466  0.00  0.00    +0.000 A 
ATOM     27  C   UNL     1      -1.472  11.369  22.819  0.00  0.00    +0.000 A 
ATOM     28  C   UNL     1      -0.531  11.304  21.781  0.00  0.00    +0.000 A 
BRANCH  22  30
ATOM     29  C   UNL     1       2.168  13.232  20.387  0.00  0.00    +0.000 C 
ATOM     30  O   UNL     1       1.020  12.385  20.315  0.00  0.00    +0.000 OA
ENDBRANCH  22  30
ENDBRANCH  19  28
ENDBRANCH  17  19
ENDBRANCH   1  17
TORSDOF 5
ENDMDL
MODEL 6
REMARK VINA RESULT:      -7.2      1.508      1.746
REMARK  Name = 
REMARK  8 active torsions:
REMARK  status: ('A' for Active; 'I' for Inactive)
REMARK    1  A    between atoms: C_1  and  O_2
REMARK    2  A    between atoms: O_2  and  C_3
REMARK    3  A    between atoms: C_9  and  S_10
REMARK    4  A    between atoms: S_10  and  N_13
REMARK    5  A    between atoms: N_13  and  C_14
REMARK    6  A    between atoms: C_16  and  N_17
REMARK    7  A    between atoms: C_19  and  C_20
REMARK    8  A    between atoms: C_22  and  C_23
REMARK                            x       y       z     vdW  Elec       q    Type
REMARK                         _______ _______ _______ _____ _____    ______ ____
ROOT
ATOM      1  C   UNL     1       1.345   9.630  20.317  0.00  0.00    +0.000 A 
ATOM      2  C   UNL     1       1.844   8.335  20.426  0.00  0.00    +0.000 A 
ATOM      3  C   UNL     1       2.110   7.534  19.300  0.00  0.00    +0.000 A 
ATOM      4  C   UNL     1       1.825   8.092  18.038  0.00  0.00    +0.000 A 
ATOM      5  C   UNL     1       1.319   9.383  17.906  0.00  0.00    +0.000 A 
ATOM      6  C   UNL     1       1.095  10.143  19.043  0.00  0.00    +0.000 A 
ATOM      7  F   UNL     1       0.636  11.385  18.881  0.00  0.00    +0.000 F 
ENDROOT
BRANCH   3   8
ATOM      8  N   UNL     1       2.638   6.265  19.416  0.00  0.00    +0.000 N 
ATOM      9  C   UNL     1       2.147   5.316  20.428  0.00  0.00    +0.000 C 
ATOM     10  C   UNL     1       1.615   4.030  19.744  0.00  0.00    +0.000 C 
ATOM     11  C   UNL     1       1.176   3.020  20.800  0.00  0.00    +0.000 C 
ATOM     12  N   UNL     1       2.621   3.397  18.865  0.00  0.00    +0.000 NA
ATOM     13  C   UNL     1       3.066   4.367  17.839  0.00  0.00    +0.000 C 
ATOM     14  C   UNL     1       4.152   3.698  16.996  0.00  0.00    +0.000 C 
ATOM     15  C   UNL     1       3.597   5.692  18.451  0.00  0.00    +0.000 C 
ATOM     16  H   UNL     1       2.205   2.590  18.403  0.00  0.00    +0.000 HD
ENDBRANCH   3   8
BRANCH   1  17
ATOM     17  N   UNL     1       1.107  10.422  21.469  0.00  0.00    +0.000 N 
ATOM     18  H   UNL     1       1.555  11.333  21.595  0.00  0.00    +0.000 HD
BRANCH  17  19
ATOM     19  S   UNL     1      -0.152  10.056  22.510  0.00  0.00    +0.000 S 
ATOM     20  O   UNL     1       0.435   9.695  23.794  0.00  0.00    +0.000 OA
ATOM     21  O   UNL     1      -1.026   9.127  21.850  0.00  0.00    +0.000 OA
BRANCH  19  28
ATOM     22  C   UNL     1      -0.578  12.826  22.369  0.00  0.00    +0.000 A 
ATOM     23  C   UNL     1      -1.396  13.945  22.587  0.00  0.00    +0.000 A 
ATOM     24  C   UNL     1      -2.663  13.805  23.154  0.00  0.00    +0.000 A 
ATOM     25 BR   UNL     1      -3.756  15.327  23.395  0.00  0.00    +0.000 Br
ATOM     26  C   UNL     1      -3.144  12.553  23.513  0.00  0.00    +0.000 A 
ATOM     27  C   UNL     1      -2.340  11.437  23.318  0.00  0.00    +0.000 A 
ATOM     28  C   UNL     1      -1.062  11.564  22.754  0.00  0.00    +0.000 A 
BRANCH  22  30
ATOM     29  C   UNL     1       0.952  14.179  21.167  0.00  0.00    +0.000 C 
ATOM     30  O   UNL     1       0.644  12.917  21.761  0.00  0.00    +0.000 OA
ENDBRANCH  22  30
ENDBRANCH  19  28
ENDBRANCH  17  19
ENDBRANCH   1  17
TORSDOF 5
ENDMDL
MODEL 7
REMARK VINA RESULT:      -7.0      4.834      6.249
REMARK  Name = 
REMARK  8 active torsions:
REMARK  status: ('A' for Active; 'I' for Inactive)
REMARK    1  A    between atoms: C_1  and  O_2
REMARK    2  A    between atoms: O_2  and  C_3
REMARK    3  A    between atoms: C_9  and  S_10
REMARK    4  A    between atoms: S_10  and  N_13
REMARK    5  A    between atoms: N_13  and  C_14
REMARK    6  A    between atoms: C_16  and  N_17
REMARK    7  A    between atoms: C_19  and  C_20
REMARK    8  A    between atoms: C_22  and  C_23
REMARK                            x       y       z     vdW  Elec       q    Type
REMARK                         _______ _______ _______ _____ _____    ______ ____
ROOT
ATOM      1  C   UNL     1      -0.670  12.980  20.496  0.00  0.00    +0.000 A 
ATOM      2  C   UNL     1      -1.700  12.452  19.722  0.00  0.00    +0.000 A 
ATOM      3  C   UNL     1      -1.482  11.445  18.765  0.00  0.00    +0.000 A 
ATOM      4  C   UNL     1      -0.155  11.000  18.598  0.00  0.00    +0.000 A 
ATOM      5  C   UNL     1       0.891  11.519  19.356  0.00  0.00    +0.000 A 
ATOM      6  C   UNL     1       0.624  12.494  20.305  0.00  0.00    +0.000 A 
ATOM      7  F   UNL     1       1.645  12.951  21.033  0.00  0.00    +0.000 F 
ENDROOT
BRANCH   3   8
ATOM      8  N   UNL     1      -2.513  10.902  18.029  0.00  0.00    +0.000 N 
ATOM      9  C   UNL     1      -3.922  11.143  18.381  0.00  0.00    +0.000 C 
ATOM     10  C   UNL     1      -4.663  11.816  17.197  0.00  0.00    +0.000 C 
ATOM     11  C   UNL     1      -6.139  11.998  17.540  0.00  0.00    +0.000 C 
ATOM     12  N   UNL     1      -4.555  11.040  15.945  0.00  0.00    +0.000 NA
ATOM     13  C   UNL     1      -3.128  10.846  15.601  0.00  0.00    +0.000 C 
ATOM     14  C   UNL     1      -3.058   9.983  14.341  0.00  0.00    +0.000 C 
ATOM     15  C   UNL     1      -2.314  10.191  16.750  0.00  0.00    +0.000 C 
ATOM     16  H   UNL     1      -5.013  11.549  15.191  0.00  0.00    +0.000 HD
ENDBRANCH   3   8
BRANCH   1  17
ATOM     17  N   UNL     1      -0.925  13.979  21.469  0.00  0.00    +0.000 N 
ATOM     18  H   UNL     1      -1.142  14.943  21.204  0.00  0.00    +0.000 HD
BRANCH  17  19
ATOM     19  S   UNL     1      -1.200  13.563  23.067  0.00  0.00    +0.000 S 
ATOM     20  O   UNL     1      -0.615  14.608  23.897  0.00  0.00    +0.000 OA
ATOM     21  O   UNL     1      -0.787  12.200  23.255  0.00  0.00    +0.000 OA
BRANCH  19  28
ATOM     22  C   UNL     1      -3.787  14.594  22.719  0.00  0.00    +0.000 A 
ATOM     23  C   UNL     1      -5.167  14.528  22.961  0.00  0.00    +0.000 A 
ATOM     24  C   UNL     1      -5.706  13.514  23.753  0.00  0.00    +0.000 A 
ATOM     25 BR   UNL     1      -7.574  13.429  24.024  0.00  0.00    +0.000 Br
ATOM     26  C   UNL     1      -4.888  12.545  24.318  0.00  0.00    +0.000 A 
ATOM     27  C   UNL     1      -3.518  12.606  24.100  0.00  0.00    +0.000 A 
ATOM     28  C   UNL     1      -2.961  13.624  23.311  0.00  0.00    +0.000 A 
BRANCH  22  30
ATOM     29  C   UNL     1      -3.233  16.876  22.399  0.00  0.00    +0.000 C 
ATOM     30  O   UNL     1      -3.229  15.538  21.901  0.00  0.00    +0.000 OA
ENDBRANCH  22  30
ENDBRANCH  19  28
ENDBRANCH  17  19
ENDBRANCH   1  17
TORSDOF 5
ENDMDL
MODEL 8
REMARK VINA RESULT:      -7.0      4.788      6.350
REMARK  Name = 
REMARK  8 active torsions:
REMARK  status: ('A' for Active; 'I' for Inactive)
REMARK    1  A    between atoms: C_1  and  O_2
REMARK    2  A    between atoms: O_2  and  C_3
REMARK    3  A    between atoms: C_9  and  S_10
REMARK    4  A    between atoms: S_10  and  N_13
REMARK    5  A    between atoms: N_13  and  C_14
REMARK    6  A    between atoms: C_16  and  N_17
REMARK    7  A    between atoms: C_19  and  C_20
REMARK    8  A    between atoms: C_22  and  C_23
REMARK                            x       y       z     vdW  Elec       q    Type
REMARK                         _______ _______ _______ _____ _____    ______ ____
ROOT
ATOM      1  C   UNL     1      -3.816  11.542  17.532  0.00  0.00    +0.000 A 
ATOM      2  C   UNL     1      -3.009  11.744  18.648  0.00  0.00    +0.000 A 
ATOM      3  C   UNL     1      -1.782  11.078  18.820  0.00  0.00    +0.000 A 
ATOM      4  C   UNL     1      -1.405  10.164  17.816  0.00  0.00    +0.000 A 
ATOM      5  C   UNL     1      -2.201   9.942  16.694  0.00  0.00    +0.000 A 
ATOM      6  C   UNL     1      -3.391  10.639  16.556  0.00  0.00    +0.000 A 
ATOM      7  F   UNL     1      -4.115  10.423  15.457  0.00  0.00    +0.000 F 
ENDROOT
BRANCH   3   8
ATOM      8  N   UNL     1      -0.972  11.311  19.912  0.00  0.00    +0.000 N 
ATOM      9  C   UNL     1      -1.222  12.433  20.830  0.00  0.00    +0.000 C 
ATOM     10  C   UNL     1      -1.443  11.907  22.272  0.00  0.00    +0.000 C 
ATOM     11  C   UNL     1      -1.628  13.078  23.233  0.00  0.00    +0.000 C 
ATOM     12  N   UNL     1      -0.323  11.069  22.749  0.00  0.00    +0.000 NA
ATOM     13  C   UNL     1      -0.123   9.932  21.822  0.00  0.00    +0.000 C 
ATOM     14  C   UNL     1       1.084   9.131  22.311  0.00  0.00    +0.000 C 
ATOM     15  C   UNL     1       0.088  10.382  20.351  0.00  0.00    +0.000 C 
ATOM     16  H   UNL     1      -0.542  10.710  23.677  0.00  0.00    +0.000 HD
ENDBRANCH   3   8
BRANCH   1  17
ATOM     17  N   UNL     1      -5.037  12.245  17.375  0.00  0.00    +0.000 N 
ATOM     18  H   UNL     1      -5.245  12.776  16.526  0.00  0.00    +0.000 HD
BRANCH  17  19
ATOM     19  S   UNL     1      -6.317  11.974  18.420  0.00  0.00    +0.000 S 
ATOM     20  O   UNL     1      -6.233  10.588  18.862  0.00  0.00    +0.000 OA
ATOM     21  O   UNL     1      -7.520  12.442  17.790  0.00  0.00    +0.000 OA
BRANCH  19  28
ATOM     22  C   UNL     1      -6.033  14.402  19.800  0.00  0.00    +0.000 A 
ATOM     23  C   UNL     1      -5.822  15.106  20.995  0.00  0.00    +0.000 A 
ATOM     24  C   UNL     1      -5.633  14.429  22.200  0.00  0.00    +0.000 A 
ATOM     25 BR   UNL     1      -5.394  15.408  23.798  0.00  0.00    +0.000 Br
ATOM     26  C   UNL     1      -5.653  13.041  22.244  0.00  0.00    +0.000 A 
ATOM     27  C   UNL     1      -5.846  12.330  21.067  0.00  0.00    +0.000 A 
ATOM     28  C   UNL     1      -6.031  12.997  19.847  0.00  0.00    +0.000 A 
BRANCH  22  30
ATOM     29  C   UNL     1      -7.401  15.917  18.595  0.00  0.00    +0.000 C 
ATOM     30  O   UNL     1      -6.281  15.031  18.611  0.00  0.00    +0.000 OA
ENDBRANCH  22  30
ENDBRANCH  19  28
ENDBRANCH  17  19
ENDBRANCH   1  17
TORSDOF 5
ENDMDL
MODEL 9
REMARK VINA RESULT:      -6.8      5.856      9.966
REMARK  Name = 
REMARK  8 active torsions:
REMARK  status: ('A' for Active; 'I' for Inactive)
REMARK    1  A    between atoms: C_1  and  O_2
REMARK    2  A    between atoms: O_2  and  C_3
REMARK    3  A    between atoms: C_9  and  S_10
REMARK    4  A    between atoms: S_10  and  N_13
REMARK    5  A    between atoms: N_13  and  C_14
REMARK    6  A    between atoms: C_16  and  N_17
REMARK    7  A    between atoms: C_19  and  C_20
REMARK    8  A    between atoms: C_22  and  C_23
REMARK                            x       y       z     vdW  Elec       q    Type
REMARK                         _______ _______ _______ _____ _____    ______ ____
ROOT
ATOM      1  C   UNL     1       3.187   4.783  19.503  0.00  0.00    +0.000 A 
ATOM      2  C   UNL     1       2.928   6.143  19.648  0.00  0.00    +0.000 A 
ATOM      3  C   UNL     1       1.823   6.625  20.371  0.00  0.00    +0.000 A 
ATOM      4  C   UNL     1       0.957   5.665  20.932  0.00  0.00    +0.000 A 
ATOM      5  C   UNL     1       1.193   4.299  20.792  0.00  0.00    +0.000 A 
ATOM      6  C   UNL     1       2.309   3.871  20.091  0.00  0.00    +0.000 A 
ATOM      7  F   UNL     1       2.520   2.556  19.999  0.00  0.00    +0.000 F 
ENDROOT
BRANCH   3   8
ATOM      8  N   UNL     1       1.594   7.975  20.541  0.00  0.00    +0.000 N 
ATOM      9  C   UNL     1       1.526   8.895  19.394  0.00  0.00    +0.000 C 
ATOM     10  C   UNL     1       0.150   9.609  19.359  0.00  0.00    +0.000 C 
ATOM     11  C   UNL     1       0.112  10.614  18.213  0.00  0.00    +0.000 C 
ATOM     12  N   UNL     1      -0.157  10.311  20.623  0.00  0.00    +0.000 NA
ATOM     13  C   UNL     1      -0.115   9.351  21.749  0.00  0.00    +0.000 C 
ATOM     14  C   UNL     1      -0.369  10.127  23.042  0.00  0.00    +0.000 C 
ATOM     15  C   UNL     1       1.232   8.582  21.837  0.00  0.00    +0.000 C 
ATOM     16  H   UNL     1      -1.089  10.717  20.565  0.00  0.00    +0.000 HD
ENDBRANCH   3   8
BRANCH   1  17
ATOM     17  N   UNL     1       4.322   4.326  18.787  0.00  0.00    +0.000 N 
ATOM     18  H   UNL     1       5.262   4.369  19.188  0.00  0.00    +0.000 HD
BRANCH  17  19
ATOM     19  S   UNL     1       4.142   3.407  17.399  0.00  0.00    +0.000 S 
ATOM     20  O   UNL     1       2.816   3.684  16.861  0.00  0.00    +0.000 OA
ATOM     21  O   UNL     1       4.509   2.053  17.705  0.00  0.00    +0.000 OA
BRANCH  19  28
ATOM     22  C   UNL     1       6.609   4.467  16.584  0.00  0.00    +0.000 A 
ATOM     23  C   UNL     1       7.468   4.911  15.567  0.00  0.00    +0.000 A 
ATOM     24  C   UNL     1       7.062   4.898  14.232  0.00  0.00    +0.000 A 
ATOM     25 BR   UNL     1       8.258   5.462  12.883  0.00  0.00    +0.000 Br
ATOM     26  C   UNL     1       5.799   4.441  13.880  0.00  0.00    +0.000 A 
ATOM     27  C   UNL     1       4.932   4.013  14.877  0.00  0.00    +0.000 A 
ATOM     28  C   UNL     1       5.325   4.027  16.224  0.00  0.00    +0.000 A 
BRANCH  22  30
ATOM     29  C   UNL     1       7.604   5.590  18.418  0.00  0.00    +0.000 C 
ATOM     30  O   UNL     1       6.993   4.410  17.896  0.00  0.00    +0.000 OA
ENDBRANCH  22  30
ENDBRANCH  19  28
ENDBRANCH  17  19
ENDBRANCH   1  17
TORSDOF 5
ENDMDL
