MODEL 1
REMARK VINA RESULT:      -7.3      0.000      0.000
REMARK  Name = 
REMARK  12 active torsions:
REMARK  status: ('A' for Active; 'I' for Inactive)
REMARK    1  A    between atoms: C_1  and  O_2
REMARK    2  A    between atoms: O_2  and  C_3
REMARK    3  A    between atoms: C_6  and  C_7
REMARK    4  A    between atoms: C_7  and  N_8
REMARK    5  A    between atoms: N_8  and  C_9
REMARK    6  A    between atoms: N_8  and  C_10
REMARK    7  A    between atoms: C_10  and  C_11
REMARK    8  A    between atoms: C_11  and  O_12
REMARK    9  A    between atoms: C_11  and  C_13
REMARK   10  A    between atoms: C_13  and  O_14
REMARK   11  A    between atoms: O_14  and  C_15
REMARK   12  A    between atoms: C_20  and  O_21
REMARK                            x       y       z     vdW  Elec       q    Type
REMARK                         _______ _______ _______ _____ _____    ______ ____
ROOT
ATOM      1  C   UNL     1       1.784   2.725  18.181  0.00  0.00    +0.000 C 
ENDROOT
BRANCH   1   2
ATOM      2  O   UNL     1       1.311   3.651  17.196  0.00  0.00    +0.000 OA
ATOM      3  H   UNL     1       1.890   4.437  17.262  0.00  0.00    +0.000 HD
ENDBRANCH   1   2
BRANCH   1   4
ATOM      4  C   UNL     1       1.353   3.218  19.588  0.00  0.00    +0.000 C 
BRANCH   4   5
ATOM      5  N   UNL     1       2.403   3.707  20.516  0.00  0.00    +0.000 NA
ATOM      6  C   UNL     1       2.811   2.696  21.510  0.00  0.00    +0.000 C 
BRANCH   5   7
ATOM      7  C   UNL     1       1.928   4.923  21.206  0.00  0.00    +0.000 C 
BRANCH   7  11
ATOM      8  C   UNL     1       2.157   8.460  18.727  0.00  0.00    +0.000 A 
ATOM      9  C   UNL     1       1.442   8.486  19.925  0.00  0.00    +0.000 A 
ATOM     10  C   UNL     1       1.397   7.357  20.744  0.00  0.00    +0.000 A 
ATOM     11  C   UNL     1       2.042   6.174  20.359  0.00  0.00    +0.000 A 
ATOM     12  C   UNL     1       2.727   6.144  19.135  0.00  0.00    +0.000 A 
ATOM     13  C   UNL     1       2.781   7.280  18.323  0.00  0.00    +0.000 A 
BRANCH   8  15
ATOM     14  C   UNL     1       1.015  10.458  18.229  0.00  0.00    +0.000 C 
ATOM     15  O   UNL     1       2.147   9.623  18.006  0.00  0.00    +0.000 OA
ENDBRANCH   8  15
ENDBRANCH   7  11
ENDBRANCH   5   7
ENDBRANCH   4   5
ENDBRANCH   1   4
BRANCH   1  16
ATOM     16  C   UNL     1       3.300   2.520  18.053  0.00  0.00    +0.000 C 
BRANCH  16  17
ATOM     17  O   UNL     1       3.779   2.913  16.765  0.00  0.00    +0.000 OA
BRANCH  17  18
ATOM     18  C   UNL     1       4.816   3.817  16.810  0.00  0.00    +0.000 A 
ATOM     19  C   UNL     1       5.322   4.203  15.581  0.00  0.00    +0.000 A 
ATOM     20  C   UNL     1       6.293   5.216  15.510  0.00  0.00    +0.000 A 
ATOM     21  C   UNL     1       6.788   5.809  16.662  0.00  0.00    +0.000 A 
ATOM     22  N   UNL     1       7.516   6.932  16.590  0.00  0.00    +0.000 NA
ATOM     23  C   UNL     1       8.024   7.396  17.740  0.00  0.00    +0.000 A 
ATOM     24  C   UNL     1       8.075   6.692  18.913  0.00  0.00    +0.000 A 
ATOM     25  C   UNL     1       7.169   5.649  19.032  0.00  0.00    +0.000 A 
ATOM     26  C   UNL     1       6.447   5.241  17.892  0.00  0.00    +0.000 A 
ATOM     27  C   UNL     1       5.387   4.321  17.983  0.00  0.00    +0.000 A 
BRANCH  23  28
ATOM     28  O   UNL     1       7.733   8.734  17.956  0.00  0.00    +0.000 OA
ATOM     29  H   UNL     1       7.872   8.780  18.924  0.00  0.00    +0.000 HD
ENDBRANCH  23  28
ENDBRANCH  17  18
ENDBRANCH  16  17
ENDBRANCH   1  16
TORSDOF 10
ENDMDL
MODEL 2
REMARK VINA RESULT:      -7.2      1.486      2.060
REMARK  Name = 
REMARK  12 active torsions:
REMARK  status: ('A' for Active; 'I' for Inactive)
REMARK    1  A    between atoms: C_1  and  O_2
REMARK    2  A    between atoms: O_2  and  C_3
REMARK    3  A    between atoms: C_6  and  C_7
REMARK    4  A    between atoms: C_7  and  N_8
REMARK    5  A    between atoms: N_8  and  C_9
REMARK    6  A    between atoms: N_8  and  C_10
REMARK    7  A    between atoms: C_10  and  C_11
REMARK    8  A    between atoms: C_11  and  O_12
REMARK    9  A    between atoms: C_11  and  C_13
REMARK   10  A    between atoms: C_13  and  O_14
REMARK   11  A    between atoms: O_14  and  C_15
REMARK   12  A    between atoms: C_20  and  O_21
REMARK                            x       y       z     vdW  Elec       q    Type
REMARK                         _______ _______ _______ _____ _____    ______ ____
ROOT
ATOM      1  C   UNL     1       3.100   3.162  20.650  0.00  0.00    +0.000 C 
ENDROOT
BRANCH   1   2
ATOM      2  O   UNL     1       2.869   2.537  21.917  0.00  0.00    +0.000 OA
ATOM      3  H   UNL     1       2.679   1.597  21.726  0.00  0.00    +0.000 HD
ENDBRANCH   1   2
BRANCH   1   4
ATOM      4  C   UNL     1       1.746   3.328  19.912  0.00  0.00    +0.000 C 
BRANCH   4   5
ATOM      5  N   UNL     1       1.464   4.618  19.236  0.00  0.00    +0.000 NA
ATOM      6  C   UNL     1       1.403   4.499  17.767  0.00  0.00    +0.000 C 
BRANCH   5   7
ATOM      7  C   UNL     1       2.489   5.611  19.615  0.00  0.00    +0.000 C 
BRANCH   7  11
ATOM      8  C   UNL     1       1.333   9.736  19.016  0.00  0.00    +0.000 A 
ATOM      9  C   UNL     1       1.981   9.033  17.999  0.00  0.00    +0.000 A 
ATOM     10  C   UNL     1       2.323   7.691  18.177  0.00  0.00    +0.000 A 
ATOM     11  C   UNL     1       2.047   7.042  19.389  0.00  0.00    +0.000 A 
ATOM     12  C   UNL     1       1.429   7.767  20.419  0.00  0.00    +0.000 A 
ATOM     13  C   UNL     1       1.077   9.107  20.234  0.00  0.00    +0.000 A 
BRANCH   8  15
ATOM     14  C   UNL     1       1.291  11.959  19.791  0.00  0.00    +0.000 C 
ATOM     15  O   UNL     1       1.032  11.041  18.733  0.00  0.00    +0.000 OA
ENDBRANCH   8  15
ENDBRANCH   7  11
ENDBRANCH   5   7
ENDBRANCH   4   5
ENDBRANCH   1   4
BRANCH   1  16
ATOM     16  C   UNL     1       4.137   2.374  19.835  0.00  0.00    +0.000 C 
BRANCH  16  17
ATOM     17  O   UNL     1       4.052   2.675  18.440  0.00  0.00    +0.000 OA
BRANCH  17  18
ATOM     18  C   UNL     1       4.895   3.686  18.038  0.00  0.00    +0.000 A 
ATOM     19  C   UNL     1       4.839   4.003  16.692  0.00  0.00    +0.000 A 
ATOM     20  C   UNL     1       5.563   5.104  16.202  0.00  0.00    +0.000 A 
ATOM     21  C   UNL     1       6.370   5.855  17.043  0.00  0.00    +0.000 A 
ATOM     22  N   UNL     1       6.856   7.038  16.642  0.00  0.00    +0.000 NA
ATOM     23  C   UNL     1       7.693   7.663  17.482  0.00  0.00    +0.000 A 
ATOM     24  C   UNL     1       8.280   7.085  18.575  0.00  0.00    +0.000 A 
ATOM     25  C   UNL     1       7.639   5.966  19.085  0.00  0.00    +0.000 A 
ATOM     26  C   UNL     1       6.601   5.375  18.335  0.00  0.00    +0.000 A 
ATOM     27  C   UNL     1       5.792   4.359  18.872  0.00  0.00    +0.000 A 
BRANCH  23  28
ATOM     28  O   UNL     1       7.324   8.977  17.730  0.00  0.00    +0.000 OA
ATOM     29  H   UNL     1       6.494   9.017  17.212  0.00  0.00    +0.000 HD
ENDBRANCH  23  28
ENDBRANCH  17  18
ENDBRANCH  16  17
ENDBRANCH   1  16
TORSDOF 10
ENDMDL
MODEL 3
REMARK VINA RESULT:      -7.0      2.245      6.006
REMARK  Name = 
REMARK  12 active torsions:
REMARK  status: ('A' for Active; 'I' for Inactive)
REMARK    1  A    between atoms: C_1  and  O_2
REMARK    2  A    between atoms: O_2  and  C_3
REMARK    3  A    between atoms: C_6  and  C_7
REMARK    4  A    between atoms: C_7  and  N_8
REMARK    5  A    between atoms: N_8  and  C_9
REMARK    6  A    between atoms: N_8  and  C_10
REMARK    7  A    between atoms: C_10  and  C_11
REMARK    8  A    between atoms: C_11  and  O_12
REMARK    9  A    between atoms: C_11  and  C_13
REMARK   10  A    between atoms: C_13  and  O_14
REMARK   11  A    between atoms: O_14  and  C_15
REMARK   12  A    between atoms: C_20  and  O_21
REMARK                            x       y       z     vdW  Elec       q    Type
REMARK                         _______ _______ _______ _____ _____    ______ ____
ROOT
ATOM      1  C   UNL     1       1.847   3.750  18.988  0.00  0.00    +0.000 C 
ENDROOT
BRANCH   1   2
ATOM      2  O   UNL     1       0.899   3.475  17.952  0.00  0.00    +0.000 OA
ATOM      3  H   UNL     1       1.044   4.155  17.263  0.00  0.00    +0.000 HD
ENDBRANCH   1   2
BRANCH   1   4
ATOM      4  C   UNL     1       2.620   2.448  19.327  0.00  0.00    +0.000 C 
BRANCH   4   5
ATOM      5  N   UNL     1       4.103   2.485  19.316  0.00  0.00    +0.000 NA
ATOM      6  C   UNL     1       4.706   1.805  20.478  0.00  0.00    +0.000 C 
BRANCH   5   7
ATOM      7  C   UNL     1       4.564   3.886  19.262  0.00  0.00    +0.000 C 
BRANCH   7  11
ATOM      8  C   UNL     1       6.804   4.911  15.706  0.00  0.00    +0.000 A 
ATOM      9  C   UNL     1       7.397   5.016  16.965  0.00  0.00    +0.000 A 
ATOM     10  C   UNL     1       6.688   4.652  18.111  0.00  0.00    +0.000 A 
ATOM     11  C   UNL     1       5.363   4.205  18.015  0.00  0.00    +0.000 A 
ATOM     12  C   UNL     1       4.762   4.138  16.749  0.00  0.00    +0.000 A 
ATOM     13  C   UNL     1       5.478   4.491  15.602  0.00  0.00    +0.000 A 
BRANCH   8  15
ATOM     14  C   UNL     1       7.160   4.794  13.381  0.00  0.00    +0.000 C 
ATOM     15  O   UNL     1       7.590   5.282  14.649  0.00  0.00    +0.000 OA
ENDBRANCH   8  15
ENDBRANCH   7  11
ENDBRANCH   5   7
ENDBRANCH   4   5
ENDBRANCH   1   4
BRANCH   1  16
ATOM     16  C   UNL     1       1.155   4.374  20.210  0.00  0.00    +0.000 C 
BRANCH  16  17
ATOM     17  O   UNL     1       1.985   5.348  20.847  0.00  0.00    +0.000 OA
BRANCH  17  18
ATOM     18  C   UNL     1       1.877   6.609  20.305  0.00  0.00    +0.000 A 
ATOM     19  C   UNL     1       2.523   6.792  19.095  0.00  0.00    +0.000 A 
ATOM     20  C   UNL     1       2.369   8.001  18.395  0.00  0.00    +0.000 A 
ATOM     21  C   UNL     1       1.612   9.036  18.922  0.00  0.00    +0.000 A 
ATOM     22  N   UNL     1       1.259  10.078  18.157  0.00  0.00    +0.000 NA
ATOM     23  C   UNL     1       0.597  11.074  18.763  0.00  0.00    +0.000 A 
ATOM     24  C   UNL     1       0.481  11.226  20.118  0.00  0.00    +0.000 A 
ATOM     25  C   UNL     1       0.663  10.077  20.873  0.00  0.00    +0.000 A 
ATOM     26  C   UNL     1       1.173   8.923  20.244  0.00  0.00    +0.000 A 
ATOM     27  C   UNL     1       1.208   7.681  20.903  0.00  0.00    +0.000 A 
BRANCH  23  28
ATOM     28  O   UNL     1      -0.575  11.419  18.105  0.00  0.00    +0.000 OA
ATOM     29  H   UNL     1      -0.382  11.049  17.219  0.00  0.00    +0.000 HD
ENDBRANCH  23  28
ENDBRANCH  17  18
ENDBRANCH  16  17
ENDBRANCH   1  16
TORSDOF 10
ENDMDL
MODEL 4
REMARK VINA RESULT:      -7.0      2.326      5.942
REMARK  Name = 
REMARK  12 active torsions:
REMARK  status: ('A' for Active; 'I' for Inactive)
REMARK    1  A    between atoms: C_1  and  O_2
REMARK    2  A    between atoms: O_2  and  C_3
REMARK    3  A    between atoms: C_6  and  C_7
REMARK    4  A    between atoms: C_7  and  N_8
REMARK    5  A    between atoms: N_8  and  C_9
REMARK    6  A    between atoms: N_8  and  C_10
REMARK    7  A    between atoms: C_10  and  C_11
REMARK    8  A    between atoms: C_11  and  O_12
REMARK    9  A    between atoms: C_11  and  C_13
REMARK   10  A    between atoms: C_13  and  O_14
REMARK   11  A    between atoms: O_14  and  C_15
REMARK   12  A    between atoms: C_20  and  O_21
REMARK                            x       y       z     vdW  Elec       q    Type
REMARK                         _______ _______ _______ _____ _____    ______ ____
ROOT
ATOM      1  C   UNL     1       1.418   2.808  20.923  0.00  0.00    +0.000 C 
ENDROOT
BRANCH   1   2
ATOM      2  O   UNL     1       1.292   2.747  22.348  0.00  0.00    +0.000 OA
ATOM      3  H   UNL     1       1.970   3.354  22.707  0.00  0.00    +0.000 HD
ENDBRANCH   1   2
BRANCH   1   4
ATOM      4  C   UNL     1       2.827   2.303  20.517  0.00  0.00    +0.000 C 
BRANCH   4   5
ATOM      5  N   UNL     1       3.385   2.742  19.214  0.00  0.00    +0.000 NA
ATOM      6  C   UNL     1       3.642   1.621  18.289  0.00  0.00    +0.000 C 
BRANCH   5   7
ATOM      7  C   UNL     1       4.632   3.500  19.439  0.00  0.00    +0.000 C 
BRANCH   7  11
ATOM      8  C   UNL     1       6.325   5.089  15.789  0.00  0.00    +0.000 A 
ATOM      9  C   UNL     1       5.039   4.547  15.790  0.00  0.00    +0.000 A 
ATOM     10  C   UNL     1       4.477   4.066  16.974  0.00  0.00    +0.000 A 
ATOM     11  C   UNL     1       5.208   4.094  18.170  0.00  0.00    +0.000 A 
ATOM     12  C   UNL     1       6.514   4.607  18.153  0.00  0.00    +0.000 A 
ATOM     13  C   UNL     1       7.069   5.098  16.968  0.00  0.00    +0.000 A 
BRANCH   8  15
ATOM     14  C   UNL     1       6.836   4.556  13.553  0.00  0.00    +0.000 C 
ATOM     15  O   UNL     1       6.775   5.542  14.579  0.00  0.00    +0.000 OA
ENDBRANCH   8  15
ENDBRANCH   7  11
ENDBRANCH   5   7
ENDBRANCH   4   5
ENDBRANCH   1   4
BRANCH   1  16
ATOM     16  C   UNL     1       1.113   4.223  20.409  0.00  0.00    +0.000 C 
BRANCH  16  17
ATOM     17  O   UNL     1       1.975   5.197  21.002  0.00  0.00    +0.000 OA
BRANCH  17  18
ATOM     18  C   UNL     1       1.910   6.434  20.402  0.00  0.00    +0.000 A 
ATOM     19  C   UNL     1       2.575   6.542  19.193  0.00  0.00    +0.000 A 
ATOM     20  C   UNL     1       2.465   7.722  18.436  0.00  0.00    +0.000 A 
ATOM     21  C   UNL     1       1.731   8.801  18.906  0.00  0.00    +0.000 A 
ATOM     22  N   UNL     1       1.418   9.817  18.090  0.00  0.00    +0.000 NA
ATOM     23  C   UNL     1       0.778  10.859  18.641  0.00  0.00    +0.000 A 
ATOM     24  C   UNL     1       0.652  11.076  19.986  0.00  0.00    +0.000 A 
ATOM     25  C   UNL     1       0.792   9.958  20.795  0.00  0.00    +0.000 A 
ATOM     26  C   UNL     1       1.274   8.762  20.226  0.00  0.00    +0.000 A 
ATOM     27  C   UNL     1       1.266   7.551  20.941  0.00  0.00    +0.000 A 
BRANCH  23  28
ATOM     28  O   UNL     1      -0.375  11.206  17.953  0.00  0.00    +0.000 OA
ATOM     29  H   UNL     1      -1.003  10.567  18.349  0.00  0.00    +0.000 HD
ENDBRANCH  23  28
ENDBRANCH  17  18
ENDBRANCH  16  17
ENDBRANCH   1  16
TORSDOF 10
ENDMDL
MODEL 5
REMARK VINA RESULT:      -7.0      2.612      6.536
REMARK  Name = 
REMARK  12 active torsions:
REMARK  status: ('A' for Active; 'I' for Inactive)
REMARK    1  A    between atoms: C_1  and  O_2
REMARK    2  A    between atoms: O_2  and  C_3
REMARK    3  A    between atoms: C_6  and  C_7
REMARK    4  A    between atoms: C_7  and  N_8
REMARK    5  A    between atoms: N_8  and  C_9
REMARK    6  A    between atoms: N_8  and  C_10
REMARK    7  A    between atoms: C_10  and  C_11
REMARK    8  A    between atoms: C_11  and  O_12
REMARK    9  A    between atoms: C_11  and  C_13
REMARK   10  A    between atoms: C_13  and  O_14
REMARK   11  A    between atoms: O_14  and  C_15
REMARK   12  A    between atoms: C_20  and  O_21
REMARK                            x       y       z     vdW  Elec       q    Type
REMARK                         _______ _______ _______ _____ _____    ______ ____
ROOT
ATOM      1  C   UNL     1       1.556   4.120  19.907  0.00  0.00    +0.000 C 
ENDROOT
BRANCH   1   2
ATOM      2  O   UNL     1       0.284   3.615  20.328  0.00  0.00    +0.000 OA
ATOM      3  H   UNL     1       0.048   4.115  21.136  0.00  0.00    +0.000 HD
ENDBRANCH   1   2
BRANCH   1   4
ATOM      4  C   UNL     1       2.635   3.028  20.133  0.00  0.00    +0.000 C 
BRANCH   4   5
ATOM      5  N   UNL     1       3.640   2.798  19.067  0.00  0.00    +0.000 NA
ATOM      6  C   UNL     1       4.130   1.407  19.026  0.00  0.00    +0.000 C 
BRANCH   5   7
ATOM      7  C   UNL     1       4.777   3.723  19.249  0.00  0.00    +0.000 C 
BRANCH   7  11
ATOM      8  C   UNL     1       6.581   4.902  15.499  0.00  0.00    +0.000 A 
ATOM      9  C   UNL     1       5.250   4.484  15.538  0.00  0.00    +0.000 A 
ATOM     10  C   UNL     1       4.655   4.137  16.752  0.00  0.00    +0.000 A 
ATOM     11  C   UNL     1       5.395   4.175  17.942  0.00  0.00    +0.000 A 
ATOM     12  C   UNL     1       6.743   4.560  17.889  0.00  0.00    +0.000 A 
ATOM     13  C   UNL     1       7.333   4.918  16.674  0.00  0.00    +0.000 A 
BRANCH   8  15
ATOM     14  C   UNL     1       6.789   4.276  13.238  0.00  0.00    +0.000 C 
ATOM     15  O   UNL     1       7.062   5.230  14.261  0.00  0.00    +0.000 OA
ENDBRANCH   8  15
ENDBRANCH   7  11
ENDBRANCH   5   7
ENDBRANCH   4   5
ENDBRANCH   1   4
BRANCH   1  16
ATOM     16  C   UNL     1       1.881   5.443  20.617  0.00  0.00    +0.000 C 
BRANCH  16  17
ATOM     17  O   UNL     1       2.637   6.320  19.778  0.00  0.00    +0.000 OA
BRANCH  17  18
ATOM     18  C   UNL     1       2.059   7.557  19.606  0.00  0.00    +0.000 A 
ATOM     19  C   UNL     1       2.244   8.130  18.360  0.00  0.00    +0.000 A 
ATOM     20  C   UNL     1       1.590   9.332  18.037  0.00  0.00    +0.000 A 
ATOM     21  C   UNL     1       0.792   9.978  18.969  0.00  0.00    +0.000 A 
ATOM     22  N   UNL     1      -0.024  10.973  18.592  0.00  0.00    +0.000 NA
ATOM     23  C   UNL     1      -0.700  11.600  19.565  0.00  0.00    +0.000 A 
ATOM     24  C   UNL     1      -0.438  11.481  20.902  0.00  0.00    +0.000 A 
ATOM     25  C   UNL     1       0.244  10.335  21.285  0.00  0.00    +0.000 A 
ATOM     26  C   UNL     1       0.814   9.517  20.288  0.00  0.00    +0.000 A 
ATOM     27  C   UNL     1       1.354   8.255  20.592  0.00  0.00    +0.000 A 
BRANCH  23  28
ATOM     28  O   UNL     1      -2.062  11.671  19.312  0.00  0.00    +0.000 OA
ATOM     29  H   UNL     1      -2.365  10.890  19.820  0.00  0.00    +0.000 HD
ENDBRANCH  23  28
ENDBRANCH  17  18
ENDBRANCH  16  17
ENDBRANCH   1  16
TORSDOF 10
ENDMDL
MODEL 6
REMARK VINA RESULT:      -6.9      2.421      6.554
REMARK  Name = 
REMARK  12 active torsions:
REMARK  status: ('A' for Active; 'I' for Inactive)
REMARK    1  A    between atoms: C_1  and  O_2
REMARK    2  A    between atoms: O_2  and  C_3
REMARK    3  A    between atoms: C_6  and  C_7
REMARK    4  A    between atoms: C_7  and  N_8
REMARK    5  A    between atoms: N_8  and  C_9
REMARK    6  A    between atoms: N_8  and  C_10
REMARK    7  A    between atoms: C_10  and  C_11
REMARK    8  A    between atoms: C_11  and  O_12
REMARK    9  A    between atoms: C_11  and  C_13
REMARK   10  A    between atoms: C_13  and  O_14
REMARK   11  A    between atoms: O_14  and  C_15
REMARK   12  A    between atoms: C_20  and  O_21
REMARK                            x       y       z     vdW  Elec       q    Type
REMARK                         _______ _______ _______ _____ _____    ______ ____
ROOT
ATOM      1  C   UNL     1       4.779   3.782  19.028  0.00  0.00    +0.000 C 
ENDROOT
BRANCH   1   2
ATOM      2  O   UNL     1       5.102   2.662  19.861  0.00  0.00    +0.000 OA
ATOM      3  H   UNL     1       6.053   2.483  19.717  0.00  0.00    +0.000 HD
ENDBRANCH   1   2
BRANCH   1   4
ATOM      4  C   UNL     1       5.728   4.960  19.373  0.00  0.00    +0.000 C 
BRANCH   4   5
ATOM      5  N   UNL     1       6.786   5.322  18.398  0.00  0.00    +0.000 NA
ATOM      6  C   UNL     1       7.911   6.054  19.012  0.00  0.00    +0.000 C 
BRANCH   5   7
ATOM      7  C   UNL     1       6.201   6.128  17.308  0.00  0.00    +0.000 C 
BRANCH   7  11
ATOM      8  C   UNL     1       6.239   3.993  13.547  0.00  0.00    +0.000 A 
ATOM      9  C   UNL     1       5.100   3.976  14.353  0.00  0.00    +0.000 A 
ATOM     10  C   UNL     1       5.072   4.694  15.550  0.00  0.00    +0.000 A 
ATOM     11  C   UNL     1       6.198   5.415  15.972  0.00  0.00    +0.000 A 
ATOM     12  C   UNL     1       7.352   5.395  15.174  0.00  0.00    +0.000 A 
ATOM     13  C   UNL     1       7.372   4.686  13.970  0.00  0.00    +0.000 A 
BRANCH   8  15
ATOM     14  C   UNL     1       4.854   3.200  11.814  0.00  0.00    +0.000 C 
ATOM     15  O   UNL     1       6.156   3.266  12.390  0.00  0.00    +0.000 OA
ENDBRANCH   8  15
ENDBRANCH   7  11
ENDBRANCH   5   7
ENDBRANCH   4   5
ENDBRANCH   1   4
BRANCH   1  16
ATOM     16  C   UNL     1       3.293   4.148  19.159  0.00  0.00    +0.000 C 
BRANCH  16  17
ATOM     17  O   UNL     1       2.874   5.035  18.120  0.00  0.00    +0.000 OA
BRANCH  17  18
ATOM     18  C   UNL     1       2.525   6.289  18.567  0.00  0.00    +0.000 A 
ATOM     19  C   UNL     1       2.735   7.319  17.668  0.00  0.00    +0.000 A 
ATOM     20  C   UNL     1       2.295   8.619  17.975  0.00  0.00    +0.000 A 
ATOM     21  C   UNL     1       1.688   8.894  19.192  0.00  0.00    +0.000 A 
ATOM     22  N   UNL     1       1.048  10.055  19.386  0.00  0.00    +0.000 NA
ATOM     23  C   UNL     1       0.560  10.278  20.614  0.00  0.00    +0.000 A 
ATOM     24  C   UNL     1       0.878   9.547  21.726  0.00  0.00    +0.000 A 
ATOM     25  C   UNL     1       1.360   8.268  21.492  0.00  0.00    +0.000 A 
ATOM     26  C   UNL     1       1.706   7.901  20.175  0.00  0.00    +0.000 A 
ATOM     27  C   UNL     1       2.023   6.572  19.841  0.00  0.00    +0.000 A 
BRANCH  23  28
ATOM     28  O   UNL     1      -0.778  10.641  20.603  0.00  0.00    +0.000 OA
ATOM     29  H   UNL     1      -1.138   9.964  21.213  0.00  0.00    +0.000 HD
ENDBRANCH  23  28
ENDBRANCH  17  18
ENDBRANCH  16  17
ENDBRANCH   1  16
TORSDOF 10
ENDMDL
MODEL 7
REMARK VINA RESULT:      -6.9      0.710      1.170
REMARK  Name = 
REMARK  12 active torsions:
REMARK  status: ('A' for Active; 'I' for Inactive)
REMARK    1  A    between atoms: C_1  and  O_2
REMARK    2  A    between atoms: O_2  and  C_3
REMARK    3  A    between atoms: C_6  and  C_7
REMARK    4  A    between atoms: C_7  and  N_8
REMARK    5  A    between atoms: N_8  and  C_9
REMARK    6  A    between atoms: N_8  and  C_10
REMARK    7  A    between atoms: C_10  and  C_11
REMARK    8  A    between atoms: C_11  and  O_12
REMARK    9  A    between atoms: C_11  and  C_13
REMARK   10  A    between atoms: C_13  and  O_14
REMARK   11  A    between atoms: O_14  and  C_15
REMARK   12  A    between atoms: C_20  and  O_21
REMARK                            x       y       z     vdW  Elec       q    Type
REMARK                         _______ _______ _______ _____ _____    ______ ____
ROOT
ATOM      1  C   UNL     1       1.471   2.054  18.872  0.00  0.00    +0.000 C 
ENDROOT
BRANCH   1   2
ATOM      2  O   UNL     1       0.337   1.852  18.022  0.00  0.00    +0.000 OA
ATOM      3  H   UNL     1       0.505   2.380  17.215  0.00  0.00    +0.000 HD
ENDBRANCH   1   2
BRANCH   1   4
ATOM      4  C   UNL     1       1.278   3.370  19.670  0.00  0.00    +0.000 C 
BRANCH   4   5
ATOM      5  N   UNL     1       2.376   3.824  20.559  0.00  0.00    +0.000 NA
ATOM      6  C   UNL     1       2.822   2.782  21.504  0.00  0.00    +0.000 C 
BRANCH   5   7
ATOM      7  C   UNL     1       1.946   5.024  21.305  0.00  0.00    +0.000 C 
BRANCH   7  11
ATOM      8  C   UNL     1       1.945   8.635  18.924  0.00  0.00    +0.000 A 
ATOM      9  C   UNL     1       2.531   7.468  18.431  0.00  0.00    +0.000 A 
ATOM     10  C   UNL     1       2.501   6.292  19.183  0.00  0.00    +0.000 A 
ATOM     11  C   UNL     1       1.910   6.276  20.453  0.00  0.00    +0.000 A 
ATOM     12  C   UNL     1       1.356   7.463  20.957  0.00  0.00    +0.000 A 
ATOM     13  C   UNL     1       1.377   8.635  20.197  0.00  0.00    +0.000 A 
BRANCH   8  15
ATOM     14  C   UNL     1       0.930  10.637  18.213  0.00  0.00    +0.000 C 
ATOM     15  O   UNL     1       2.020   9.727  18.103  0.00  0.00    +0.000 OA
ENDBRANCH   8  15
ENDBRANCH   7  11
ENDBRANCH   5   7
ENDBRANCH   4   5
ENDBRANCH   1   4
BRANCH   1  16
ATOM     16  C   UNL     1       2.774   2.028  18.059  0.00  0.00    +0.000 C 
BRANCH  16  17
ATOM     17  O   UNL     1       2.795   3.054  17.064  0.00  0.00    +0.000 OA
BRANCH  17  18
ATOM     18  C   UNL     1       3.972   3.766  17.027  0.00  0.00    +0.000 A 
ATOM     19  C   UNL     1       4.511   3.956  15.766  0.00  0.00    +0.000 A 
ATOM     20  C   UNL     1       5.640   4.777  15.603  0.00  0.00    +0.000 A 
ATOM     21  C   UNL     1       6.252   5.369  16.698  0.00  0.00    +0.000 A 
ATOM     22  N   UNL     1       7.160   6.341  16.527  0.00  0.00    +0.000 NA
ATOM     23  C   UNL     1       7.763   6.803  17.631  0.00  0.00    +0.000 A 
ATOM     24  C   UNL     1       7.717   6.201  18.859  0.00  0.00    +0.000 A 
ATOM     25  C   UNL     1       6.648   5.343  19.071  0.00  0.00    +0.000 A 
ATOM     26  C   UNL     1       5.843   4.973  17.974  0.00  0.00    +0.000 A 
ATOM     27  C   UNL     1       4.644   4.260  18.149  0.00  0.00    +0.000 A 
BRANCH  23  28
ATOM     28  O   UNL     1       7.709   8.186  17.733  0.00  0.00    +0.000 OA
ATOM     29  H   UNL     1       6.761   8.329  17.535  0.00  0.00    +0.000 HD
ENDBRANCH  23  28
ENDBRANCH  17  18
ENDBRANCH  16  17
ENDBRANCH   1  16
TORSDOF 10
ENDMDL
MODEL 8
REMARK VINA RESULT:      -6.8      4.565      7.568
REMARK  Name = 
REMARK  12 active torsions:
REMARK  status: ('A' for Active; 'I' for Inactive)
REMARK    1  A    between atoms: C_1  and  O_2
REMARK    2  A    between atoms: O_2  and  C_3
REMARK    3  A    between atoms: C_6  and  C_7
REMARK    4  A    between atoms: C_7  and  N_8
REMARK    5  A    between atoms: N_8  and  C_9
REMARK    6  A    between atoms: N_8  and  C_10
REMARK    7  A    between atoms: C_10  and  C_11
REMARK    8  A    between atoms: C_11  and  O_12
REMARK    9  A    between atoms: C_11  and  C_13
REMARK   10  A    between atoms: C_13  and  O_14
REMARK   11  A    between atoms: O_14  and  C_15
REMARK   12  A    between atoms: C_20  and  O_21
REMARK                            x       y       z     vdW  Elec       q    Type
REMARK                         _______ _______ _______ _____ _____    ______ ____
ROOT
ATOM      1  C   UNL     1       7.666   7.861  18.272  0.00  0.00    +0.000 C 
ENDROOT
BRANCH   1   2
ATOM      2  O   UNL     1       8.556   7.104  19.099  0.00  0.00    +0.000 OA
ATOM      3  H   UNL     1       8.218   6.185  19.092  0.00  0.00    +0.000 HD
ENDBRANCH   1   2
BRANCH   1   4
ATOM      4  C   UNL     1       7.286   7.013  17.029  0.00  0.00    +0.000 C 
BRANCH   4   5
ATOM      5  N   UNL     1       6.631   5.700  17.244  0.00  0.00    +0.000 NA
ATOM      6  C   UNL     1       7.251   4.611  16.465  0.00  0.00    +0.000 C 
BRANCH   5   7
ATOM      7  C   UNL     1       5.196   5.800  16.909  0.00  0.00    +0.000 C 
BRANCH   7  11
ATOM      8  C   UNL     1       2.613   3.271  19.285  0.00  0.00    +0.000 A 
ATOM      9  C   UNL     1       2.638   3.143  17.895  0.00  0.00    +0.000 A 
ATOM     10  C   UNL     1       3.497   3.933  17.129  0.00  0.00    +0.000 A 
ATOM     11  C   UNL     1       4.323   4.885  17.743  0.00  0.00    +0.000 A 
ATOM     12  C   UNL     1       4.265   5.033  19.137  0.00  0.00    +0.000 A 
ATOM     13  C   UNL     1       3.413   4.232  19.902  0.00  0.00    +0.000 A 
BRANCH   8  15
ATOM     14  C   UNL     1       1.305   2.913  21.210  0.00  0.00    +0.000 C 
ATOM     15  O   UNL     1       1.745   2.441  19.940  0.00  0.00    +0.000 OA
ENDBRANCH   8  15
ENDBRANCH   7  11
ENDBRANCH   5   7
ENDBRANCH   4   5
ENDBRANCH   1   4
BRANCH   1  16
ATOM     16  C   UNL     1       8.282   9.220  17.909  0.00  0.00    +0.000 C 
BRANCH  16  17
ATOM     17  O   UNL     1       9.210   9.662  18.902  0.00  0.00    +0.000 OA
BRANCH  17  18
ATOM     18  C   UNL     1       9.644  10.955  18.719  0.00  0.00    +0.000 A 
ATOM     19  C   UNL     1      10.990  11.168  18.962  0.00  0.00    +0.000 A 
ATOM     20  C   UNL     1      11.562  12.422  18.683  0.00  0.00    +0.000 A 
ATOM     21  C   UNL     1      10.785  13.467  18.206  0.00  0.00    +0.000 A 
ATOM     22  N   UNL     1      11.361  14.569  17.706  0.00  0.00    +0.000 NA
ATOM     23  C   UNL     1      10.542  15.565  17.341  0.00  0.00    +0.000 A 
ATOM     24  C   UNL     1       9.216  15.647  17.669  0.00  0.00    +0.000 A 
ATOM     25  C   UNL     1       8.599  14.450  17.998  0.00  0.00    +0.000 A 
ATOM     26  C   UNL     1       9.397  13.305  18.199  0.00  0.00    +0.000 A 
ATOM     27  C   UNL     1       8.828  12.028  18.351  0.00  0.00    +0.000 A 
BRANCH  23  28
ATOM     28  O   UNL     1      10.781  16.012  16.050  0.00  0.00    +0.000 OA
ATOM     29  H   UNL     1      11.293  15.252  15.704  0.00  0.00    +0.000 HD
ENDBRANCH  23  28
ENDBRANCH  17  18
ENDBRANCH  16  17
ENDBRANCH   1  16
TORSDOF 10
ENDMDL
MODEL 9
REMARK VINA RESULT:      -6.8      2.374      5.969
REMARK  Name = 
REMARK  12 active torsions:
REMARK  status: ('A' for Active; 'I' for Inactive)
REMARK    1  A    between atoms: C_1  and  O_2
REMARK    2  A    between atoms: O_2  and  C_3
REMARK    3  A    between atoms: C_6  and  C_7
REMARK    4  A    between atoms: C_7  and  N_8
REMARK    5  A    between atoms: N_8  and  C_9
REMARK    6  A    between atoms: N_8  and  C_10
REMARK    7  A    between atoms: C_10  and  C_11
REMARK    8  A    between atoms: C_11  and  O_12
REMARK    9  A    between atoms: C_11  and  C_13
REMARK   10  A    between atoms: C_13  and  O_14
REMARK   11  A    between atoms: O_14  and  C_15
REMARK   12  A    between atoms: C_20  and  O_21
REMARK                            x       y       z     vdW  Elec       q    Type
REMARK                         _______ _______ _______ _____ _____    ______ ____
ROOT
ATOM      1  C   UNL     1       1.663   3.175  20.838  0.00  0.00    +0.000 C 
ENDROOT
BRANCH   1   2
ATOM      2  O   UNL     1       1.937   3.036  22.237  0.00  0.00    +0.000 OA
ATOM      3  H   UNL     1       2.669   3.655  22.433  0.00  0.00    +0.000 HD
ENDBRANCH   1   2
BRANCH   1   4
ATOM      4  C   UNL     1       2.930   2.783  20.033  0.00  0.00    +0.000 C 
BRANCH   4   5
ATOM      5  N   UNL     1       2.755   2.228  18.669  0.00  0.00    +0.000 NA
ATOM      6  C   UNL     1       3.806   1.261  18.299  0.00  0.00    +0.000 C 
BRANCH   5   7
ATOM      7  C   UNL     1       2.720   3.329  17.685  0.00  0.00    +0.000 C 
BRANCH   7  11
ATOM      8  C   UNL     1       6.488   5.381  17.135  0.00  0.00    +0.000 A 
ATOM      9  C   UNL     1       5.829   5.440  18.364  0.00  0.00    +0.000 A 
ATOM     10  C   UNL     1       4.631   4.749  18.555  0.00  0.00    +0.000 A 
ATOM     11  C   UNL     1       4.060   4.014  17.507  0.00  0.00    +0.000 A 
ATOM     12  C   UNL     1       4.710   3.991  16.264  0.00  0.00    +0.000 A 
ATOM     13  C   UNL     1       5.916   4.673  16.079  0.00  0.00    +0.000 A 
BRANCH   8  15
ATOM     14  C   UNL     1       7.596   7.414  17.564  0.00  0.00    +0.000 C 
ATOM     15  O   UNL     1       7.660   6.084  17.059  0.00  0.00    +0.000 OA
ENDBRANCH   8  15
ENDBRANCH   7  11
ENDBRANCH   5   7
ENDBRANCH   4   5
ENDBRANCH   1   4
BRANCH   1  16
ATOM     16  C   UNL     1       1.161   4.591  20.519  0.00  0.00    +0.000 C 
BRANCH  16  17
ATOM     17  O   UNL     1       2.073   5.591  20.979  0.00  0.00    +0.000 OA
BRANCH  17  18
ATOM     18  C   UNL     1       1.847   6.838  20.442  0.00  0.00    +0.000 A 
ATOM     19  C   UNL     1       2.380   7.046  19.182  0.00  0.00    +0.000 A 
ATOM     20  C   UNL     1       2.098   8.237  18.490  0.00  0.00    +0.000 A 
ATOM     21  C   UNL     1       1.326   9.231  19.073  0.00  0.00    +0.000 A 
ATOM     22  N   UNL     1       0.851  10.244  18.334  0.00  0.00    +0.000 NA
ATOM     23  C   UNL     1       0.183  11.205  18.987  0.00  0.00    +0.000 A 
ATOM     24  C   UNL     1       0.170  11.364  20.346  0.00  0.00    +0.000 A 
ATOM     25  C   UNL     1       0.481  10.235  21.090  0.00  0.00    +0.000 A 
ATOM     26  C   UNL     1       1.005   9.106  20.427  0.00  0.00    +0.000 A 
ATOM     27  C   UNL     1       1.167   7.875  21.087  0.00  0.00    +0.000 A 
BRANCH  23  28
ATOM     28  O   UNL     1      -1.056  11.475  18.426  0.00  0.00    +0.000 OA
ATOM     29  H   UNL     1      -0.915  12.404  18.151  0.00  0.00    +0.000 HD
ENDBRANCH  23  28
ENDBRANCH  17  18
ENDBRANCH  16  17
ENDBRANCH   1  16
TORSDOF 10
ENDMDL
