MODEL 1
REMARK VINA RESULT:      -6.1      0.000      0.000
REMARK  Name = 
REMARK  2 active torsions:
REMARK  status: ('A' for Active; 'I' for Inactive)
REMARK    1  A    between atoms: C_2  and  C_3
REMARK    2  A    between atoms: C_3  and  C_4
REMARK                            x       y       z     vdW  Elec       q    Type
REMARK                         _______ _______ _______ _____ _____    ______ ____
ROOT
ATOM      1  C   UNL     1       5.376   4.840  18.351  0.00  0.00    +0.000 C 
ATOM      2  O   UNL     1       6.469   4.269  18.395  0.00  0.00    +0.000 OA
ATOM      3  N   UNL     1       4.245   4.265  18.939  0.00  0.00    +0.000 N 
ATOM      4  C   UNL     1       4.415   3.024  19.711  0.00  0.00    +0.000 C 
ATOM      5  C   UNL     1       3.637   1.828  19.155  0.00  0.00    +0.000 C 
ATOM      6  O   UNL     1       2.244   1.992  19.436  0.00  0.00    +0.000 OA
ATOM      7  C   UNL     1       1.497   2.565  18.360  0.00  0.00    +0.000 C 
ATOM      8  C   UNL     1       2.057   3.853  17.750  0.00  0.00    +0.000 C 
ATOM      9  F   UNL     1       1.025   4.587  17.249  0.00  0.00    +0.000 F 
ATOM     10  F   UNL     1       2.840   3.546  16.676  0.00  0.00    +0.000 F 
ATOM     11  C   UNL     1       2.859   4.725  18.723  0.00  0.00    +0.000 C 
ENDROOT
BRANCH   1  12
ATOM     12  C   UNL     1       5.224   6.206  17.702  0.00  0.00    +0.000 C 
BRANCH  12  14
ATOM     13  N   UNL     1       7.666   7.159  16.776  0.00  0.00    +0.000 NA
ATOM     14  C   UNL     1       6.559   6.727  17.196  0.00  0.00    +0.000 C 
ENDBRANCH  12  14
ENDBRANCH   1  12
TORSDOF 2
ENDMDL
MODEL 2
REMARK VINA RESULT:      -6.1      2.600      4.752
REMARK  Name = 
REMARK  2 active torsions:
REMARK  status: ('A' for Active; 'I' for Inactive)
REMARK    1  A    between atoms: C_2  and  C_3
REMARK    2  A    between atoms: C_3  and  C_4
REMARK                            x       y       z     vdW  Elec       q    Type
REMARK                         _______ _______ _______ _____ _____    ______ ____
ROOT
ATOM      1  C   UNL     1       3.606   5.036  18.440  0.00  0.00    +0.000 C 
ATOM      2  O   UNL     1       3.673   5.702  19.476  0.00  0.00    +0.000 OA
ATOM      3  N   UNL     1       4.754   4.466  17.881  0.00  0.00    +0.000 N 
ATOM      4  C   UNL     1       6.022   4.582  18.619  0.00  0.00    +0.000 C 
ATOM      5  C   UNL     1       7.116   5.347  17.869  0.00  0.00    +0.000 C 
ATOM      6  O   UNL     1       7.630   4.532  16.812  0.00  0.00    +0.000 OA
ATOM      7  C   UNL     1       7.032   4.785  15.538  0.00  0.00    +0.000 C 
ATOM      8  C   UNL     1       5.502   4.789  15.491  0.00  0.00    +0.000 C 
ATOM      9  F   UNL     1       5.100   4.412  14.246  0.00  0.00    +0.000 F 
ATOM     10  F   UNL     1       5.043   6.064  15.650  0.00  0.00    +0.000 F 
ATOM     11  C   UNL     1       4.828   3.881  16.527  0.00  0.00    +0.000 C 
ENDROOT
BRANCH   1  12
ATOM     12  C   UNL     1       2.274   4.765  17.760  0.00  0.00    +0.000 C 
BRANCH  12  14
ATOM     13  N   UNL     1       0.991   2.574  18.893  0.00  0.00    +0.000 NA
ATOM     14  C   UNL     1       1.573   3.567  18.379  0.00  0.00    +0.000 C 
ENDBRANCH  12  14
ENDBRANCH   1  12
TORSDOF 2
ENDMDL
MODEL 3
REMARK VINA RESULT:      -5.9      2.228      2.679
REMARK  Name = 
REMARK  2 active torsions:
REMARK  status: ('A' for Active; 'I' for Inactive)
REMARK    1  A    between atoms: C_2  and  C_3
REMARK    2  A    between atoms: C_3  and  C_4
REMARK                            x       y       z     vdW  Elec       q    Type
REMARK                         _______ _______ _______ _____ _____    ______ ____
ROOT
ATOM      1  C   UNL     1       4.392   5.351  17.041  0.00  0.00    +0.000 C 
ATOM      2  O   UNL     1       4.613   6.509  17.404  0.00  0.00    +0.000 OA
ATOM      3  N   UNL     1       3.268   4.660  17.504  0.00  0.00    +0.000 N 
ATOM      4  C   UNL     1       2.297   5.385  18.339  0.00  0.00    +0.000 C 
ATOM      5  C   UNL     1       2.128   4.809  19.748  0.00  0.00    +0.000 C 
ATOM      6  O   UNL     1       1.386   3.588  19.679  0.00  0.00    +0.000 OA
ATOM      7  C   UNL     1       2.200   2.414  19.648  0.00  0.00    +0.000 C 
ATOM      8  C   UNL     1       3.329   2.392  18.613  0.00  0.00    +0.000 C 
ATOM      9  F   UNL     1       3.578   1.101  18.260  0.00  0.00    +0.000 F 
ATOM     10  F   UNL     1       4.482   2.841  19.186  0.00  0.00    +0.000 F 
ATOM     11  C   UNL     1       3.049   3.208  17.345  0.00  0.00    +0.000 C 
ENDROOT
BRANCH   1  12
ATOM     12  C   UNL     1       5.298   4.649  16.044  0.00  0.00    +0.000 C 
BRANCH  12  14
ATOM     13  N   UNL     1       7.892   4.428  17.020  0.00  0.00    +0.000 NA
ATOM     14  C   UNL     1       6.716   4.528  16.578  0.00  0.00    +0.000 C 
ENDBRANCH  12  14
ENDBRANCH   1  12
TORSDOF 2
ENDMDL
MODEL 4
REMARK VINA RESULT:      -5.8      1.798      2.069
REMARK  Name = 
REMARK  2 active torsions:
REMARK  status: ('A' for Active; 'I' for Inactive)
REMARK    1  A    between atoms: C_2  and  C_3
REMARK    2  A    between atoms: C_3  and  C_4
REMARK                            x       y       z     vdW  Elec       q    Type
REMARK                         _______ _______ _______ _____ _____    ______ ____
ROOT
ATOM      1  C   UNL     1       4.875   4.326  17.869  0.00  0.00    +0.000 C 
ATOM      2  O   UNL     1       5.236   3.851  16.789  0.00  0.00    +0.000 OA
ATOM      3  N   UNL     1       4.013   3.615  18.710  0.00  0.00    +0.000 N 
ATOM      4  C   UNL     1       3.642   2.243  18.329  0.00  0.00    +0.000 C 
ATOM      5  C   UNL     1       2.141   2.042  18.096  0.00  0.00    +0.000 C 
ATOM      6  O   UNL     1       1.458   2.041  19.353  0.00  0.00    +0.000 OA
ATOM      7  C   UNL     1       0.903   3.308  19.714  0.00  0.00    +0.000 C 
ATOM      8  C   UNL     1       1.843   4.513  19.637  0.00  0.00    +0.000 C 
ATOM      9  F   UNL     1       1.441   5.443  20.546  0.00  0.00    +0.000 F 
ATOM     10  F   UNL     1       1.716   5.115  18.420  0.00  0.00    +0.000 F 
ATOM     11  C   UNL     1       3.322   4.187  19.883  0.00  0.00    +0.000 C 
ENDROOT
BRANCH   1  12
ATOM     12  C   UNL     1       5.389   5.672  18.351  0.00  0.00    +0.000 C 
BRANCH  12  14
ATOM     13  N   UNL     1       7.607   5.371  20.001  0.00  0.00    +0.000 NA
ATOM     14  C   UNL     1       6.602   5.508  19.253  0.00  0.00    +0.000 C 
ENDBRANCH  12  14
ENDBRANCH   1  12
TORSDOF 2
ENDMDL
MODEL 5
REMARK VINA RESULT:      -5.8      1.637      1.955
REMARK  Name = 
REMARK  2 active torsions:
REMARK  status: ('A' for Active; 'I' for Inactive)
REMARK    1  A    between atoms: C_2  and  C_3
REMARK    2  A    between atoms: C_3  and  C_4
REMARK                            x       y       z     vdW  Elec       q    Type
REMARK                         _______ _______ _______ _____ _____    ______ ____
ROOT
ATOM      1  C   UNL     1       5.165   4.919  18.690  0.00  0.00    +0.000 C 
ATOM      2  O   UNL     1       5.774   5.397  19.650  0.00  0.00    +0.000 OA
ATOM      3  N   UNL     1       3.772   4.794  18.717  0.00  0.00    +0.000 N 
ATOM      4  C   UNL     1       3.045   5.353  19.868  0.00  0.00    +0.000 C 
ATOM      5  C   UNL     1       2.263   4.316  20.679  0.00  0.00    +0.000 C 
ATOM      6  O   UNL     1       1.102   3.912  19.947  0.00  0.00    +0.000 OA
ATOM      7  C   UNL     1       1.280   2.711  19.192  0.00  0.00    +0.000 C 
ATOM      8  C   UNL     1       2.511   2.650  18.284  0.00  0.00    +0.000 C 
ATOM      9  F   UNL     1       2.241   1.832  17.230  0.00  0.00    +0.000 F 
ATOM     10  F   UNL     1       3.541   2.055  18.951  0.00  0.00    +0.000 F 
ATOM     11  C   UNL     1       2.979   4.009  17.750  0.00  0.00    +0.000 C 
ENDROOT
BRANCH   1  12
ATOM     12  C   UNL     1       5.892   4.494  17.425  0.00  0.00    +0.000 C 
BRANCH  12  14
ATOM     13  N   UNL     1       7.525   6.531  16.468  0.00  0.00    +0.000 NA
ATOM     14  C   UNL     1       6.785   5.608  16.902  0.00  0.00    +0.000 C 
ENDBRANCH  12  14
ENDBRANCH   1  12
TORSDOF 2
ENDMDL
MODEL 6
REMARK VINA RESULT:      -5.8      2.367      2.875
REMARK  Name = 
REMARK  2 active torsions:
REMARK  status: ('A' for Active; 'I' for Inactive)
REMARK    1  A    between atoms: C_2  and  C_3
REMARK    2  A    between atoms: C_3  and  C_4
REMARK                            x       y       z     vdW  Elec       q    Type
REMARK                         _______ _______ _______ _____ _____    ______ ____
ROOT
ATOM      1  C   UNL     1       6.811   4.523  16.327  0.00  0.00    +0.000 C 
ATOM      2  O   UNL     1       7.945   4.391  16.796  0.00  0.00    +0.000 OA
ATOM      3  N   UNL     1       5.765   5.016  17.112  0.00  0.00    +0.000 N 
ATOM      4  C   UNL     1       6.075   5.483  18.473  0.00  0.00    +0.000 C 
ATOM      5  C   UNL     1       5.355   4.707  19.581  0.00  0.00    +0.000 C 
ATOM      6  O   UNL     1       3.974   5.078  19.604  0.00  0.00    +0.000 OA
ATOM      7  C   UNL     1       3.121   4.191  18.876  0.00  0.00    +0.000 C 
ATOM      8  C   UNL     1       3.544   3.861  17.442  0.00  0.00    +0.000 C 
ATOM      9  F   UNL     1       2.432   3.582  16.708  0.00  0.00    +0.000 F 
ATOM     10  F   UNL     1       4.281   2.713  17.436  0.00  0.00    +0.000 F 
ATOM     11  C   UNL     1       4.337   4.969  16.738  0.00  0.00    +0.000 C 
ENDROOT
BRANCH   1  12
ATOM     12  C   UNL     1       6.517   4.204  14.870  0.00  0.00    +0.000 C 
BRANCH  12  14
ATOM     13  N   UNL     1       8.156   5.668  13.167  0.00  0.00    +0.000 NA
ATOM     14  C   UNL     1       7.413   5.004  13.939  0.00  0.00    +0.000 C 
ENDBRANCH  12  14
ENDBRANCH   1  12
TORSDOF 2
ENDMDL
MODEL 7
REMARK VINA RESULT:      -5.8      1.579      1.798
REMARK  Name = 
REMARK  2 active torsions:
REMARK  status: ('A' for Active; 'I' for Inactive)
REMARK    1  A    between atoms: C_2  and  C_3
REMARK    2  A    between atoms: C_3  and  C_4
REMARK                            x       y       z     vdW  Elec       q    Type
REMARK                         _______ _______ _______ _____ _____    ______ ____
ROOT
ATOM      1  C   UNL     1       4.613   4.375  17.612  0.00  0.00    +0.000 C 
ATOM      2  O   UNL     1       4.867   3.667  16.635  0.00  0.00    +0.000 OA
ATOM      3  N   UNL     1       3.984   3.837  18.740  0.00  0.00    +0.000 N 
ATOM      4  C   UNL     1       3.741   2.386  18.778  0.00  0.00    +0.000 C 
ATOM      5  C   UNL     1       2.261   2.002  18.869  0.00  0.00    +0.000 C 
ATOM      6  O   UNL     1       1.778   2.271  20.189  0.00  0.00    +0.000 OA
ATOM      7  C   UNL     1       1.123   3.535  20.322  0.00  0.00    +0.000 C 
ATOM      8  C   UNL     1       1.879   4.755  19.788  0.00  0.00    +0.000 C 
ATOM      9  F   UNL     1       1.499   5.852  20.499  0.00  0.00    +0.000 F 
ATOM     10  F   UNL     1       1.495   5.003  18.503  0.00  0.00    +0.000 F 
ATOM     11  C   UNL     1       3.407   4.634  19.841  0.00  0.00    +0.000 C 
ENDROOT
BRANCH   1  12
ATOM     12  C   UNL     1       5.014   5.840  17.653  0.00  0.00    +0.000 C 
BRANCH  12  14
ATOM     13  N   UNL     1       7.407   6.267  16.301  0.00  0.00    +0.000 NA
ATOM     14  C   UNL     1       6.322   6.073  16.914  0.00  0.00    +0.000 C 
ENDBRANCH  12  14
ENDBRANCH   1  12
TORSDOF 2
ENDMDL
MODEL 8
REMARK VINA RESULT:      -5.8      2.560      5.258
REMARK  Name = 
REMARK  2 active torsions:
REMARK  status: ('A' for Active; 'I' for Inactive)
REMARK    1  A    between atoms: C_2  and  C_3
REMARK    2  A    between atoms: C_3  and  C_4
REMARK                            x       y       z     vdW  Elec       q    Type
REMARK                         _______ _______ _______ _____ _____    ______ ____
ROOT
ATOM      1  C   UNL     1       3.699   4.075  18.735  0.00  0.00    +0.000 C 
ATOM      2  O   UNL     1       2.552   4.159  18.289  0.00  0.00    +0.000 OA
ATOM      3  N   UNL     1       4.624   5.103  18.526  0.00  0.00    +0.000 N 
ATOM      4  C   UNL     1       4.161   6.334  17.865  0.00  0.00    +0.000 C 
ATOM      5  C   UNL     1       4.867   6.636  16.539  0.00  0.00    +0.000 C 
ATOM      6  O   UNL     1       6.197   7.095  16.799  0.00  0.00    +0.000 OA
ATOM      7  C   UNL     1       7.191   6.070  16.722  0.00  0.00    +0.000 C 
ATOM      8  C   UNL     1       6.918   4.792  17.519  0.00  0.00    +0.000 C 
ATOM      9  F   UNL     1       8.108   4.231  17.870  0.00  0.00    +0.000 F 
ATOM     10  F   UNL     1       6.306   3.875  16.717  0.00  0.00    +0.000 F 
ATOM     11  C   UNL     1       6.074   4.995  18.783  0.00  0.00    +0.000 C 
ENDROOT
BRANCH   1  12
ATOM     12  C   UNL     1       4.138   2.882  19.567  0.00  0.00    +0.000 C 
BRANCH  12  14
ATOM     13  N   UNL     1       2.597   2.637  21.869  0.00  0.00    +0.000 NA
ATOM     14  C   UNL     1       3.296   2.748  20.825  0.00  0.00    +0.000 C 
ENDBRANCH  12  14
ENDBRANCH   1  12
TORSDOF 2
ENDMDL
MODEL 9
REMARK VINA RESULT:      -5.7      2.923      5.354
REMARK  Name = 
REMARK  2 active torsions:
REMARK  status: ('A' for Active; 'I' for Inactive)
REMARK    1  A    between atoms: C_2  and  C_3
REMARK    2  A    between atoms: C_3  and  C_4
REMARK                            x       y       z     vdW  Elec       q    Type
REMARK                         _______ _______ _______ _____ _____    ______ ____
ROOT
ATOM      1  C   UNL     1       4.214   3.578  18.361  0.00  0.00    +0.000 C 
ATOM      2  O   UNL     1       3.492   3.117  17.474  0.00  0.00    +0.000 OA
ATOM      3  N   UNL     1       4.747   4.866  18.252  0.00  0.00    +0.000 N 
ATOM      4  C   UNL     1       4.330   5.699  17.113  0.00  0.00    +0.000 C 
ATOM      5  C   UNL     1       5.477   6.109  16.184  0.00  0.00    +0.000 C 
ATOM      6  O   UNL     1       6.273   7.112  16.821  0.00  0.00    +0.000 OA
ATOM      7  C   UNL     1       7.429   6.599  17.489  0.00  0.00    +0.000 C 
ATOM      8  C   UNL     1       7.200   5.431  18.452  0.00  0.00    +0.000 C 
ATOM      9  F   UNL     1       8.152   5.469  19.424  0.00  0.00    +0.000 F 
ATOM     10  F   UNL     1       7.397   4.253  17.795  0.00  0.00    +0.000 F 
ATOM     11  C   UNL     1       5.816   5.410  19.113  0.00  0.00    +0.000 C 
ENDROOT
BRANCH   1  12
ATOM     12  C   UNL     1       4.514   2.789  19.625  0.00  0.00    +0.000 C 
BRANCH  12  14
ATOM     13  N   UNL     1       2.301   2.704  21.307  0.00  0.00    +0.000 NA
ATOM     14  C   UNL     1       3.304   2.742  20.545  0.00  0.00    +0.000 C 
ENDBRANCH  12  14
ENDBRANCH   1  12
TORSDOF 2
ENDMDL
