MODEL 1
REMARK VINA RESULT:      -6.7      0.000      0.000
REMARK  Name = 
REMARK  3 active torsions:
REMARK  status: ('A' for Active; 'I' for Inactive)
REMARK    1  A    between atoms: C_4  and  C_5
REMARK    2  A    between atoms: C_5  and  C_6
REMARK    3  A    between atoms: C_6  and  O_7
REMARK                            x       y       z     vdW  Elec       q    Type
REMARK                         _______ _______ _______ _____ _____    ______ ____
ROOT
ATOM      1  O   UNL     1       3.811   1.549  17.676  0.00  0.00    +0.000 OA
ATOM      2  C   UNL     1       3.469   2.657  18.068  0.00  0.00    +0.000 A 
ATOM      3  O   UNL     1       2.592   2.823  19.108  0.00  0.00    +0.000 OA
ATOM      4  C   UNL     1       2.177   4.098  19.556  0.00  0.00    +0.000 A 
ATOM      5  C   UNL     1       2.614   5.229  18.987  0.00  0.00    +0.000 A 
ATOM      6  C   UNL     1       3.577   5.146  17.903  0.00  0.00    +0.000 A 
ATOM      7  C   UNL     1       4.104   6.308  17.327  0.00  0.00    +0.000 A 
ATOM      8  C   UNL     1       5.057   6.217  16.311  0.00  0.00    +0.000 A 
ATOM      9  C   UNL     1       5.477   4.965  15.863  0.00  0.00    +0.000 A 
ATOM     10 BR   UNL     1       6.780   4.849  14.499  0.00  0.00    +0.000 Br
ATOM     11  C   UNL     1       4.951   3.800  16.420  0.00  0.00    +0.000 A 
ATOM     12  C   UNL     1       4.003   3.895  17.448  0.00  0.00    +0.000 A 
ENDROOT
BRANCH   4  13
ATOM     13  C   UNL     1       1.217   4.081  20.718  0.00  0.00    +0.000 C 
BRANCH  13  14
ATOM     14  C   UNL     1       1.356   2.835  21.593  0.00  0.00    +0.000 C 
BRANCH  14  15
ATOM     15  O   UNL     1       2.708   2.635  21.990  0.00  0.00    +0.000 OA
ATOM     16  H   UNL     1       2.691   2.063  22.778  0.00  0.00    +0.000 HD
ENDBRANCH  14  15
ENDBRANCH  13  14
ENDBRANCH   4  13
TORSDOF 3
ENDMDL
MODEL 2
REMARK VINA RESULT:      -6.3      3.495      5.839
REMARK  Name = 
REMARK  3 active torsions:
REMARK  status: ('A' for Active; 'I' for Inactive)
REMARK    1  A    between atoms: C_4  and  C_5
REMARK    2  A    between atoms: C_5  and  C_6
REMARK    3  A    between atoms: C_6  and  O_7
REMARK                            x       y       z     vdW  Elec       q    Type
REMARK                         _______ _______ _______ _____ _____    ______ ____
ROOT
ATOM      1  O   UNL     1       6.421   4.941  19.690  0.00  0.00    +0.000 OA
ATOM      2  C   UNL     1       5.898   4.687  18.613  0.00  0.00    +0.000 A 
ATOM      3  O   UNL     1       6.565   4.838  17.425  0.00  0.00    +0.000 OA
ATOM      4  C   UNL     1       5.963   4.564  16.176  0.00  0.00    +0.000 A 
ATOM      5  C   UNL     1       4.697   4.141  16.073  0.00  0.00    +0.000 A 
ATOM      6  C   UNL     1       3.929   3.916  17.286  0.00  0.00    +0.000 A 
ATOM      7  C   UNL     1       2.624   3.415  17.220  0.00  0.00    +0.000 A 
ATOM      8  C   UNL     1       1.908   3.166  18.392  0.00  0.00    +0.000 A 
ATOM      9  C   UNL     1       2.492   3.429  19.631  0.00  0.00    +0.000 A 
ATOM     10 BR   UNL     1       1.522   3.076  21.215  0.00  0.00    +0.000 Br
ATOM     11  C   UNL     1       3.786   3.940  19.710  0.00  0.00    +0.000 A 
ATOM     12  C   UNL     1       4.507   4.178  18.531  0.00  0.00    +0.000 A 
ENDROOT
BRANCH   4  13
ATOM     13  C   UNL     1       6.857   4.779  14.981  0.00  0.00    +0.000 C 
BRANCH  13  14
ATOM     14  C   UNL     1       6.397   4.013  13.741  0.00  0.00    +0.000 C 
BRANCH  14  15
ATOM     15  O   UNL     1       7.148   4.393  12.594  0.00  0.00    +0.000 OA
ATOM     16  H   UNL     1       7.223   5.364  12.613  0.00  0.00    +0.000 HD
ENDBRANCH  14  15
ENDBRANCH  13  14
ENDBRANCH   4  13
TORSDOF 3
ENDMDL
MODEL 3
REMARK VINA RESULT:      -6.2      1.418      1.454
REMARK  Name = 
REMARK  3 active torsions:
REMARK  status: ('A' for Active; 'I' for Inactive)
REMARK    1  A    between atoms: C_4  and  C_5
REMARK    2  A    between atoms: C_5  and  C_6
REMARK    3  A    between atoms: C_6  and  O_7
REMARK                            x       y       z     vdW  Elec       q    Type
REMARK                         _______ _______ _______ _____ _____    ______ ____
ROOT
ATOM      1  O   UNL     1       2.405   3.121  16.602  0.00  0.00    +0.000 OA
ATOM      2  C   UNL     1       2.942   3.783  17.480  0.00  0.00    +0.000 A 
ATOM      3  O   UNL     1       2.395   3.915  18.731  0.00  0.00    +0.000 OA
ATOM      4  C   UNL     1       3.000   4.692  19.746  0.00  0.00    +0.000 A 
ATOM      5  C   UNL     1       4.147   5.353  19.548  0.00  0.00    +0.000 A 
ATOM      6  C   UNL     1       4.815   5.236  18.263  0.00  0.00    +0.000 A 
ATOM      7  C   UNL     1       6.048   5.861  18.041  0.00  0.00    +0.000 A 
ATOM      8  C   UNL     1       6.700   5.711  16.816  0.00  0.00    +0.000 A 
ATOM      9  C   UNL     1       6.116   4.944  15.808  0.00  0.00    +0.000 A 
ATOM     10 BR   UNL     1       7.012   4.732  14.158  0.00  0.00    +0.000 Br
ATOM     11  C   UNL     1       4.883   4.326  16.012  0.00  0.00    +0.000 A 
ATOM     12  C   UNL     1       4.236   4.469  17.247  0.00  0.00    +0.000 A 
ENDROOT
BRANCH   4  13
ATOM     13  C   UNL     1       2.257   4.710  21.057  0.00  0.00    +0.000 C 
BRANCH  13  14
ATOM     14  C   UNL     1       1.719   3.337  21.462  0.00  0.00    +0.000 C 
BRANCH  14  15
ATOM     15  O   UNL     1       0.635   2.945  20.628  0.00  0.00    +0.000 OA
ATOM     16  H   UNL     1       0.968   2.940  19.713  0.00  0.00    +0.000 HD
ENDBRANCH  14  15
ENDBRANCH  13  14
ENDBRANCH   4  13
TORSDOF 3
ENDMDL
MODEL 4
REMARK VINA RESULT:      -6.1      3.435      5.591
REMARK  Name = 
REMARK  3 active torsions:
REMARK  status: ('A' for Active; 'I' for Inactive)
REMARK    1  A    between atoms: C_4  and  C_5
REMARK    2  A    between atoms: C_5  and  C_6
REMARK    3  A    between atoms: C_6  and  O_7
REMARK                            x       y       z     vdW  Elec       q    Type
REMARK                         _______ _______ _______ _____ _____    ______ ____
ROOT
ATOM      1  O   UNL     1       6.043   4.665  19.672  0.00  0.00    +0.000 OA
ATOM      2  C   UNL     1       5.349   4.447  18.687  0.00  0.00    +0.000 A 
ATOM      3  O   UNL     1       5.800   4.677  17.413  0.00  0.00    +0.000 OA
ATOM      4  C   UNL     1       5.000   4.445  16.271  0.00  0.00    +0.000 A 
ATOM      5  C   UNL     1       3.744   3.989  16.362  0.00  0.00    +0.000 A 
ATOM      6  C   UNL     1       3.200   3.681  17.674  0.00  0.00    +0.000 A 
ATOM      7  C   UNL     1       1.915   3.142  17.803  0.00  0.00    +0.000 A 
ATOM      8  C   UNL     1       1.415   2.815  19.065  0.00  0.00    +0.000 A 
ATOM      9  C   UNL     1       2.196   3.035  20.199  0.00  0.00    +0.000 A 
ATOM     10 BR   UNL     1       1.521   2.574  21.903  0.00  0.00    +0.000 Br
ATOM     11  C   UNL     1       3.474   3.582  20.085  0.00  0.00    +0.000 A 
ATOM     12  C   UNL     1       3.976   3.899  18.816  0.00  0.00    +0.000 A 
ENDROOT
BRANCH   4  13
ATOM     13  C   UNL     1       5.671   4.746  14.955  0.00  0.00    +0.000 C 
BRANCH  13  14
ATOM     14  C   UNL     1       7.195   4.809  15.059  0.00  0.00    +0.000 C 
BRANCH  14  15
ATOM     15  O   UNL     1       7.617   6.018  15.679  0.00  0.00    +0.000 OA
ATOM     16  H   UNL     1       7.834   5.803  16.604  0.00  0.00    +0.000 HD
ENDBRANCH  14  15
ENDBRANCH  13  14
ENDBRANCH   4  13
TORSDOF 3
ENDMDL
MODEL 5
REMARK VINA RESULT:      -6.0      3.430      5.820
REMARK  Name = 
REMARK  3 active torsions:
REMARK  status: ('A' for Active; 'I' for Inactive)
REMARK    1  A    between atoms: C_4  and  C_5
REMARK    2  A    between atoms: C_5  and  C_6
REMARK    3  A    between atoms: C_6  and  O_7
REMARK                            x       y       z     vdW  Elec       q    Type
REMARK                         _______ _______ _______ _____ _____    ______ ____
ROOT
ATOM      1  O   UNL     1       3.079   7.032  18.744  0.00  0.00    +0.000 OA
ATOM      2  C   UNL     1       3.546   6.110  18.088  0.00  0.00    +0.000 A 
ATOM      3  O   UNL     1       4.319   6.325  16.976  0.00  0.00    +0.000 OA
ATOM      4  C   UNL     1       4.848   5.267  16.203  0.00  0.00    +0.000 A 
ATOM      5  C   UNL     1       4.623   3.983  16.505  0.00  0.00    +0.000 A 
ATOM      6  C   UNL     1       3.845   3.664  17.690  0.00  0.00    +0.000 A 
ATOM      7  C   UNL     1       3.642   2.332  18.072  0.00  0.00    +0.000 A 
ATOM      8  C   UNL     1       2.925   2.038  19.234  0.00  0.00    +0.000 A 
ATOM      9  C   UNL     1       2.402   3.073  20.007  0.00  0.00    +0.000 A 
ATOM     10 BR   UNL     1       1.447   2.667  21.587  0.00  0.00    +0.000 Br
ATOM     11  C   UNL     1       2.587   4.402  19.631  0.00  0.00    +0.000 A 
ATOM     12  C   UNL     1       3.316   4.695  18.471  0.00  0.00    +0.000 A 
ENDROOT
BRANCH   4  13
ATOM     13  C   UNL     1       5.683   5.699  15.024  0.00  0.00    +0.000 C 
BRANCH  13  14
ATOM     14  C   UNL     1       6.853   4.757  14.738  0.00  0.00    +0.000 C 
BRANCH  14  15
ATOM     15  O   UNL     1       7.981   5.474  14.249  0.00  0.00    +0.000 OA
ATOM     16  H   UNL     1       7.683   6.383  14.067  0.00  0.00    +0.000 HD
ENDBRANCH  14  15
ENDBRANCH  13  14
ENDBRANCH   4  13
TORSDOF 3
ENDMDL
MODEL 6
REMARK VINA RESULT:      -5.9      2.422      3.097
REMARK  Name = 
REMARK  3 active torsions:
REMARK  status: ('A' for Active; 'I' for Inactive)
REMARK    1  A    between atoms: C_4  and  C_5
REMARK    2  A    between atoms: C_5  and  C_6
REMARK    3  A    between atoms: C_6  and  O_7
REMARK                            x       y       z     vdW  Elec       q    Type
REMARK                         _______ _______ _______ _____ _____    ______ ____
ROOT
ATOM      1  O   UNL     1       7.975   4.902  18.447  0.00  0.00    +0.000 OA
ATOM      2  C   UNL     1       6.840   4.578  18.126  0.00  0.00    +0.000 A 
ATOM      3  O   UNL     1       5.878   4.273  19.055  0.00  0.00    +0.000 OA
ATOM      4  C   UNL     1       4.569   3.881  18.692  0.00  0.00    +0.000 A 
ATOM      5  C   UNL     1       4.185   3.778  17.414  0.00  0.00    +0.000 A 
ATOM      6  C   UNL     1       5.130   4.121  16.365  0.00  0.00    +0.000 A 
ATOM      7  C   UNL     1       4.744   4.087  15.020  0.00  0.00    +0.000 A 
ATOM      8  C   UNL     1       5.648   4.455  14.021  0.00  0.00    +0.000 A 
ATOM      9  C   UNL     1       6.941   4.848  14.366  0.00  0.00    +0.000 A 
ATOM     10 BR   UNL     1       8.155   5.360  13.011  0.00  0.00    +0.000 Br
ATOM     11  C   UNL     1       7.341   4.875  15.701  0.00  0.00    +0.000 A 
ATOM     12  C   UNL     1       6.428   4.515  16.702  0.00  0.00    +0.000 A 
ENDROOT
BRANCH   4  13
ATOM     13  C   UNL     1       3.649   3.595  19.852  0.00  0.00    +0.000 C 
BRANCH  13  14
ATOM     14  C   UNL     1       3.875   2.216  20.472  0.00  0.00    +0.000 C 
BRANCH  14  15
ATOM     15  O   UNL     1       5.191   1.743  20.205  0.00  0.00    +0.000 OA
ATOM     16  H   UNL     1       5.236   0.828  20.535  0.00  0.00    +0.000 HD
ENDBRANCH  14  15
ENDBRANCH  13  14
ENDBRANCH   4  13
TORSDOF 3
ENDMDL
MODEL 7
REMARK VINA RESULT:      -5.8      3.300      4.757
REMARK  Name = 
REMARK  3 active torsions:
REMARK  status: ('A' for Active; 'I' for Inactive)
REMARK    1  A    between atoms: C_4  and  C_5
REMARK    2  A    between atoms: C_5  and  C_6
REMARK    3  A    between atoms: C_6  and  O_7
REMARK                            x       y       z     vdW  Elec       q    Type
REMARK                         _______ _______ _______ _____ _____    ______ ____
ROOT
ATOM      1  O   UNL     1       2.194   4.797  21.463  0.00  0.00    +0.000 OA
ATOM      2  C   UNL     1       2.518   5.039  20.308  0.00  0.00    +0.000 A 
ATOM      3  O   UNL     1       3.070   4.085  19.492  0.00  0.00    +0.000 OA
ATOM      4  C   UNL     1       3.463   4.359  18.162  0.00  0.00    +0.000 A 
ATOM      5  C   UNL     1       3.326   5.573  17.615  0.00  0.00    +0.000 A 
ATOM      6  C   UNL     1       2.713   6.633  18.397  0.00  0.00    +0.000 A 
ATOM      7  C   UNL     1       2.495   7.897  17.837  0.00  0.00    +0.000 A 
ATOM      8  C   UNL     1       1.871   8.898  18.585  0.00  0.00    +0.000 A 
ATOM      9  C   UNL     1       1.475   8.639  19.896  0.00  0.00    +0.000 A 
ATOM     10 BR   UNL     1       0.617   9.993  20.897  0.00  0.00    +0.000 Br
ATOM     11  C   UNL     1       1.697   7.388  20.470  0.00  0.00    +0.000 A 
ATOM     12  C   UNL     1       2.313   6.382  19.713  0.00  0.00    +0.000 A 
ENDROOT
BRANCH   4  13
ATOM     13  C   UNL     1       4.041   3.183  17.416  0.00  0.00    +0.000 C 
BRANCH  13  14
ATOM     14  C   UNL     1       3.575   1.835  17.968  0.00  0.00    +0.000 C 
BRANCH  14  15
ATOM     15  O   UNL     1       2.154   1.753  17.990  0.00  0.00    +0.000 OA
ATOM     16  H   UNL     1       1.908   1.302  18.817  0.00  0.00    +0.000 HD
ENDBRANCH  14  15
ENDBRANCH  13  14
ENDBRANCH   4  13
TORSDOF 3
ENDMDL
MODEL 8
REMARK VINA RESULT:      -5.8      4.479      6.011
REMARK  Name = 
REMARK  3 active torsions:
REMARK  status: ('A' for Active; 'I' for Inactive)
REMARK    1  A    between atoms: C_4  and  C_5
REMARK    2  A    between atoms: C_5  and  C_6
REMARK    3  A    between atoms: C_6  and  O_7
REMARK                            x       y       z     vdW  Elec       q    Type
REMARK                         _______ _______ _______ _____ _____    ______ ____
ROOT
ATOM      1  O   UNL     1       7.841   5.185  20.343  0.00  0.00    +0.000 OA
ATOM      2  C   UNL     1       7.414   5.788  19.367  0.00  0.00    +0.000 A 
ATOM      3  O   UNL     1       8.042   6.897  18.862  0.00  0.00    +0.000 OA
ATOM      4  C   UNL     1       7.546   7.609  17.746  0.00  0.00    +0.000 A 
ATOM      5  C   UNL     1       6.425   7.246  17.112  0.00  0.00    +0.000 A 
ATOM      6  C   UNL     1       5.716   6.058  17.557  0.00  0.00    +0.000 A 
ATOM      7  C   UNL     1       4.576   5.613  16.878  0.00  0.00    +0.000 A 
ATOM      8  C   UNL     1       3.924   4.448  17.291  0.00  0.00    +0.000 A 
ATOM      9  C   UNL     1       4.406   3.735  18.388  0.00  0.00    +0.000 A 
ATOM     10 BR   UNL     1       3.529   2.152  18.931  0.00  0.00    +0.000 Br
ATOM     11  C   UNL     1       5.534   4.175  19.079  0.00  0.00    +0.000 A 
ATOM     12  C   UNL     1       6.192   5.337  18.656  0.00  0.00    +0.000 A 
ENDROOT
BRANCH   4  13
ATOM     13  C   UNL     1       8.379   8.795  17.330  0.00  0.00    +0.000 C 
BRANCH  13  14
ATOM     14  C   UNL     1       8.467   9.875  18.409  0.00  0.00    +0.000 C 
BRANCH  14  15
ATOM     15  O   UNL     1       9.286   9.451  19.493  0.00  0.00    +0.000 OA
ATOM     16  H   UNL     1      10.151   9.207  19.116  0.00  0.00    +0.000 HD
ENDBRANCH  14  15
ENDBRANCH  13  14
ENDBRANCH   4  13
TORSDOF 3
ENDMDL
MODEL 9
REMARK VINA RESULT:      -5.8      4.822      6.711
REMARK  Name = 
REMARK  3 active torsions:
REMARK  status: ('A' for Active; 'I' for Inactive)
REMARK    1  A    between atoms: C_4  and  C_5
REMARK    2  A    between atoms: C_5  and  C_6
REMARK    3  A    between atoms: C_6  and  O_7
REMARK                            x       y       z     vdW  Elec       q    Type
REMARK                         _______ _______ _______ _____ _____    ______ ____
ROOT
ATOM      1  O   UNL     1       8.485   5.698  13.736  0.00  0.00    +0.000 OA
ATOM      2  C   UNL     1       7.459   5.041  13.861  0.00  0.00    +0.000 A 
ATOM      3  O   UNL     1       6.849   4.433  12.795  0.00  0.00    +0.000 OA
ATOM      4  C   UNL     1       5.655   3.687  12.927  0.00  0.00    +0.000 A 
ATOM      5  C   UNL     1       5.041   3.530  14.106  0.00  0.00    +0.000 A 
ATOM      6  C   UNL     1       5.642   4.109  15.296  0.00  0.00    +0.000 A 
ATOM      7  C   UNL     1       5.062   3.912  16.555  0.00  0.00    +0.000 A 
ATOM      8  C   UNL     1       5.668   4.440  17.697  0.00  0.00    +0.000 A 
ATOM      9  C   UNL     1       6.848   5.174  17.579  0.00  0.00    +0.000 A 
ATOM     10 BR   UNL     1       7.671   5.873  19.131  0.00  0.00    +0.000 Br
ATOM     11  C   UNL     1       7.429   5.388  16.330  0.00  0.00    +0.000 A 
ATOM     12  C   UNL     1       6.824   4.846  15.188  0.00  0.00    +0.000 A 
ENDROOT
BRANCH   4  13
ATOM     13  C   UNL     1       5.139   3.085  11.645  0.00  0.00    +0.000 C 
BRANCH  13  14
ATOM     14  C   UNL     1       5.770   1.731  11.321  0.00  0.00    +0.000 C 
BRANCH  14  15
ATOM     15  O   UNL     1       7.186   1.779  11.456  0.00  0.00    +0.000 OA
ATOM     16  H   UNL     1       7.376   2.259  12.281  0.00  0.00    +0.000 HD
ENDBRANCH  14  15
ENDBRANCH  13  14
ENDBRANCH   4  13
TORSDOF 3
ENDMDL
