MODEL 1
REMARK VINA RESULT:      -7.5      0.000      0.000
REMARK  Name = 
REMARK  5 active torsions:
REMARK  status: ('A' for Active; 'I' for Inactive)
REMARK    1  A    between atoms: C_2  and  C_3
REMARK    2  A    between atoms: C_6  and  C_7
REMARK    3  A    between atoms: C_10  and  N_11
REMARK    4  A    between atoms: N_11  and  C_12
REMARK    5  A    between atoms: C_12  and  C_13
REMARK                            x       y       z     vdW  Elec       q    Type
REMARK                         _______ _______ _______ _____ _____    ______ ____
ROOT
ATOM      1  C   UNL     1       6.389   4.095  14.391  0.00  0.00    +0.000 A 
ATOM      2  C   UNL     1       7.251   5.139  14.644  0.00  0.00    +0.000 A 
ATOM      3  N   UNL     1       7.454   5.621  15.894  0.00  0.00    +0.000 NA
ATOM      4  C   UNL     1       6.745   5.005  16.905  0.00  0.00    +0.000 A 
ATOM      5  C   UNL     1       5.836   3.950  16.657  0.00  0.00    +0.000 A 
ATOM      6  N   UNL     1       5.675   3.492  15.380  0.00  0.00    +0.000 NA
ENDROOT
BRANCH   4   7
ATOM      7  C   UNL     1       7.087   5.587  18.266  0.00  0.00    +0.000 C 
ATOM      8  N   UNL     1       7.753   6.788  18.253  0.00  0.00    +0.000 N 
ATOM      9  O   UNL     1       6.830   5.094  19.353  0.00  0.00    +0.000 OA
ATOM     10  H   UNL     1       8.071   7.193  17.381  0.00  0.00    +0.000 HD
ATOM     11  H   UNL     1       8.045   7.179  19.139  0.00  0.00    +0.000 HD
ENDBRANCH   4   7
BRANCH   1  13
ATOM     12  N   UNL     1       6.058   3.149  11.997  0.00  0.00    +0.000 NA
ATOM     13  C   UNL     1       6.201   3.601  13.057  0.00  0.00    +0.000 C 
ENDBRANCH   1  13
BRANCH   5  14
ATOM     14  N   UNL     1       5.037   3.238  17.536  0.00  0.00    +0.000 N 
ATOM     15  H   UNL     1       5.480   2.358  17.763  0.00  0.00    +0.000 HD
BRANCH  14  16
ATOM     16  C   UNL     1       3.597   3.236  17.373  0.00  0.00    +0.000 C 
BRANCH  16  17
ATOM     17  C   UNL     1       2.733   3.718  18.519  0.00  0.00    +0.000 A 
ATOM     18  C   UNL     1       1.920   2.721  19.107  0.00  0.00    +0.000 A 
ATOM     19  C   UNL     1       1.054   3.006  20.159  0.00  0.00    +0.000 A 
ATOM     20  C   UNL     1       0.980   4.303  20.649  0.00  0.00    +0.000 A 
ATOM     21  C   UNL     1       1.781   5.299  20.085  0.00  0.00    +0.000 A 
ATOM     22 CL   UNL     1       1.676   6.903  20.705  0.00  0.00    +0.000 Cl
ATOM     23  C   UNL     1       2.658   5.017  19.027  0.00  0.00    +0.000 A 
ENDBRANCH  16  17
ENDBRANCH  14  16
ENDBRANCH   5  14
TORSDOF 5
ENDMDL
MODEL 2
REMARK VINA RESULT:      -7.4      1.232      1.573
REMARK  Name = 
REMARK  5 active torsions:
REMARK  status: ('A' for Active; 'I' for Inactive)
REMARK    1  A    between atoms: C_2  and  C_3
REMARK    2  A    between atoms: C_6  and  C_7
REMARK    3  A    between atoms: C_10  and  N_11
REMARK    4  A    between atoms: N_11  and  C_12
REMARK    5  A    between atoms: C_12  and  C_13
REMARK                            x       y       z     vdW  Elec       q    Type
REMARK                         _______ _______ _______ _____ _____    ______ ____
ROOT
ATOM      1  C   UNL     1       6.300   4.241  14.761  0.00  0.00    +0.000 A 
ATOM      2  C   UNL     1       7.201   5.260  14.981  0.00  0.00    +0.000 A 
ATOM      3  N   UNL     1       7.457   5.741  16.222  0.00  0.00    +0.000 NA
ATOM      4  C   UNL     1       6.762   5.150  17.258  0.00  0.00    +0.000 A 
ATOM      5  C   UNL     1       5.815   4.121  17.044  0.00  0.00    +0.000 A 
ATOM      6  N   UNL     1       5.601   3.664  15.774  0.00  0.00    +0.000 NA
ENDROOT
BRANCH   4   7
ATOM      7  C   UNL     1       7.164   5.727  18.605  0.00  0.00    +0.000 C 
ATOM      8  N   UNL     1       7.969   6.839  18.564  0.00  0.00    +0.000 N 
ATOM      9  O   UNL     1       6.844   5.300  19.703  0.00  0.00    +0.000 OA
ATOM     10  H   UNL     1       8.338   7.177  17.683  0.00  0.00    +0.000 HD
ATOM     11  H   UNL     1       8.301   7.219  19.440  0.00  0.00    +0.000 HD
ENDBRANCH   4   7
BRANCH   1  13
ATOM     12  N   UNL     1       5.822   3.310  12.386  0.00  0.00    +0.000 NA
ATOM     13  C   UNL     1       6.055   3.747  13.436  0.00  0.00    +0.000 C 
ENDBRANCH   1  13
BRANCH   5  14
ATOM     14  N   UNL     1       5.023   3.437  17.951  0.00  0.00    +0.000 N 
ATOM     15  H   UNL     1       5.350   2.484  18.037  0.00  0.00    +0.000 HD
BRANCH  14  16
ATOM     16  C   UNL     1       3.591   3.655  17.977  0.00  0.00    +0.000 C 
BRANCH  16  17
ATOM     17  C   UNL     1       3.060   4.939  18.578  0.00  0.00    +0.000 A 
ATOM     18  C   UNL     1       2.534   4.809  19.884  0.00  0.00    +0.000 A 
ATOM     19  C   UNL     1       1.989   5.892  20.569  0.00  0.00    +0.000 A 
ATOM     20  C   UNL     1       1.958   7.138  19.957  0.00  0.00    +0.000 A 
ATOM     21  C   UNL     1       2.479   7.287  18.669  0.00  0.00    +0.000 A 
ATOM     22 CL   UNL     1       2.431   8.841  17.926  0.00  0.00    +0.000 Cl
ATOM     23  C   UNL     1       3.032   6.200  17.977  0.00  0.00    +0.000 A 
ENDBRANCH  16  17
ENDBRANCH  14  16
ENDBRANCH   5  14
TORSDOF 5
ENDMDL
MODEL 3
REMARK VINA RESULT:      -7.4      1.256      1.640
REMARK  Name = 
REMARK  5 active torsions:
REMARK  status: ('A' for Active; 'I' for Inactive)
REMARK    1  A    between atoms: C_2  and  C_3
REMARK    2  A    between atoms: C_6  and  C_7
REMARK    3  A    between atoms: C_10  and  N_11
REMARK    4  A    between atoms: N_11  and  C_12
REMARK    5  A    between atoms: C_12  and  C_13
REMARK                            x       y       z     vdW  Elec       q    Type
REMARK                         _______ _______ _______ _____ _____    ______ ____
ROOT
ATOM      1  C   UNL     1       6.319   3.927  13.889  0.00  0.00    +0.000 A 
ATOM      2  C   UNL     1       7.219   4.970  13.908  0.00  0.00    +0.000 A 
ATOM      3  N   UNL     1       7.525   5.638  15.046  0.00  0.00    +0.000 NA
ATOM      4  C   UNL     1       6.883   5.214  16.192  0.00  0.00    +0.000 A 
ATOM      5  C   UNL     1       5.937   4.162  16.183  0.00  0.00    +0.000 A 
ATOM      6  N   UNL     1       5.670   3.513  15.011  0.00  0.00    +0.000 NA
ENDROOT
BRANCH   4   7
ATOM      7  C   UNL     1       7.340   5.994  17.413  0.00  0.00    +0.000 C 
ATOM      8  N   UNL     1       7.590   7.329  17.211  0.00  0.00    +0.000 N 
ATOM      9  O   UNL     1       7.503   5.551  18.539  0.00  0.00    +0.000 OA
ATOM     10  H   UNL     1       7.560   7.726  16.280  0.00  0.00    +0.000 HD
ATOM     11  H   UNL     1       7.947   7.868  17.988  0.00  0.00    +0.000 HD
ENDBRANCH   4   7
BRANCH   1  13
ATOM     12  N   UNL     1       5.821   2.638  11.692  0.00  0.00    +0.000 NA
ATOM     13  C   UNL     1       6.020   3.233  12.669  0.00  0.00    +0.000 C 
ENDBRANCH   1  13
BRANCH   5  14
ATOM     14  N   UNL     1       5.193   3.626  17.221  0.00  0.00    +0.000 N 
ATOM     15  H   UNL     1       5.599   2.747  17.511  0.00  0.00    +0.000 HD
BRANCH  14  16
ATOM     16  C   UNL     1       3.747   3.718  17.203  0.00  0.00    +0.000 C 
BRANCH  16  17
ATOM     17  C   UNL     1       3.024   4.083  18.483  0.00  0.00    +0.000 A 
ATOM     18  C   UNL     1       2.871   5.471  18.701  0.00  0.00    +0.000 A 
ATOM     19  C   UNL     1       2.247   5.971  19.841  0.00  0.00    +0.000 A 
ATOM     20  C   UNL     1       1.759   5.086  20.794  0.00  0.00    +0.000 A 
ATOM     21  C   UNL     1       1.895   3.711  20.591  0.00  0.00    +0.000 A 
ATOM     22 CL   UNL     1       1.284   2.629  21.784  0.00  0.00    +0.000 Cl
ATOM     23  C   UNL     1       2.521   3.202  19.444  0.00  0.00    +0.000 A 
ENDBRANCH  16  17
ENDBRANCH  14  16
ENDBRANCH   5  14
TORSDOF 5
ENDMDL
MODEL 4
REMARK VINA RESULT:      -7.4      1.825      2.299
REMARK  Name = 
REMARK  5 active torsions:
REMARK  status: ('A' for Active; 'I' for Inactive)
REMARK    1  A    between atoms: C_2  and  C_3
REMARK    2  A    between atoms: C_6  and  C_7
REMARK    3  A    between atoms: C_10  and  N_11
REMARK    4  A    between atoms: N_11  and  C_12
REMARK    5  A    between atoms: C_12  and  C_13
REMARK                            x       y       z     vdW  Elec       q    Type
REMARK                         _______ _______ _______ _____ _____    ______ ____
ROOT
ATOM      1  C   UNL     1       6.036   4.662  15.247  0.00  0.00    +0.000 A 
ATOM      2  C   UNL     1       7.225   4.212  15.776  0.00  0.00    +0.000 A 
ATOM      3  N   UNL     1       7.690   4.641  16.975  0.00  0.00    +0.000 NA
ATOM      4  C   UNL     1       6.901   5.559  17.639  0.00  0.00    +0.000 A 
ATOM      5  C   UNL     1       5.691   6.049  17.095  0.00  0.00    +0.000 A 
ATOM      6  N   UNL     1       5.260   5.577  15.888  0.00  0.00    +0.000 NA
ENDROOT
BRANCH   4   7
ATOM      7  C   UNL     1       7.487   5.929  18.990  0.00  0.00    +0.000 C 
ATOM      8  N   UNL     1       8.363   6.987  18.994  0.00  0.00    +0.000 N 
ATOM      9  O   UNL     1       7.257   5.381  20.058  0.00  0.00    +0.000 OA
ATOM     10  H   UNL     1       8.658   7.416  18.125  0.00  0.00    +0.000 HD
ATOM     11  H   UNL     1       8.814   7.228  19.866  0.00  0.00    +0.000 HD
ENDBRANCH   4   7
BRANCH   1  13
ATOM     12  N   UNL     1       5.148   3.838  12.952  0.00  0.00    +0.000 NA
ATOM     13  C   UNL     1       5.566   4.184  13.978  0.00  0.00    +0.000 C 
ENDBRANCH   1  13
BRANCH   5  14
ATOM     14  N   UNL     1       4.795   6.974  17.607  0.00  0.00    +0.000 N 
ATOM     15  H   UNL     1       5.105   7.276  18.521  0.00  0.00    +0.000 HD
BRANCH  14  16
ATOM     16  C   UNL     1       3.371   6.792  17.413  0.00  0.00    +0.000 C 
BRANCH  16  17
ATOM     17  C   UNL     1       2.620   5.865  18.345  0.00  0.00    +0.000 A 
ATOM     18  C   UNL     1       2.492   6.335  19.672  0.00  0.00    +0.000 A 
ATOM     19  C   UNL     1       1.847   5.592  20.656  0.00  0.00    +0.000 A 
ATOM     20  C   UNL     1       1.311   4.352  20.332  0.00  0.00    +0.000 A 
ATOM     21  C   UNL     1       1.423   3.874  19.024  0.00  0.00    +0.000 A 
ATOM     22 CL   UNL     1       0.754   2.333  18.641  0.00  0.00    +0.000 Cl
ATOM     23  C   UNL     1       2.070   4.620  18.029  0.00  0.00    +0.000 A 
ENDBRANCH  16  17
ENDBRANCH  14  16
ENDBRANCH   5  14
TORSDOF 5
ENDMDL
MODEL 5
REMARK VINA RESULT:      -7.3      1.456      1.610
REMARK  Name = 
REMARK  5 active torsions:
REMARK  status: ('A' for Active; 'I' for Inactive)
REMARK    1  A    between atoms: C_2  and  C_3
REMARK    2  A    between atoms: C_6  and  C_7
REMARK    3  A    between atoms: C_10  and  N_11
REMARK    4  A    between atoms: N_11  and  C_12
REMARK    5  A    between atoms: C_12  and  C_13
REMARK                            x       y       z     vdW  Elec       q    Type
REMARK                         _______ _______ _______ _____ _____    ______ ____
ROOT
ATOM      1  C   UNL     1       6.364   4.088  14.165  0.00  0.00    +0.000 A 
ATOM      2  C   UNL     1       7.239   5.151  14.117  0.00  0.00    +0.000 A 
ATOM      3  N   UNL     1       7.591   5.846  15.226  0.00  0.00    +0.000 NA
ATOM      4  C   UNL     1       7.023   5.428  16.412  0.00  0.00    +0.000 A 
ATOM      5  C   UNL     1       6.102   4.355  16.472  0.00  0.00    +0.000 A 
ATOM      6  N   UNL     1       5.788   3.679  15.327  0.00  0.00    +0.000 NA
ENDROOT
BRANCH   4   7
ATOM      7  C   UNL     1       7.526   6.239  17.593  0.00  0.00    +0.000 C 
ATOM      8  N   UNL     1       7.661   7.589  17.378  0.00  0.00    +0.000 N 
ATOM      9  O   UNL     1       7.819   5.810  18.698  0.00  0.00    +0.000 OA
ATOM     10  H   UNL     1       7.521   7.982  16.455  0.00  0.00    +0.000 HD
ATOM     11  H   UNL     1       8.045   8.154  18.125  0.00  0.00    +0.000 HD
ENDBRANCH   4   7
BRANCH   1  13
ATOM     12  N   UNL     1       5.702   2.826  11.997  0.00  0.00    +0.000 NA
ATOM     13  C   UNL     1       6.016   3.366  12.975  0.00  0.00    +0.000 C 
ENDBRANCH   1  13
BRANCH   5  14
ATOM     14  N   UNL     1       5.429   3.820  17.558  0.00  0.00    +0.000 N 
ATOM     15  H   UNL     1       5.146   2.872  17.349  0.00  0.00    +0.000 HD
BRANCH  14  16
ATOM     16  C   UNL     1       4.506   4.639  18.317  0.00  0.00    +0.000 C 
BRANCH  16  17
ATOM     17  C   UNL     1       3.238   4.006  18.849  0.00  0.00    +0.000 A 
ATOM     18  C   UNL     1       2.189   3.900  17.907  0.00  0.00    +0.000 A 
ATOM     19  C   UNL     1       0.951   3.358  18.244  0.00  0.00    +0.000 A 
ATOM     20  C   UNL     1       0.734   2.908  19.540  0.00  0.00    +0.000 A 
ATOM     21  C   UNL     1       1.762   2.999  20.482  0.00  0.00    +0.000 A 
ATOM     22 CL   UNL     1       1.475   2.437  22.085  0.00  0.00    +0.000 Cl
ATOM     23  C   UNL     1       3.011   3.541  20.147  0.00  0.00    +0.000 A 
ENDBRANCH  16  17
ENDBRANCH  14  16
ENDBRANCH   5  14
TORSDOF 5
ENDMDL
MODEL 6
REMARK VINA RESULT:      -7.1      1.682      2.034
REMARK  Name = 
REMARK  5 active torsions:
REMARK  status: ('A' for Active; 'I' for Inactive)
REMARK    1  A    between atoms: C_2  and  C_3
REMARK    2  A    between atoms: C_6  and  C_7
REMARK    3  A    between atoms: C_10  and  N_11
REMARK    4  A    between atoms: N_11  and  C_12
REMARK    5  A    between atoms: C_12  and  C_13
REMARK                            x       y       z     vdW  Elec       q    Type
REMARK                         _______ _______ _______ _____ _____    ______ ____
ROOT
ATOM      1  C   UNL     1       6.013   4.534  15.137  0.00  0.00    +0.000 A 
ATOM      2  C   UNL     1       7.273   4.252  15.618  0.00  0.00    +0.000 A 
ATOM      3  N   UNL     1       7.704   4.703  16.821  0.00  0.00    +0.000 NA
ATOM      4  C   UNL     1       6.806   5.464  17.542  0.00  0.00    +0.000 A 
ATOM      5  C   UNL     1       5.518   5.783  17.049  0.00  0.00    +0.000 A 
ATOM      6  N   UNL     1       5.128   5.295  15.834  0.00  0.00    +0.000 NA
ENDROOT
BRANCH   4   7
ATOM      7  C   UNL     1       7.370   5.870  18.892  0.00  0.00    +0.000 C 
ATOM      8  N   UNL     1       8.227   6.944  18.885  0.00  0.00    +0.000 N 
ATOM      9  O   UNL     1       7.138   5.339  19.967  0.00  0.00    +0.000 OA
ATOM     10  H   UNL     1       8.525   7.361  18.011  0.00  0.00    +0.000 HD
ATOM     11  H   UNL     1       8.665   7.209  19.757  0.00  0.00    +0.000 HD
ENDBRANCH   4   7
BRANCH   1  13
ATOM     12  N   UNL     1       5.284   3.608  12.825  0.00  0.00    +0.000 NA
ATOM     13  C   UNL     1       5.583   4.036  13.862  0.00  0.00    +0.000 C 
ENDBRANCH   1  13
BRANCH   5  14
ATOM     14  N   UNL     1       4.509   6.540  17.621  0.00  0.00    +0.000 N 
ATOM     15  H   UNL     1       4.646   7.516  17.394  0.00  0.00    +0.000 HD
BRANCH  14  16
ATOM     16  C   UNL     1       4.030   6.226  18.952  0.00  0.00    +0.000 C 
BRANCH  16  17
ATOM     17  C   UNL     1       3.016   5.114  19.118  0.00  0.00    +0.000 A 
ATOM     18  C   UNL     1       2.300   4.786  17.944  0.00  0.00    +0.000 A 
ATOM     19  C   UNL     1       1.318   3.799  17.934  0.00  0.00    +0.000 A 
ATOM     20  C   UNL     1       1.030   3.113  19.107  0.00  0.00    +0.000 A 
ATOM     21  C   UNL     1       1.733   3.419  20.274  0.00  0.00    +0.000 A 
ATOM     22 CL   UNL     1       1.361   2.559  21.720  0.00  0.00    +0.000 Cl
ATOM     23  C   UNL     1       2.724   4.411  20.289  0.00  0.00    +0.000 A 
ENDBRANCH  16  17
ENDBRANCH  14  16
ENDBRANCH   5  14
TORSDOF 5
ENDMDL
MODEL 7
REMARK VINA RESULT:      -7.1      3.312      6.732
REMARK  Name = 
REMARK  5 active torsions:
REMARK  status: ('A' for Active; 'I' for Inactive)
REMARK    1  A    between atoms: C_2  and  C_3
REMARK    2  A    between atoms: C_6  and  C_7
REMARK    3  A    between atoms: C_10  and  N_11
REMARK    4  A    between atoms: N_11  and  C_12
REMARK    5  A    between atoms: C_12  and  C_13
REMARK                            x       y       z     vdW  Elec       q    Type
REMARK                         _______ _______ _______ _____ _____    ______ ____
ROOT
ATOM      1  C   UNL     1       3.092   6.256  18.223  0.00  0.00    +0.000 A 
ATOM      2  C   UNL     1       2.531   5.602  19.298  0.00  0.00    +0.000 A 
ATOM      3  N   UNL     1       2.906   4.351  19.657  0.00  0.00    +0.000 NA
ATOM      4  C   UNL     1       3.887   3.764  18.883  0.00  0.00    +0.000 A 
ATOM      5  C   UNL     1       4.453   4.414  17.760  0.00  0.00    +0.000 A 
ATOM      6  N   UNL     1       4.047   5.680  17.446  0.00  0.00    +0.000 NA
ENDROOT
BRANCH   4   7
ATOM      7  C   UNL     1       4.268   2.390  19.405  0.00  0.00    +0.000 C 
ATOM      8  N   UNL     1       3.952   1.331  18.589  0.00  0.00    +0.000 N 
ATOM      9  O   UNL     1       4.820   2.142  20.465  0.00  0.00    +0.000 OA
ATOM     10  H   UNL     1       3.412   1.473  17.744  0.00  0.00    +0.000 HD
ATOM     11  H   UNL     1       4.142   0.397  18.927  0.00  0.00    +0.000 HD
ENDBRANCH   4   7
BRANCH   1  13
ATOM     12  N   UNL     1       2.345   8.672  17.640  0.00  0.00    +0.000 NA
ATOM     13  C   UNL     1       2.678   7.585  17.871  0.00  0.00    +0.000 C 
ENDBRANCH   1  13
BRANCH   5  14
ATOM     14  N   UNL     1       5.419   3.974  16.871  0.00  0.00    +0.000 N 
ATOM     15  H   UNL     1       5.956   3.228  17.294  0.00  0.00    +0.000 HD
BRANCH  14  16
ATOM     16  C   UNL     1       6.136   4.925  16.045  0.00  0.00    +0.000 C 
BRANCH  16  17
ATOM     17  C   UNL     1       6.398   4.578  14.595  0.00  0.00    +0.000 A 
ATOM     18  C   UNL     1       7.467   5.287  14.001  0.00  0.00    +0.000 A 
ATOM     19  C   UNL     1       7.823   5.098  12.668  0.00  0.00    +0.000 A 
ATOM     20  C   UNL     1       7.111   4.191  11.895  0.00  0.00    +0.000 A 
ATOM     21  C   UNL     1       6.056   3.477  12.467  0.00  0.00    +0.000 A 
ATOM     22 CL   UNL     1       5.183   2.356  11.493  0.00  0.00    +0.000 Cl
ATOM     23  C   UNL     1       5.695   3.661  13.810  0.00  0.00    +0.000 A 
ENDBRANCH  16  17
ENDBRANCH  14  16
ENDBRANCH   5  14
TORSDOF 5
ENDMDL
MODEL 8
REMARK VINA RESULT:      -6.9      1.160      1.168
REMARK  Name = 
REMARK  5 active torsions:
REMARK  status: ('A' for Active; 'I' for Inactive)
REMARK    1  A    between atoms: C_2  and  C_3
REMARK    2  A    between atoms: C_6  and  C_7
REMARK    3  A    between atoms: C_10  and  N_11
REMARK    4  A    between atoms: N_11  and  C_12
REMARK    5  A    between atoms: C_12  and  C_13
REMARK                            x       y       z     vdW  Elec       q    Type
REMARK                         _______ _______ _______ _____ _____    ______ ____
ROOT
ATOM      1  C   UNL     1       6.344   4.464  15.088  0.00  0.00    +0.000 A 
ATOM      2  C   UNL     1       7.166   5.570  15.078  0.00  0.00    +0.000 A 
ATOM      3  N   UNL     1       7.615   6.146  16.220  0.00  0.00    +0.000 NA
ATOM      4  C   UNL     1       7.201   5.560  17.399  0.00  0.00    +0.000 A 
ATOM      5  C   UNL     1       6.335   4.441  17.424  0.00  0.00    +0.000 A 
ATOM      6  N   UNL     1       5.919   3.891  16.245  0.00  0.00    +0.000 NA
ENDROOT
BRANCH   4   7
ATOM      7  C   UNL     1       7.803   6.251  18.611  0.00  0.00    +0.000 C 
ATOM      8  N   UNL     1       7.867   5.498  19.758  0.00  0.00    +0.000 N 
ATOM      9  O   UNL     1       8.228   7.394  18.659  0.00  0.00    +0.000 OA
ATOM     10  H   UNL     1       7.445   4.578  19.797  0.00  0.00    +0.000 HD
ATOM     11  H   UNL     1       8.213   5.941  20.599  0.00  0.00    +0.000 HD
ENDBRANCH   4   7
BRANCH   1  13
ATOM     12  N   UNL     1       5.530   3.342  12.894  0.00  0.00    +0.000 NA
ATOM     13  C   UNL     1       5.891   3.872  13.862  0.00  0.00    +0.000 C 
ENDBRANCH   1  13
BRANCH   5  14
ATOM     14  N   UNL     1       5.810   3.747  18.502  0.00  0.00    +0.000 N 
ATOM     15  H   UNL     1       6.520   3.146  18.898  0.00  0.00    +0.000 HD
BRANCH  14  16
ATOM     16  C   UNL     1       4.456   3.232  18.447  0.00  0.00    +0.000 C 
BRANCH  16  17
ATOM     17  C   UNL     1       3.368   3.962  19.205  0.00  0.00    +0.000 A 
ATOM     18  C   UNL     1       2.404   3.123  19.811  0.00  0.00    +0.000 A 
ATOM     19  C   UNL     1       1.328   3.639  20.528  0.00  0.00    +0.000 A 
ATOM     20  C   UNL     1       1.191   5.015  20.655  0.00  0.00    +0.000 A 
ATOM     21  C   UNL     1       2.138   5.859  20.069  0.00  0.00    +0.000 A 
ATOM     22 CL   UNL     1       1.951   7.564  20.236  0.00  0.00    +0.000 Cl
ATOM     23  C   UNL     1       3.225   5.344  19.348  0.00  0.00    +0.000 A 
ENDBRANCH  16  17
ENDBRANCH  14  16
ENDBRANCH   5  14
TORSDOF 5
ENDMDL
MODEL 9
REMARK VINA RESULT:      -6.9      1.003      1.003
REMARK  Name = 
REMARK  5 active torsions:
REMARK  status: ('A' for Active; 'I' for Inactive)
REMARK    1  A    between atoms: C_2  and  C_3
REMARK    2  A    between atoms: C_6  and  C_7
REMARK    3  A    between atoms: C_10  and  N_11
REMARK    4  A    between atoms: N_11  and  C_12
REMARK    5  A    between atoms: C_12  and  C_13
REMARK                            x       y       z     vdW  Elec       q    Type
REMARK                         _______ _______ _______ _____ _____    ______ ____
ROOT
ATOM      1  C   UNL     1       6.131   4.146  13.797  0.00  0.00    +0.000 A 
ATOM      2  C   UNL     1       7.381   4.706  13.946  0.00  0.00    +0.000 A 
ATOM      3  N   UNL     1       7.722   5.427  15.042  0.00  0.00    +0.000 NA
ATOM      4  C   UNL     1       6.744   5.570  16.005  0.00  0.00    +0.000 A 
ATOM      5  C   UNL     1       5.448   5.024  15.853  0.00  0.00    +0.000 A 
ATOM      6  N   UNL     1       5.157   4.295  14.734  0.00  0.00    +0.000 NA
ENDROOT
BRANCH   4   7
ATOM      7  C   UNL     1       7.250   6.347  17.208  0.00  0.00    +0.000 C 
ATOM      8  N   UNL     1       7.292   7.712  17.065  0.00  0.00    +0.000 N 
ATOM      9  O   UNL     1       7.617   5.878  18.274  0.00  0.00    +0.000 OA
ATOM     10  H   UNL     1       7.087   8.145  16.172  0.00  0.00    +0.000 HD
ATOM     11  H   UNL     1       7.674   8.259  17.825  0.00  0.00    +0.000 HD
ENDBRANCH   4   7
BRANCH   1  13
ATOM     12  N   UNL     1       5.532   2.718  11.715  0.00  0.00    +0.000 NA
ATOM     13  C   UNL     1       5.800   3.382  12.628  0.00  0.00    +0.000 C 
ENDBRANCH   1  13
BRANCH   5  14
ATOM     14  N   UNL     1       4.352   5.085  16.697  0.00  0.00    +0.000 N 
ATOM     15  H   UNL     1       4.380   5.945  17.228  0.00  0.00    +0.000 HD
BRANCH  14  16
ATOM     16  C   UNL     1       3.894   3.893  17.383  0.00  0.00    +0.000 C 
BRANCH  16  17
ATOM     17  C   UNL     1       2.935   4.044  18.544  0.00  0.00    +0.000 A 
ATOM     18  C   UNL     1       2.303   2.845  18.950  0.00  0.00    +0.000 A 
ATOM     19  C   UNL     1       1.379   2.818  19.991  0.00  0.00    +0.000 A 
ATOM     20  C   UNL     1       1.063   3.997  20.653  0.00  0.00    +0.000 A 
ATOM     21  C   UNL     1       1.683   5.189  20.270  0.00  0.00    +0.000 A 
ATOM     22 CL   UNL     1       1.278   6.643  21.102  0.00  0.00    +0.000 Cl
ATOM     23  C   UNL     1       2.617   5.222  19.224  0.00  0.00    +0.000 A 
ENDBRANCH  16  17
ENDBRANCH  14  16
ENDBRANCH   5  14
TORSDOF 5
ENDMDL
