MODEL 1
REMARK VINA RESULT:      -7.2      0.000      0.000
REMARK  Name = 
REMARK  13 active torsions:
REMARK  status: ('A' for Active; 'I' for Inactive)
REMARK    1  A    between atoms: C_1  and  O_2
REMARK    2  A    between atoms: O_2  and  C_3
REMARK    3  A    between atoms: C_6  and  O_7
REMARK    4  A    between atoms: O_7  and  C_8
REMARK    5  A    between atoms: C_8  and  C_9
REMARK    6  A    between atoms: C_9  and  N_10
REMARK    7  A    between atoms: C_11  and  C_13
REMARK    8  A    between atoms: C_13  and  N_14
REMARK    9  A    between atoms: N_14  and  C_15
REMARK   10  A    between atoms: N_14  and  C_16
REMARK   11  A    between atoms: C_16  and  C_17
REMARK   12  A    between atoms: C_20  and  C_21
REMARK   13  A    between atoms: N_22  and  C_23
REMARK                            x       y       z     vdW  Elec       q    Type
REMARK                         _______ _______ _______ _____ _____    ______ ____
ROOT
ATOM      1  N   UNL     1       6.308   4.000  17.858  0.00  0.00    +0.000 N 
ATOM      2  C   UNL     1       5.775   4.340  19.087  0.00  0.00    +0.000 C 
ATOM      3  O   UNL     1       6.291   5.166  19.840  0.00  0.00    +0.000 OA
ATOM      4  H   UNL     1       5.742   3.407  17.264  0.00  0.00    +0.000 HD
ENDROOT
BRANCH   1   5
ATOM      5  C   UNL     1       7.496   4.655  17.340  0.00  0.00    +0.000 C 
BRANCH   5   6
ATOM      6  C   UNL     1       7.174   5.896  16.507  0.00  0.00    +0.000 C 
BRANCH   6   7
ATOM      7  O   UNL     1       7.726   5.728  15.198  0.00  0.00    +0.000 OA
BRANCH   7  11
ATOM      8  C   UNL     1       5.643   3.434  12.395  0.00  0.00    +0.000 A 
ATOM      9  C   UNL     1       6.934   3.905  12.152  0.00  0.00    +0.000 A 
ATOM     10  C   UNL     1       7.603   4.663  13.118  0.00  0.00    +0.000 A 
ATOM     11  C   UNL     1       6.977   4.991  14.321  0.00  0.00    +0.000 A 
ATOM     12  C   UNL     1       5.686   4.521  14.565  0.00  0.00    +0.000 A 
ATOM     13  C   UNL     1       5.022   3.749  13.603  0.00  0.00    +0.000 A 
BRANCH   8  15
ATOM     14  C   UNL     1       3.779   3.133  10.977  0.00  0.00    +0.000 C 
ATOM     15  O   UNL     1       5.077   2.711  11.383  0.00  0.00    +0.000 OA
ENDBRANCH   8  15
ENDBRANCH   7  11
ENDBRANCH   6   7
ENDBRANCH   5   6
ENDBRANCH   1   5
BRANCH   2  16
ATOM     16  C   UNL     1       4.483   3.600  19.448  0.00  0.00    +0.000 C 
BRANCH  16  17
ATOM     17  N   UNL     1       3.903   2.906  18.259  0.00  0.00    +0.000 NA
ATOM     18  C   UNL     1       3.435   1.567  18.665  0.00  0.00    +0.000 C 
BRANCH  17  19
ATOM     19  C   UNL     1       2.742   3.672  17.746  0.00  0.00    +0.000 C 
BRANCH  19  20
ATOM     20  C   UNL     1       2.617   5.040  18.340  0.00  0.00    +0.000 A 
ATOM     21  N   UNL     1       3.127   6.148  17.838  0.00  0.00    +0.000 NA
ATOM     22  N   UNL     1       2.845   7.179  18.695  0.00  0.00    +0.000 NA
ATOM     23  C   UNL     1       2.176   6.692  19.718  0.00  0.00    +0.000 A 
ATOM     24  C   UNL     1       1.729   7.448  20.910  0.00  0.00    +0.000 C 
ATOM     25  N   UNL     1       1.981   5.348  19.518  0.00  0.00    +0.000 N 
ATOM     26  C   UNL     1       1.280   4.436  20.382  0.00  0.00    +0.000 C 
ENDBRANCH  19  20
ENDBRANCH  17  19
ENDBRANCH  16  17
ENDBRANCH   2  16
TORSDOF 9
ENDMDL
MODEL 2
REMARK VINA RESULT:      -7.1      6.310      8.515
REMARK  Name = 
REMARK  13 active torsions:
REMARK  status: ('A' for Active; 'I' for Inactive)
REMARK    1  A    between atoms: C_1  and  O_2
REMARK    2  A    between atoms: O_2  and  C_3
REMARK    3  A    between atoms: C_6  and  O_7
REMARK    4  A    between atoms: O_7  and  C_8
REMARK    5  A    between atoms: C_8  and  C_9
REMARK    6  A    between atoms: C_9  and  N_10
REMARK    7  A    between atoms: C_11  and  C_13
REMARK    8  A    between atoms: C_13  and  N_14
REMARK    9  A    between atoms: N_14  and  C_15
REMARK   10  A    between atoms: N_14  and  C_16
REMARK   11  A    between atoms: C_16  and  C_17
REMARK   12  A    between atoms: C_20  and  C_21
REMARK   13  A    between atoms: N_22  and  C_23
REMARK                            x       y       z     vdW  Elec       q    Type
REMARK                         _______ _______ _______ _____ _____    ______ ____
ROOT
ATOM      1  N   UNL     1       8.783   8.787  18.879  0.00  0.00    +0.000 N 
ATOM      2  C   UNL     1       8.043   7.901  18.121  0.00  0.00    +0.000 C 
ATOM      3  O   UNL     1       7.443   8.227  17.097  0.00  0.00    +0.000 OA
ATOM      4  H   UNL     1       9.339   8.393  19.629  0.00  0.00    +0.000 HD
ENDROOT
BRANCH   1   5
ATOM      5  C   UNL     1       8.958  10.170  18.472  0.00  0.00    +0.000 C 
BRANCH   5   6
ATOM      6  C   UNL     1       9.769  10.988  19.479  0.00  0.00    +0.000 C 
BRANCH   6   7
ATOM      7  O   UNL     1      11.080  11.203  18.947  0.00  0.00    +0.000 OA
BRANCH   7  11
ATOM      8  C   UNL     1      11.909  15.132  17.791  0.00  0.00    +0.000 A 
ATOM      9  C   UNL     1      11.380  14.195  16.901  0.00  0.00    +0.000 A 
ATOM     10  C   UNL     1      11.107  12.891  17.327  0.00  0.00    +0.000 A 
ATOM     11  C   UNL     1      11.395  12.498  18.634  0.00  0.00    +0.000 A 
ATOM     12  C   UNL     1      11.925  13.433  19.524  0.00  0.00    +0.000 A 
ATOM     13  C   UNL     1      12.185  14.743  19.101  0.00  0.00    +0.000 A 
BRANCH   8  15
ATOM     14  C   UNL     1      11.010  17.226  17.173  0.00  0.00    +0.000 C 
ATOM     15  O   UNL     1      12.146  16.373  17.270  0.00  0.00    +0.000 OA
ENDBRANCH   8  15
ENDBRANCH   7  11
ENDBRANCH   6   7
ENDBRANCH   5   6
ENDBRANCH   1   5
BRANCH   2  16
ATOM     16  C   UNL     1       8.019   6.467  18.660  0.00  0.00    +0.000 C 
BRANCH  16  17
ATOM     17  N   UNL     1       6.797   5.736  18.208  0.00  0.00    +0.000 NA
ATOM     18  C   UNL     1       7.201   4.612  17.342  0.00  0.00    +0.000 C 
BRANCH  17  19
ATOM     19  C   UNL     1       6.076   5.187  19.381  0.00  0.00    +0.000 C 
BRANCH  19  20
ATOM     20  C   UNL     1       4.796   4.495  19.027  0.00  0.00    +0.000 A 
ATOM     21  N   UNL     1       4.561   3.203  19.143  0.00  0.00    +0.000 NA
ATOM     22  N   UNL     1       3.301   2.950  18.668  0.00  0.00    +0.000 NA
ATOM     23  C   UNL     1       2.782   4.086  18.255  0.00  0.00    +0.000 A 
ATOM     24  C   UNL     1       1.461   4.259  17.608  0.00  0.00    +0.000 C 
ATOM     25  N   UNL     1       3.682   5.094  18.494  0.00  0.00    +0.000 N 
ATOM     26  C   UNL     1       3.508   6.495  18.215  0.00  0.00    +0.000 C 
ENDBRANCH  19  20
ENDBRANCH  17  19
ENDBRANCH  16  17
ENDBRANCH   2  16
TORSDOF 9
ENDMDL
MODEL 3
REMARK VINA RESULT:      -7.0      5.593      7.746
REMARK  Name = 
REMARK  13 active torsions:
REMARK  status: ('A' for Active; 'I' for Inactive)
REMARK    1  A    between atoms: C_1  and  O_2
REMARK    2  A    between atoms: O_2  and  C_3
REMARK    3  A    between atoms: C_6  and  O_7
REMARK    4  A    between atoms: O_7  and  C_8
REMARK    5  A    between atoms: C_8  and  C_9
REMARK    6  A    between atoms: C_9  and  N_10
REMARK    7  A    between atoms: C_11  and  C_13
REMARK    8  A    between atoms: C_13  and  N_14
REMARK    9  A    between atoms: N_14  and  C_15
REMARK   10  A    between atoms: N_14  and  C_16
REMARK   11  A    between atoms: C_16  and  C_17
REMARK   12  A    between atoms: C_20  and  C_21
REMARK   13  A    between atoms: N_22  and  C_23
REMARK                            x       y       z     vdW  Elec       q    Type
REMARK                         _______ _______ _______ _____ _____    ______ ____
ROOT
ATOM      1  N   UNL     1       7.707   7.790  17.629  0.00  0.00    +0.000 N 
ATOM      2  C   UNL     1       7.487   6.496  18.061  0.00  0.00    +0.000 C 
ATOM      3  O   UNL     1       8.052   6.006  19.038  0.00  0.00    +0.000 OA
ATOM      4  H   UNL     1       7.100   8.136  16.896  0.00  0.00    +0.000 HD
ENDROOT
BRANCH   1   5
ATOM      5  C   UNL     1       8.585   8.691  18.354  0.00  0.00    +0.000 C 
BRANCH   5   6
ATOM      6  C   UNL     1       8.342  10.162  18.011  0.00  0.00    +0.000 C 
BRANCH   6   7
ATOM      7  O   UNL     1       9.136  10.974  18.881  0.00  0.00    +0.000 OA
BRANCH   7  11
ATOM      8  C   UNL     1      10.946  14.355  17.221  0.00  0.00    +0.000 A 
ATOM      9  C   UNL     1       9.729  14.426  17.901  0.00  0.00    +0.000 A 
ATOM     10  C   UNL     1       9.157  13.275  18.450  0.00  0.00    +0.000 A 
ATOM     11  C   UNL     1       9.776  12.033  18.295  0.00  0.00    +0.000 A 
ATOM     12  C   UNL     1      10.993  11.961  17.615  0.00  0.00    +0.000 A 
ATOM     13  C   UNL     1      11.571  13.117  17.077  0.00  0.00    +0.000 A 
BRANCH   8  15
ATOM     14  C   UNL     1      10.644  16.691  17.046  0.00  0.00    +0.000 C 
ATOM     15  O   UNL     1      11.411  15.537  16.716  0.00  0.00    +0.000 OA
ENDBRANCH   8  15
ENDBRANCH   7  11
ENDBRANCH   6   7
ENDBRANCH   5   6
ENDBRANCH   1   5
BRANCH   2  16
ATOM     16  C   UNL     1       6.479   5.707  17.219  0.00  0.00    +0.000 C 
BRANCH  16  17
ATOM     17  N   UNL     1       5.107   5.773  17.807  0.00  0.00    +0.000 NA
ATOM     18  C   UNL     1       4.349   6.847  17.138  0.00  0.00    +0.000 C 
BRANCH  17  19
ATOM     19  C   UNL     1       4.400   4.490  17.582  0.00  0.00    +0.000 C 
BRANCH  19  20
ATOM     20  C   UNL     1       4.095   3.745  18.844  0.00  0.00    +0.000 A 
ATOM     21  N   UNL     1       4.861   2.828  19.402  0.00  0.00    +0.000 NA
ATOM     22  N   UNL     1       4.215   2.342  20.509  0.00  0.00    +0.000 NA
ATOM     23  C   UNL     1       3.056   2.957  20.610  0.00  0.00    +0.000 A 
ATOM     24  C   UNL     1       2.011   2.689  21.625  0.00  0.00    +0.000 C 
ATOM     25  N   UNL     1       2.953   3.876  19.596  0.00  0.00    +0.000 N 
ATOM     26  C   UNL     1       1.858   4.775  19.349  0.00  0.00    +0.000 C 
ENDBRANCH  19  20
ENDBRANCH  17  19
ENDBRANCH  16  17
ENDBRANCH   2  16
TORSDOF 9
ENDMDL
MODEL 4
REMARK VINA RESULT:      -7.0      5.094      7.489
REMARK  Name = 
REMARK  13 active torsions:
REMARK  status: ('A' for Active; 'I' for Inactive)
REMARK    1  A    between atoms: C_1  and  O_2
REMARK    2  A    between atoms: O_2  and  C_3
REMARK    3  A    between atoms: C_6  and  O_7
REMARK    4  A    between atoms: O_7  and  C_8
REMARK    5  A    between atoms: C_8  and  C_9
REMARK    6  A    between atoms: C_9  and  N_10
REMARK    7  A    between atoms: C_11  and  C_13
REMARK    8  A    between atoms: C_13  and  N_14
REMARK    9  A    between atoms: N_14  and  C_15
REMARK   10  A    between atoms: N_14  and  C_16
REMARK   11  A    between atoms: C_16  and  C_17
REMARK   12  A    between atoms: C_20  and  C_21
REMARK   13  A    between atoms: N_22  and  C_23
REMARK                            x       y       z     vdW  Elec       q    Type
REMARK                         _______ _______ _______ _____ _____    ______ ____
ROOT
ATOM      1  N   UNL     1       6.736   7.475  17.268  0.00  0.00    +0.000 N 
ATOM      2  C   UNL     1       6.644   6.448  16.349  0.00  0.00    +0.000 C 
ATOM      3  O   UNL     1       7.615   5.796  15.967  0.00  0.00    +0.000 OA
ATOM      4  H   UNL     1       5.864   7.863  17.609  0.00  0.00    +0.000 HD
ENDROOT
BRANCH   1   5
ATOM      5  C   UNL     1       7.997   7.814  17.903  0.00  0.00    +0.000 C 
BRANCH   5   6
ATOM      6  C   UNL     1       8.248   9.321  17.962  0.00  0.00    +0.000 C 
BRANCH   6   7
ATOM      7  O   UNL     1       8.897   9.632  19.198  0.00  0.00    +0.000 OA
BRANCH   7  11
ATOM      8  C   UNL     1      11.311  13.032  18.942  0.00  0.00    +0.000 A 
ATOM      9  C   UNL     1      10.768  12.424  17.809  0.00  0.00    +0.000 A 
ATOM     10  C   UNL     1       9.957  11.292  17.935  0.00  0.00    +0.000 A 
ATOM     11  C   UNL     1       9.711  10.732  19.189  0.00  0.00    +0.000 A 
ATOM     12  C   UNL     1      10.254  11.339  20.323  0.00  0.00    +0.000 A 
ATOM     13  C   UNL     1      11.054  12.481  20.197  0.00  0.00    +0.000 A 
BRANCH   8  15
ATOM     14  C   UNL     1      11.513  15.383  19.040  0.00  0.00    +0.000 C 
ATOM     15  O   UNL     1      12.095  14.126  18.707  0.00  0.00    +0.000 OA
ENDBRANCH   8  15
ENDBRANCH   7  11
ENDBRANCH   6   7
ENDBRANCH   5   6
ENDBRANCH   1   5
BRANCH   2  16
ATOM     16  C   UNL     1       5.227   6.182  15.830  0.00  0.00    +0.000 C 
BRANCH  16  17
ATOM     17  N   UNL     1       4.569   5.076  16.588  0.00  0.00    +0.000 NA
ATOM     18  C   UNL     1       5.572   4.415  17.444  0.00  0.00    +0.000 C 
BRANCH  17  19
ATOM     19  C   UNL     1       3.501   5.626  17.458  0.00  0.00    +0.000 C 
BRANCH  19  20
ATOM     20  C   UNL     1       2.595   4.581  18.028  0.00  0.00    +0.000 A 
ATOM     21  N   UNL     1       1.874   3.724  17.333  0.00  0.00    +0.000 NA
ATOM     22  N   UNL     1       1.137   2.970  18.209  0.00  0.00    +0.000 NA
ATOM     23  C   UNL     1       1.405   3.380  19.430  0.00  0.00    +0.000 A 
ATOM     24  C   UNL     1       0.779   2.883  20.676  0.00  0.00    +0.000 C 
ATOM     25  N   UNL     1       2.347   4.376  19.363  0.00  0.00    +0.000 N 
ATOM     26  C   UNL     1       2.937   5.086  20.467  0.00  0.00    +0.000 C 
ENDBRANCH  19  20
ENDBRANCH  17  19
ENDBRANCH  16  17
ENDBRANCH   2  16
TORSDOF 9
ENDMDL
MODEL 5
REMARK VINA RESULT:      -6.9      4.120      9.033
REMARK  Name = 
REMARK  13 active torsions:
REMARK  status: ('A' for Active; 'I' for Inactive)
REMARK    1  A    between atoms: C_1  and  O_2
REMARK    2  A    between atoms: O_2  and  C_3
REMARK    3  A    between atoms: C_6  and  O_7
REMARK    4  A    between atoms: O_7  and  C_8
REMARK    5  A    between atoms: C_8  and  C_9
REMARK    6  A    between atoms: C_9  and  N_10
REMARK    7  A    between atoms: C_11  and  C_13
REMARK    8  A    between atoms: C_13  and  N_14
REMARK    9  A    between atoms: N_14  and  C_15
REMARK   10  A    between atoms: N_14  and  C_16
REMARK   11  A    between atoms: C_16  and  C_17
REMARK   12  A    between atoms: C_20  and  C_21
REMARK   13  A    between atoms: N_22  and  C_23
REMARK                            x       y       z     vdW  Elec       q    Type
REMARK                         _______ _______ _______ _____ _____    ______ ____
ROOT
ATOM      1  N   UNL     1       2.267   7.582  17.816  0.00  0.00    +0.000 N 
ATOM      2  C   UNL     1       2.434   6.482  18.636  0.00  0.00    +0.000 C 
ATOM      3  O   UNL     1       2.733   6.568  19.827  0.00  0.00    +0.000 OA
ATOM      4  H   UNL     1       1.899   7.408  16.889  0.00  0.00    +0.000 HD
ENDROOT
BRANCH   1   5
ATOM      5  C   UNL     1       2.369   8.935  18.333  0.00  0.00    +0.000 C 
BRANCH   5   6
ATOM      6  C   UNL     1       1.017   9.517  18.747  0.00  0.00    +0.000 C 
BRANCH   6   7
ATOM      7  O   UNL     1       0.767   9.173  20.113  0.00  0.00    +0.000 OA
BRANCH   7  11
ATOM      8  C   UNL     1      -1.286  11.870  22.557  0.00  0.00    +0.000 A 
ATOM      9  C   UNL     1      -0.905  10.605  23.008  0.00  0.00    +0.000 A 
ATOM     10  C   UNL     1      -0.211   9.732  22.164  0.00  0.00    +0.000 A 
ATOM     11  C   UNL     1       0.076  10.098  20.848  0.00  0.00    +0.000 A 
ATOM     12  C   UNL     1      -0.305  11.362  20.396  0.00  0.00    +0.000 A 
ATOM     13  C   UNL     1      -0.987  12.241  21.246  0.00  0.00    +0.000 A 
BRANCH   8  15
ATOM     14  C   UNL     1      -3.352  12.340  23.600  0.00  0.00    +0.000 C 
ATOM     15  O   UNL     1      -1.966  12.639  23.458  0.00  0.00    +0.000 OA
ENDBRANCH   8  15
ENDBRANCH   7  11
ENDBRANCH   6   7
ENDBRANCH   5   6
ENDBRANCH   1   5
BRANCH   2  16
ATOM     16  C   UNL     1       2.224   5.132  17.942  0.00  0.00    +0.000 C 
BRANCH  16  17
ATOM     17  N   UNL     1       3.014   4.051  18.605  0.00  0.00    +0.000 NA
ATOM     18  C   UNL     1       2.172   2.846  18.727  0.00  0.00    +0.000 C 
BRANCH  17  19
ATOM     19  C   UNL     1       4.198   3.713  17.778  0.00  0.00    +0.000 C 
BRANCH  19  20
ATOM     20  C   UNL     1       5.414   4.518  18.116  0.00  0.00    +0.000 A 
ATOM     21  N   UNL     1       6.203   4.322  19.154  0.00  0.00    +0.000 NA
ATOM     22  N   UNL     1       7.171   5.293  19.150  0.00  0.00    +0.000 NA
ATOM     23  C   UNL     1       6.957   6.079  18.117  0.00  0.00    +0.000 A 
ATOM     24  C   UNL     1       7.728   7.296  17.772  0.00  0.00    +0.000 C 
ATOM     25  N   UNL     1       5.875   5.606  17.418  0.00  0.00    +0.000 N 
ATOM     26  C   UNL     1       5.315   6.156  16.212  0.00  0.00    +0.000 C 
ENDBRANCH  19  20
ENDBRANCH  17  19
ENDBRANCH  16  17
ENDBRANCH   2  16
TORSDOF 9
ENDMDL
MODEL 6
REMARK VINA RESULT:      -6.7      4.821      7.084
REMARK  Name = 
REMARK  13 active torsions:
REMARK  status: ('A' for Active; 'I' for Inactive)
REMARK    1  A    between atoms: C_1  and  O_2
REMARK    2  A    between atoms: O_2  and  C_3
REMARK    3  A    between atoms: C_6  and  O_7
REMARK    4  A    between atoms: O_7  and  C_8
REMARK    5  A    between atoms: C_8  and  C_9
REMARK    6  A    between atoms: C_9  and  N_10
REMARK    7  A    between atoms: C_11  and  C_13
REMARK    8  A    between atoms: C_13  and  N_14
REMARK    9  A    between atoms: N_14  and  C_15
REMARK   10  A    between atoms: N_14  and  C_16
REMARK   11  A    between atoms: C_16  and  C_17
REMARK   12  A    between atoms: C_20  and  C_21
REMARK   13  A    between atoms: N_22  and  C_23
REMARK                            x       y       z     vdW  Elec       q    Type
REMARK                         _______ _______ _______ _____ _____    ______ ____
ROOT
ATOM      1  N   UNL     1       6.910   6.711  18.315  0.00  0.00    +0.000 N 
ATOM      2  C   UNL     1       5.866   5.929  17.860  0.00  0.00    +0.000 C 
ATOM      3  O   UNL     1       5.568   5.828  16.670  0.00  0.00    +0.000 OA
ATOM      4  H   UNL     1       7.150   6.627  19.296  0.00  0.00    +0.000 HD
ENDROOT
BRANCH   1   5
ATOM      5  C   UNL     1       7.780   7.423  17.397  0.00  0.00    +0.000 C 
BRANCH   5   6
ATOM      6  C   UNL     1       7.920   8.907  17.740  0.00  0.00    +0.000 C 
BRANCH   6   7
ATOM      7  O   UNL     1       8.674   9.030  18.950  0.00  0.00    +0.000 OA
BRANCH   7  11
ATOM      8  C   UNL     1      10.419  12.801  19.386  0.00  0.00    +0.000 A 
ATOM      9  C   UNL     1      10.025  12.308  18.141  0.00  0.00    +0.000 A 
ATOM     10  C   UNL     1       9.436  11.044  18.035  0.00  0.00    +0.000 A 
ATOM     11  C   UNL     1       9.269  10.243  19.165  0.00  0.00    +0.000 A 
ATOM     12  C   UNL     1       9.663  10.735  20.411  0.00  0.00    +0.000 A 
ATOM     13  C   UNL     1      10.240  12.007  20.518  0.00  0.00    +0.000 A 
BRANCH   8  15
ATOM     14  C   UNL     1      10.298  15.033  18.623  0.00  0.00    +0.000 C 
ATOM     15  O   UNL     1      10.991  14.042  19.377  0.00  0.00    +0.000 OA
ENDBRANCH   8  15
ENDBRANCH   7  11
ENDBRANCH   6   7
ENDBRANCH   5   6
ENDBRANCH   1   5
BRANCH   2  16
ATOM     16  C   UNL     1       5.093   5.195  18.961  0.00  0.00    +0.000 C 
BRANCH  16  17
ATOM     17  N   UNL     1       3.627   5.173  18.674  0.00  0.00    +0.000 NA
ATOM     18  C   UNL     1       3.113   3.809  18.898  0.00  0.00    +0.000 C 
BRANCH  17  19
ATOM     19  C   UNL     1       2.920   6.096  19.594  0.00  0.00    +0.000 C 
BRANCH  19  20
ATOM     20  C   UNL     1       2.445   7.352  18.934  0.00  0.00    +0.000 A 
ATOM     21  N   UNL     1       2.672   7.698  17.682  0.00  0.00    +0.000 NA
ATOM     22  N   UNL     1       2.124   8.936  17.470  0.00  0.00    +0.000 NA
ATOM     23  C   UNL     1       1.578   9.341  18.596  0.00  0.00    +0.000 A 
ATOM     24  C   UNL     1       0.932  10.653  18.832  0.00  0.00    +0.000 C 
ATOM     25  N   UNL     1       1.729   8.356  19.540  0.00  0.00    +0.000 N 
ATOM     26  C   UNL     1       1.261   8.379  20.900  0.00  0.00    +0.000 C 
ENDBRANCH  19  20
ENDBRANCH  17  19
ENDBRANCH  16  17
ENDBRANCH   2  16
TORSDOF 9
ENDMDL
MODEL 7
REMARK VINA RESULT:      -6.7      5.584      8.083
REMARK  Name = 
REMARK  13 active torsions:
REMARK  status: ('A' for Active; 'I' for Inactive)
REMARK    1  A    between atoms: C_1  and  O_2
REMARK    2  A    between atoms: O_2  and  C_3
REMARK    3  A    between atoms: C_6  and  O_7
REMARK    4  A    between atoms: O_7  and  C_8
REMARK    5  A    between atoms: C_8  and  C_9
REMARK    6  A    between atoms: C_9  and  N_10
REMARK    7  A    between atoms: C_11  and  C_13
REMARK    8  A    between atoms: C_13  and  N_14
REMARK    9  A    between atoms: N_14  and  C_15
REMARK   10  A    between atoms: N_14  and  C_16
REMARK   11  A    between atoms: C_16  and  C_17
REMARK   12  A    between atoms: C_20  and  C_21
REMARK   13  A    between atoms: N_22  and  C_23
REMARK                            x       y       z     vdW  Elec       q    Type
REMARK                         _______ _______ _______ _____ _____    ______ ____
ROOT
ATOM      1  N   UNL     1       7.893   7.497  17.901  0.00  0.00    +0.000 N 
ATOM      2  C   UNL     1       7.077   6.632  17.197  0.00  0.00    +0.000 C 
ATOM      3  O   UNL     1       6.215   7.011  16.405  0.00  0.00    +0.000 OA
ATOM      4  H   UNL     1       8.651   7.083  18.428  0.00  0.00    +0.000 HD
ENDROOT
BRANCH   1   5
ATOM      5  C   UNL     1       7.827   8.933  17.697  0.00  0.00    +0.000 C 
BRANCH   5   6
ATOM      6  C   UNL     1       8.861   9.699  18.523  0.00  0.00    +0.000 C 
BRANCH   6   7
ATOM      7  O   UNL     1       9.540  10.624  17.669  0.00  0.00    +0.000 OA
BRANCH   7  11
ATOM      8  C   UNL     1      11.436  13.880  19.475  0.00  0.00    +0.000 A 
ATOM      9  C   UNL     1      10.569  14.037  18.393  0.00  0.00    +0.000 A 
ATOM     10  C   UNL     1       9.946  12.924  17.819  0.00  0.00    +0.000 A 
ATOM     11  C   UNL     1      10.210  11.639  18.296  0.00  0.00    +0.000 A 
ATOM     12  C   UNL     1      11.077  11.482  19.378  0.00  0.00    +0.000 A 
ATOM     13  C   UNL     1      11.690  12.598  19.961  0.00  0.00    +0.000 A 
BRANCH   8  15
ATOM     14  C   UNL     1      11.089  15.967  20.525  0.00  0.00    +0.000 C 
ATOM     15  O   UNL     1      11.998  15.030  19.954  0.00  0.00    +0.000 OA
ENDBRANCH   8  15
ENDBRANCH   7  11
ENDBRANCH   6   7
ENDBRANCH   5   6
ENDBRANCH   1   5
BRANCH   2  16
ATOM     16  C   UNL     1       7.326   5.147  17.484  0.00  0.00    +0.000 C 
BRANCH  16  17
ATOM     17  N   UNL     1       6.889   4.780  18.865  0.00  0.00    +0.000 NA
ATOM     18  C   UNL     1       7.828   5.367  19.839  0.00  0.00    +0.000 C 
BRANCH  17  19
ATOM     19  C   UNL     1       5.537   5.328  19.128  0.00  0.00    +0.000 C 
BRANCH  19  20
ATOM     20  C   UNL     1       4.536   4.288  19.521  0.00  0.00    +0.000 A 
ATOM     21  N   UNL     1       4.770   2.994  19.629  0.00  0.00    +0.000 NA
ATOM     22  N   UNL     1       3.594   2.369  19.955  0.00  0.00    +0.000 NA
ATOM     23  C   UNL     1       2.651   3.283  20.031  0.00  0.00    +0.000 A 
ATOM     24  C   UNL     1       1.215   3.036  20.293  0.00  0.00    +0.000 C 
ATOM     25  N   UNL     1       3.209   4.514  19.796  0.00  0.00    +0.000 N 
ATOM     26  C   UNL     1       2.537   5.787  19.805  0.00  0.00    +0.000 C 
ENDBRANCH  19  20
ENDBRANCH  17  19
ENDBRANCH  16  17
ENDBRANCH   2  16
TORSDOF 9
ENDMDL
MODEL 8
REMARK VINA RESULT:      -6.7      5.134      7.463
REMARK  Name = 
REMARK  13 active torsions:
REMARK  status: ('A' for Active; 'I' for Inactive)
REMARK    1  A    between atoms: C_1  and  O_2
REMARK    2  A    between atoms: O_2  and  C_3
REMARK    3  A    between atoms: C_6  and  O_7
REMARK    4  A    between atoms: O_7  and  C_8
REMARK    5  A    between atoms: C_8  and  C_9
REMARK    6  A    between atoms: C_9  and  N_10
REMARK    7  A    between atoms: C_11  and  C_13
REMARK    8  A    between atoms: C_13  and  N_14
REMARK    9  A    between atoms: N_14  and  C_15
REMARK   10  A    between atoms: N_14  and  C_16
REMARK   11  A    between atoms: C_16  and  C_17
REMARK   12  A    between atoms: C_20  and  C_21
REMARK   13  A    between atoms: N_22  and  C_23
REMARK                            x       y       z     vdW  Elec       q    Type
REMARK                         _______ _______ _______ _____ _____    ______ ____
ROOT
ATOM      1  N   UNL     1       6.673   7.479  17.590  0.00  0.00    +0.000 N 
ATOM      2  C   UNL     1       6.546   6.477  16.647  0.00  0.00    +0.000 C 
ATOM      3  O   UNL     1       7.506   5.965  16.074  0.00  0.00    +0.000 OA
ATOM      4  H   UNL     1       5.834   7.743  18.092  0.00  0.00    +0.000 HD
ENDROOT
BRANCH   1   5
ATOM      5  C   UNL     1       7.977   7.952  18.021  0.00  0.00    +0.000 C 
BRANCH   5   6
ATOM      6  C   UNL     1       8.163   9.455  17.809  0.00  0.00    +0.000 C 
BRANCH   6   7
ATOM      7  O   UNL     1       9.051   9.955  18.813  0.00  0.00    +0.000 OA
BRANCH   7  11
ATOM      8  C   UNL     1      10.805  13.689  18.150  0.00  0.00    +0.000 A 
ATOM      9  C   UNL     1       9.693  13.531  18.979  0.00  0.00    +0.000 A 
ATOM     10  C   UNL     1       9.138  12.264  19.184  0.00  0.00    +0.000 A 
ATOM     11  C   UNL     1       9.664  11.146  18.533  0.00  0.00    +0.000 A 
ATOM     12  C   UNL     1      10.775  11.304  17.704  0.00  0.00    +0.000 A 
ATOM     13  C   UNL     1      11.339  12.571  17.510  0.00  0.00    +0.000 A 
BRANCH   8  15
ATOM     14  C   UNL     1      10.373  15.873  17.359  0.00  0.00    +0.000 C 
ATOM     15  O   UNL     1      11.261  14.970  18.012  0.00  0.00    +0.000 OA
ENDBRANCH   8  15
ENDBRANCH   7  11
ENDBRANCH   6   7
ENDBRANCH   5   6
ENDBRANCH   1   5
BRANCH   2  16
ATOM     16  C   UNL     1       5.102   6.052  16.360  0.00  0.00    +0.000 C 
BRANCH  16  17
ATOM     17  N   UNL     1       4.272   6.070  17.603  0.00  0.00    +0.000 NA
ATOM     18  C   UNL     1       3.380   7.245  17.569  0.00  0.00    +0.000 C 
BRANCH  17  19
ATOM     19  C   UNL     1       3.435   4.848  17.667  0.00  0.00    +0.000 C 
BRANCH  19  20
ATOM     20  C   UNL     1       2.879   4.574  19.030  0.00  0.00    +0.000 A 
ATOM     21  N   UNL     1       2.981   5.369  20.077  0.00  0.00    +0.000 NA
ATOM     22  N   UNL     1       2.395   4.746  21.149  0.00  0.00    +0.000 NA
ATOM     23  C   UNL     1       1.951   3.574  20.750  0.00  0.00    +0.000 A 
ATOM     24  C   UNL     1       1.310   2.547  21.602  0.00  0.00    +0.000 C 
ATOM     25  N   UNL     1       2.208   3.438  19.408  0.00  0.00    +0.000 N 
ATOM     26  C   UNL     1       1.869   2.318  18.570  0.00  0.00    +0.000 C 
ENDBRANCH  19  20
ENDBRANCH  17  19
ENDBRANCH  16  17
ENDBRANCH   2  16
TORSDOF 9
ENDMDL
MODEL 9
REMARK VINA RESULT:      -6.6      3.940      8.655
REMARK  Name = 
REMARK  13 active torsions:
REMARK  status: ('A' for Active; 'I' for Inactive)
REMARK    1  A    between atoms: C_1  and  O_2
REMARK    2  A    between atoms: O_2  and  C_3
REMARK    3  A    between atoms: C_6  and  O_7
REMARK    4  A    between atoms: O_7  and  C_8
REMARK    5  A    between atoms: C_8  and  C_9
REMARK    6  A    between atoms: C_9  and  N_10
REMARK    7  A    between atoms: C_11  and  C_13
REMARK    8  A    between atoms: C_13  and  N_14
REMARK    9  A    between atoms: N_14  and  C_15
REMARK   10  A    between atoms: N_14  and  C_16
REMARK   11  A    between atoms: C_16  and  C_17
REMARK   12  A    between atoms: C_20  and  C_21
REMARK   13  A    between atoms: N_22  and  C_23
REMARK                            x       y       z     vdW  Elec       q    Type
REMARK                         _______ _______ _______ _____ _____    ______ ____
ROOT
ATOM      1  N   UNL     1       2.181   7.364  17.882  0.00  0.00    +0.000 N 
ATOM      2  C   UNL     1       2.424   6.224  18.624  0.00  0.00    +0.000 C 
ATOM      3  O   UNL     1       2.929   6.245  19.746  0.00  0.00    +0.000 OA
ATOM      4  H   UNL     1       1.648   7.247  17.028  0.00  0.00    +0.000 HD
ENDROOT
BRANCH   1   5
ATOM      5  C   UNL     1       2.450   8.687  18.415  0.00  0.00    +0.000 C 
BRANCH   5   6
ATOM      6  C   UNL     1       1.393   9.716  18.014  0.00  0.00    +0.000 C 
BRANCH   6   7
ATOM      7  O   UNL     1       0.149   9.359  18.623  0.00  0.00    +0.000 OA
BRANCH   7  11
ATOM      8  C   UNL     1      -0.898  11.404  22.113  0.00  0.00    +0.000 A 
ATOM      9  C   UNL     1      -1.220  11.892  20.845  0.00  0.00    +0.000 A 
ATOM     10  C   UNL     1      -0.860  11.175  19.700  0.00  0.00    +0.000 A 
ATOM     11  C   UNL     1      -0.142   9.983  19.805  0.00  0.00    +0.000 A 
ATOM     12  C   UNL     1       0.180   9.494  21.072  0.00  0.00    +0.000 A 
ATOM     13  C   UNL     1      -0.193  10.206  22.220  0.00  0.00    +0.000 A 
BRANCH   8  15
ATOM     14  C   UNL     1      -0.989  13.574  23.041  0.00  0.00    +0.000 C 
ATOM     15  O   UNL     1      -1.288  12.186  23.163  0.00  0.00    +0.000 OA
ENDBRANCH   8  15
ENDBRANCH   7  11
ENDBRANCH   6   7
ENDBRANCH   5   6
ENDBRANCH   1   5
BRANCH   2  16
ATOM     16  C   UNL     1       2.018   4.916  17.936  0.00  0.00    +0.000 C 
BRANCH  16  17
ATOM     17  N   UNL     1       2.877   3.778  18.380  0.00  0.00    +0.000 NA
ATOM     18  C   UNL     1       2.097   2.528  18.304  0.00  0.00    +0.000 C 
BRANCH  17  19
ATOM     19  C   UNL     1       4.051   3.653  17.483  0.00  0.00    +0.000 C 
BRANCH  19  20
ATOM     20  C   UNL     1       5.252   4.408  17.959  0.00  0.00    +0.000 A 
ATOM     21  N   UNL     1       5.931   4.160  19.062  0.00  0.00    +0.000 NA
ATOM     22  N   UNL     1       6.923   5.098  19.178  0.00  0.00    +0.000 NA
ATOM     23  C   UNL     1       6.834   5.918  18.153  0.00  0.00    +0.000 A 
ATOM     24  C   UNL     1       7.670   7.117  17.919  0.00  0.00    +0.000 C 
ATOM     25  N   UNL     1       5.811   5.499  17.340  0.00  0.00    +0.000 N 
ATOM     26  C   UNL     1       5.387   6.098  16.102  0.00  0.00    +0.000 C 
ENDBRANCH  19  20
ENDBRANCH  17  19
ENDBRANCH  16  17
ENDBRANCH   2  16
TORSDOF 9
ENDMDL
