MODEL 1
REMARK VINA RESULT:      -7.0      0.000      0.000
REMARK  Name = 
REMARK  16 active torsions:
REMARK  status: ('A' for Active; 'I' for Inactive)
REMARK    1  A    between atoms: C_1  and  C_2
REMARK    2  A    between atoms: C_2  and  C_3
REMARK    3  A    between atoms: C_3  and  C_4
REMARK    4  A    between atoms: C_4  and  O_6
REMARK    5  A    between atoms: O_6  and  C_7
REMARK    6  A    between atoms: C_7  and  C_8
REMARK    7  A    between atoms: C_8  and  O_9
REMARK    8  A    between atoms: C_8  and  C_10
REMARK    9  A    between atoms: C_10  and  O_11
REMARK   10  A    between atoms: C_10  and  C_13
REMARK   11  A    between atoms: O_11  and  C_12
REMARK   12  A    between atoms: C_15  and  C_16
REMARK   13  A    between atoms: C_16  and  O_18
REMARK   14  A    between atoms: C_20  and  N_21
REMARK   15  A    between atoms: C_25  and  N_26
REMARK   16  A    between atoms: C_27  and  C_28
REMARK                            x       y       z     vdW  Elec       q    Type
REMARK                         _______ _______ _______ _____ _____    ______ ____
ROOT
ATOM      1  C   UNL     1       5.150   4.420  19.436  0.00  0.00    +0.000 C 
ATOM      2  O   UNL     1       5.411   3.008  19.438  0.00  0.00    +0.000 OA
ATOM      3  C   UNL     1       4.707   2.303  20.384  0.00  0.00    +0.000 C 
ATOM      4  C   UNL     1       3.548   2.732  20.907  0.00  0.00    +0.000 C 
ATOM      5  C   UNL     1       2.867   3.994  20.462  0.00  0.00    +0.000 C 
ATOM      6  C   UNL     1       3.629   4.689  19.273  0.00  0.00    +0.000 C 
ENDROOT
BRANCH   5   7
ATOM      7  N   UNL     1       1.524   3.584  20.059  0.00  0.00    +0.000 N 
ATOM      8  C   UNL     1       1.193   2.904  18.944  0.00  0.00    +0.000 C 
ATOM      9  N   UNL     1       1.924   2.643  17.926  0.00  0.00    +0.000 NA
ATOM     10  N   UNL     1      -0.083   2.481  18.969  0.00  0.00    +0.000 N 
ATOM     11  H   UNL     1       0.865   3.472  20.820  0.00  0.00    +0.000 HD
ATOM     12  H   UNL     1       2.837   3.082  18.037  0.00  0.00    +0.000 HD
ATOM     13  H   UNL     1      -0.744   3.187  19.269  0.00  0.00    +0.000 HD
ATOM     14  H   UNL     1      -0.343   2.143  18.044  0.00  0.00    +0.000 HD
ENDBRANCH   5   7
BRANCH   6  15
ATOM     15  N   UNL     1       3.302   6.114  19.085  0.00  0.00    +0.000 N 
ATOM     16  C   UNL     1       2.318   6.542  18.218  0.00  0.00    +0.000 C 
ATOM     17  C   UNL     1       2.146   8.036  18.125  0.00  0.00    +0.000 C 
ATOM     18  O   UNL     1       1.632   5.759  17.568  0.00  0.00    +0.000 OA
ATOM     19  H   UNL     1       3.999   6.804  19.355  0.00  0.00    +0.000 HD
ENDBRANCH   6  15
BRANCH   3  20
ATOM     20  C   UNL     1       5.306   1.003  20.813  0.00  0.00    +0.000 C 
ATOM     21  O   UNL     1       5.756   0.777  21.916  0.00  0.00    +0.000 OA
BRANCH  20  22
ATOM     22  O   UNL     1       5.256   0.105  19.801  0.00  0.00    +0.000 OA
ATOM     23  H   UNL     1       4.412  -0.390  19.799  0.00  0.00    +0.000 HD
ENDBRANCH  20  22
ENDBRANCH   3  20
BRANCH   1  24
ATOM     24  C   UNL     1       6.121   5.044  18.388  0.00  0.00    +0.000 C 
BRANCH  24  25
ATOM     25  O   UNL     1       7.504   4.761  18.730  0.00  0.00    +0.000 OA
ATOM     26  C   UNL     1       8.187   5.766  19.465  0.00  0.00    +0.000 C 
ENDBRANCH  24  25
BRANCH  24  27
ATOM     27  C   UNL     1       5.965   4.589  16.899  0.00  0.00    +0.000 C 
BRANCH  27  28
ATOM     28  O   UNL     1       5.481   3.252  16.741  0.00  0.00    +0.000 OA
ATOM     29  H   UNL     1       5.288   3.050  15.820  0.00  0.00    +0.000 HD
ENDBRANCH  27  28
BRANCH  27  30
ATOM     30  C   UNL     1       7.180   4.818  15.968  0.00  0.00    +0.000 C 
BRANCH  30  31
ATOM     31  O   UNL     1       6.870   5.585  14.792  0.00  0.00    +0.000 OA
BRANCH  31  32
ATOM     32  C   UNL     1       6.989   4.881  13.624  0.00  0.00    +0.000 C 
ATOM     33  O   UNL     1       7.842   5.095  12.773  0.00  0.00    +0.000 OA
BRANCH  32  34
ATOM     34  C   UNL     1       5.905   3.839  13.497  0.00  0.00    +0.000 C 
BRANCH  34  36
ATOM     35  C   UNL     1       4.485   3.142  11.519  0.00  0.00    +0.000 C 
ATOM     36  C   UNL     1       5.890   3.256  12.083  0.00  0.00    +0.000 C 
ENDBRANCH  34  36
ENDBRANCH  32  34
ENDBRANCH  31  32
ENDBRANCH  30  31
ENDBRANCH  27  30
ENDBRANCH  24  27
ENDBRANCH   1  24
TORSDOF 13
ENDMDL
MODEL 2
REMARK VINA RESULT:      -6.8      1.943      4.421
REMARK  Name = 
REMARK  16 active torsions:
REMARK  status: ('A' for Active; 'I' for Inactive)
REMARK    1  A    between atoms: C_1  and  C_2
REMARK    2  A    between atoms: C_2  and  C_3
REMARK    3  A    between atoms: C_3  and  C_4
REMARK    4  A    between atoms: C_4  and  O_6
REMARK    5  A    between atoms: O_6  and  C_7
REMARK    6  A    between atoms: C_7  and  C_8
REMARK    7  A    between atoms: C_8  and  O_9
REMARK    8  A    between atoms: C_8  and  C_10
REMARK    9  A    between atoms: C_10  and  O_11
REMARK   10  A    between atoms: C_10  and  C_13
REMARK   11  A    between atoms: O_11  and  C_12
REMARK   12  A    between atoms: C_15  and  C_16
REMARK   13  A    between atoms: C_16  and  O_18
REMARK   14  A    between atoms: C_20  and  N_21
REMARK   15  A    between atoms: C_25  and  N_26
REMARK   16  A    between atoms: C_27  and  C_28
REMARK                            x       y       z     vdW  Elec       q    Type
REMARK                         _______ _______ _______ _____ _____    ______ ____
ROOT
ATOM      1  C   UNL     1       3.739   5.534  17.286  0.00  0.00    +0.000 C 
ATOM      2  O   UNL     1       3.668   6.885  17.768  0.00  0.00    +0.000 OA
ATOM      3  C   UNL     1       2.510   7.186  18.443  0.00  0.00    +0.000 C 
ATOM      4  C   UNL     1       1.751   6.258  19.047  0.00  0.00    +0.000 C 
ATOM      5  C   UNL     1       2.126   4.806  19.106  0.00  0.00    +0.000 C 
ATOM      6  C   UNL     1       3.532   4.532  18.454  0.00  0.00    +0.000 C 
ENDROOT
BRANCH   5   7
ATOM      7  N   UNL     1       2.130   4.468  20.527  0.00  0.00    +0.000 N 
ATOM      8  C   UNL     1       1.519   3.416  21.104  0.00  0.00    +0.000 C 
ATOM      9  N   UNL     1       0.665   2.612  20.590  0.00  0.00    +0.000 NA
ATOM     10  N   UNL     1       1.896   3.250  22.384  0.00  0.00    +0.000 N 
ATOM     11  H   UNL     1       2.928   4.817  21.046  0.00  0.00    +0.000 HD
ATOM     12  H   UNL     1       0.443   2.909  19.640  0.00  0.00    +0.000 HD
ATOM     13  H   UNL     1       1.904   4.107  22.925  0.00  0.00    +0.000 HD
ATOM     14  H   UNL     1       1.280   2.573  22.832  0.00  0.00    +0.000 HD
ENDBRANCH   5   7
BRANCH   6  15
ATOM     15  N   UNL     1       3.766   3.128  18.070  0.00  0.00    +0.000 N 
ATOM     16  C   UNL     1       4.154   2.165  18.978  0.00  0.00    +0.000 C 
ATOM     17  C   UNL     1       4.385   0.791  18.402  0.00  0.00    +0.000 C 
ATOM     18  O   UNL     1       4.302   2.411  20.171  0.00  0.00    +0.000 OA
ATOM     19  H   UNL     1       3.944   2.924  17.090  0.00  0.00    +0.000 HD
ENDBRANCH   6  15
BRANCH   3  20
ATOM     20  C   UNL     1       2.125   8.630  18.476  0.00  0.00    +0.000 C 
ATOM     21  O   UNL     1       1.572   9.179  19.404  0.00  0.00    +0.000 OA
BRANCH  20  22
ATOM     22  O   UNL     1       2.502   9.243  17.330  0.00  0.00    +0.000 OA
ATOM     23  H   UNL     1       3.460   9.446  17.326  0.00  0.00    +0.000 HD
ENDBRANCH  20  22
ENDBRANCH   3  20
BRANCH   1  24
ATOM     24  C   UNL     1       5.056   5.433  16.458  0.00  0.00    +0.000 C 
BRANCH  24  25
ATOM     25  O   UNL     1       6.214   5.364  17.332  0.00  0.00    +0.000 OA
ATOM     26  C   UNL     1       7.142   6.434  17.230  0.00  0.00    +0.000 C 
ENDBRANCH  24  25
BRANCH  24  27
ATOM     27  C   UNL     1       5.203   4.217  15.483  0.00  0.00    +0.000 C 
BRANCH  27  28
ATOM     28  O   UNL     1       6.054   3.175  15.970  0.00  0.00    +0.000 OA
ATOM     29  H   UNL     1       6.972   3.460  16.021  0.00  0.00    +0.000 HD
ENDBRANCH  27  28
BRANCH  27  30
ATOM     30  C   UNL     1       5.564   4.541  14.013  0.00  0.00    +0.000 C 
BRANCH  30  31
ATOM     31  O   UNL     1       6.313   3.503  13.360  0.00  0.00    +0.000 OA
BRANCH  31  32
ATOM     32  C   UNL     1       5.706   3.001  12.241  0.00  0.00    +0.000 C 
ATOM     33  O   UNL     1       6.132   2.058  11.588  0.00  0.00    +0.000 OA
BRANCH  32  34
ATOM     34  C   UNL     1       4.468   3.789  11.887  0.00  0.00    +0.000 C 
BRANCH  34  36
ATOM     35  C   UNL     1       3.038   4.133   9.825  0.00  0.00    +0.000 C 
ATOM     36  C   UNL     1       3.728   3.123  10.725  0.00  0.00    +0.000 C 
ENDBRANCH  34  36
ENDBRANCH  32  34
ENDBRANCH  31  32
ENDBRANCH  30  31
ENDBRANCH  27  30
ENDBRANCH  24  27
ENDBRANCH   1  24
TORSDOF 13
ENDMDL
MODEL 3
REMARK VINA RESULT:      -6.8      2.241      4.206
REMARK  Name = 
REMARK  16 active torsions:
REMARK  status: ('A' for Active; 'I' for Inactive)
REMARK    1  A    between atoms: C_1  and  C_2
REMARK    2  A    between atoms: C_2  and  C_3
REMARK    3  A    between atoms: C_3  and  C_4
REMARK    4  A    between atoms: C_4  and  O_6
REMARK    5  A    between atoms: O_6  and  C_7
REMARK    6  A    between atoms: C_7  and  C_8
REMARK    7  A    between atoms: C_8  and  O_9
REMARK    8  A    between atoms: C_8  and  C_10
REMARK    9  A    between atoms: C_10  and  O_11
REMARK   10  A    between atoms: C_10  and  C_13
REMARK   11  A    between atoms: O_11  and  C_12
REMARK   12  A    between atoms: C_15  and  C_16
REMARK   13  A    between atoms: C_16  and  O_18
REMARK   14  A    between atoms: C_20  and  N_21
REMARK   15  A    between atoms: C_25  and  N_26
REMARK   16  A    between atoms: C_27  and  C_28
REMARK                            x       y       z     vdW  Elec       q    Type
REMARK                         _______ _______ _______ _____ _____    ______ ____
ROOT
ATOM      1  C   UNL     1       4.249   5.797  17.471  0.00  0.00    +0.000 C 
ATOM      2  O   UNL     1       3.914   7.118  17.923  0.00  0.00    +0.000 OA
ATOM      3  C   UNL     1       2.646   7.236  18.439  0.00  0.00    +0.000 C 
ATOM      4  C   UNL     1       1.963   6.201  18.951  0.00  0.00    +0.000 C 
ATOM      5  C   UNL     1       2.540   4.821  19.076  0.00  0.00    +0.000 C 
ATOM      6  C   UNL     1       4.044   4.766  18.615  0.00  0.00    +0.000 C 
ENDROOT
BRANCH   5   7
ATOM      7  N   UNL     1       2.411   4.477  20.490  0.00  0.00    +0.000 N 
ATOM      8  C   UNL     1       1.647   3.498  21.011  0.00  0.00    +0.000 C 
ATOM      9  N   UNL     1       0.744   2.800  20.431  0.00  0.00    +0.000 NA
ATOM     10  N   UNL     1       1.915   3.284  22.311  0.00  0.00    +0.000 N 
ATOM     11  H   UNL     1       3.206   4.730  21.065  0.00  0.00    +0.000 HD
ATOM     12  H   UNL     1       0.622   3.125  19.473  0.00  0.00    +0.000 HD
ATOM     13  H   UNL     1       1.984   4.131  22.862  0.00  0.00    +0.000 HD
ATOM     14  H   UNL     1       1.198   2.679  22.708  0.00  0.00    +0.000 HD
ENDBRANCH   5   7
BRANCH   6  15
ATOM     15  N   UNL     1       4.534   3.416  18.282  0.00  0.00    +0.000 N 
ATOM     16  C   UNL     1       3.690   2.394  17.899  0.00  0.00    +0.000 C 
ATOM     17  C   UNL     1       4.361   1.070  17.633  0.00  0.00    +0.000 C 
ATOM     18  O   UNL     1       2.479   2.552  17.785  0.00  0.00    +0.000 OA
ATOM     19  H   UNL     1       5.450   3.142  18.626  0.00  0.00    +0.000 HD
ENDBRANCH   6  15
BRANCH   3  20
ATOM     20  C   UNL     1       2.050   8.606  18.403  0.00  0.00    +0.000 C 
ATOM     21  O   UNL     1       1.421   9.112  19.309  0.00  0.00    +0.000 OA
BRANCH  20  22
ATOM     22  O   UNL     1       2.328   9.211  17.226  0.00  0.00    +0.000 OA
ATOM     23  H   UNL     1       3.089   8.792  16.775  0.00  0.00    +0.000 HD
ENDBRANCH  20  22
ENDBRANCH   3  20
BRANCH   1  24
ATOM     24  C   UNL     1       5.662   5.900  16.822  0.00  0.00    +0.000 C 
BRANCH  24  25
ATOM     25  O   UNL     1       6.645   6.359  17.789  0.00  0.00    +0.000 OA
ATOM     26  C   UNL     1       7.451   7.458  17.391  0.00  0.00    +0.000 C 
ENDBRANCH  24  25
BRANCH  24  27
ATOM     27  C   UNL     1       6.270   4.596  16.205  0.00  0.00    +0.000 C 
BRANCH  27  28
ATOM     28  O   UNL     1       7.303   3.999  16.996  0.00  0.00    +0.000 OA
ATOM     29  H   UNL     1       7.845   4.664  17.432  0.00  0.00    +0.000 HD
ENDBRANCH  27  28
BRANCH  27  30
ATOM     30  C   UNL     1       6.720   4.668  14.726  0.00  0.00    +0.000 C 
BRANCH  30  31
ATOM     31  O   UNL     1       5.845   3.972  13.822  0.00  0.00    +0.000 OA
BRANCH  31  32
ATOM     32  C   UNL     1       6.361   3.812  12.564  0.00  0.00    +0.000 C 
ATOM     33  O   UNL     1       7.351   4.396  12.145  0.00  0.00    +0.000 OA
BRANCH  32  34
ATOM     34  C   UNL     1       5.525   2.859  11.745  0.00  0.00    +0.000 C 
BRANCH  34  36
ATOM     35  C   UNL     1       3.565   3.631  10.338  0.00  0.00    +0.000 C 
ATOM     36  C   UNL     1       4.062   3.308  11.736  0.00  0.00    +0.000 C 
ENDBRANCH  34  36
ENDBRANCH  32  34
ENDBRANCH  31  32
ENDBRANCH  30  31
ENDBRANCH  27  30
ENDBRANCH  24  27
ENDBRANCH   1  24
TORSDOF 13
ENDMDL
MODEL 4
REMARK VINA RESULT:      -6.7      1.581      4.113
REMARK  Name = 
REMARK  16 active torsions:
REMARK  status: ('A' for Active; 'I' for Inactive)
REMARK    1  A    between atoms: C_1  and  C_2
REMARK    2  A    between atoms: C_2  and  C_3
REMARK    3  A    between atoms: C_3  and  C_4
REMARK    4  A    between atoms: C_4  and  O_6
REMARK    5  A    between atoms: O_6  and  C_7
REMARK    6  A    between atoms: C_7  and  C_8
REMARK    7  A    between atoms: C_8  and  O_9
REMARK    8  A    between atoms: C_8  and  C_10
REMARK    9  A    between atoms: C_10  and  O_11
REMARK   10  A    between atoms: C_10  and  C_13
REMARK   11  A    between atoms: O_11  and  C_12
REMARK   12  A    between atoms: C_15  and  C_16
REMARK   13  A    between atoms: C_16  and  O_18
REMARK   14  A    between atoms: C_20  and  N_21
REMARK   15  A    between atoms: C_25  and  N_26
REMARK   16  A    between atoms: C_27  and  C_28
REMARK                            x       y       z     vdW  Elec       q    Type
REMARK                         _______ _______ _______ _____ _____    ______ ____
ROOT
ATOM      1  C   UNL     1       4.586   5.243  18.008  0.00  0.00    +0.000 C 
ATOM      2  O   UNL     1       4.195   6.587  18.328  0.00  0.00    +0.000 OA
ATOM      3  C   UNL     1       2.840   6.768  18.456  0.00  0.00    +0.000 C 
ATOM      4  C   UNL     1       1.992   5.774  18.762  0.00  0.00    +0.000 C 
ATOM      5  C   UNL     1       2.447   4.375  19.064  0.00  0.00    +0.000 C 
ATOM      6  C   UNL     1       4.015   4.249  19.056  0.00  0.00    +0.000 C 
ENDROOT
BRANCH   5   7
ATOM      7  N   UNL     1       1.901   4.071  20.385  0.00  0.00    +0.000 N 
ATOM      8  C   UNL     1       1.003   3.113  20.681  0.00  0.00    +0.000 C 
ATOM      9  N   UNL     1       0.300   2.406  19.877  0.00  0.00    +0.000 NA
ATOM     10  N   UNL     1       0.873   2.932  22.007  0.00  0.00    +0.000 N 
ATOM     11  H   UNL     1       2.496   4.333  21.162  0.00  0.00    +0.000 HD
ATOM     12  H   UNL     1       0.470   2.706  18.918  0.00  0.00    +0.000 HD
ATOM     13  H   UNL     1       0.790   3.793  22.533  0.00  0.00    +0.000 HD
ATOM     14  H   UNL     1       0.062   2.344  22.189  0.00  0.00    +0.000 HD
ENDBRANCH   5   7
BRANCH   6  15
ATOM     15  N   UNL     1       4.519   2.873  18.894  0.00  0.00    +0.000 N 
ATOM     16  C   UNL     1       4.534   1.961  19.929  0.00  0.00    +0.000 C 
ATOM     17  C   UNL     1       5.119   0.614  19.592  0.00  0.00    +0.000 C 
ATOM     18  O   UNL     1       4.101   2.231  21.045  0.00  0.00    +0.000 OA
ATOM     19  H   UNL     1       5.140   2.681  18.112  0.00  0.00    +0.000 HD
ENDBRANCH   6  15
BRANCH   3  20
ATOM     20  C   UNL     1       2.340   8.159  18.234  0.00  0.00    +0.000 C 
ATOM     21  O   UNL     1       2.543   8.817  17.236  0.00  0.00    +0.000 OA
BRANCH  20  22
ATOM     22  O   UNL     1       1.612   8.573  19.297  0.00  0.00    +0.000 OA
ATOM     23  H   UNL     1       0.887   7.949  19.503  0.00  0.00    +0.000 HD
ENDBRANCH  20  22
ENDBRANCH   3  20
BRANCH   1  24
ATOM     24  C   UNL     1       6.129   5.275  17.792  0.00  0.00    +0.000 C 
BRANCH  24  25
ATOM     25  O   UNL     1       6.829   4.802  18.974  0.00  0.00    +0.000 OA
ATOM     26  C   UNL     1       7.630   5.757  19.653  0.00  0.00    +0.000 C 
ENDBRANCH  24  25
BRANCH  24  27
ATOM     27  C   UNL     1       6.710   4.431  16.607  0.00  0.00    +0.000 C 
BRANCH  27  28
ATOM     28  O   UNL     1       8.093   4.095  16.748  0.00  0.00    +0.000 OA
ATOM     29  H   UNL     1       8.323   3.918  17.666  0.00  0.00    +0.000 HD
ENDBRANCH  27  28
BRANCH  27  30
ATOM     30  C   UNL     1       6.444   4.963  15.177  0.00  0.00    +0.000 C 
BRANCH  30  31
ATOM     31  O   UNL     1       6.571   3.959  14.156  0.00  0.00    +0.000 OA
BRANCH  31  32
ATOM     32  C   UNL     1       7.139   4.415  12.997  0.00  0.00    +0.000 C 
ATOM     33  O   UNL     1       7.669   5.511  12.873  0.00  0.00    +0.000 OA
BRANCH  32  34
ATOM     34  C   UNL     1       6.986   3.414  11.878  0.00  0.00    +0.000 C 
BRANCH  34  36
ATOM     35  C   UNL     1       4.485   3.545  11.494  0.00  0.00    +0.000 C 
ATOM     36  C   UNL     1       5.641   2.693  11.990  0.00  0.00    +0.000 C 
ENDBRANCH  34  36
ENDBRANCH  32  34
ENDBRANCH  31  32
ENDBRANCH  30  31
ENDBRANCH  27  30
ENDBRANCH  24  27
ENDBRANCH   1  24
TORSDOF 13
ENDMDL
MODEL 5
REMARK VINA RESULT:      -6.7      3.377      5.783
REMARK  Name = 
REMARK  16 active torsions:
REMARK  status: ('A' for Active; 'I' for Inactive)
REMARK    1  A    between atoms: C_1  and  C_2
REMARK    2  A    between atoms: C_2  and  C_3
REMARK    3  A    between atoms: C_3  and  C_4
REMARK    4  A    between atoms: C_4  and  O_6
REMARK    5  A    between atoms: O_6  and  C_7
REMARK    6  A    between atoms: C_7  and  C_8
REMARK    7  A    between atoms: C_8  and  O_9
REMARK    8  A    between atoms: C_8  and  C_10
REMARK    9  A    between atoms: C_10  and  O_11
REMARK   10  A    between atoms: C_10  and  C_13
REMARK   11  A    between atoms: O_11  and  C_12
REMARK   12  A    between atoms: C_15  and  C_16
REMARK   13  A    between atoms: C_16  and  O_18
REMARK   14  A    between atoms: C_20  and  N_21
REMARK   15  A    between atoms: C_25  and  N_26
REMARK   16  A    between atoms: C_27  and  C_28
REMARK                            x       y       z     vdW  Elec       q    Type
REMARK                         _______ _______ _______ _____ _____    ______ ____
ROOT
ATOM      1  C   UNL     1       5.273   5.776  18.112  0.00  0.00    +0.000 C 
ATOM      2  O   UNL     1       4.509   5.848  19.325  0.00  0.00    +0.000 OA
ATOM      3  C   UNL     1       3.250   5.304  19.235  0.00  0.00    +0.000 C 
ATOM      4  C   UNL     1       2.918   4.367  18.333  0.00  0.00    +0.000 C 
ATOM      5  C   UNL     1       3.906   3.767  17.375  0.00  0.00    +0.000 C 
ATOM      6  C   UNL     1       5.365   4.307  17.616  0.00  0.00    +0.000 C 
ENDROOT
BRANCH   5   7
ATOM      7  N   UNL     1       3.835   2.326  17.603  0.00  0.00    +0.000 N 
ATOM      8  C   UNL     1       4.208   1.669  18.717  0.00  0.00    +0.000 C 
ATOM      9  N   UNL     1       4.867   2.116  19.720  0.00  0.00    +0.000 NA
ATOM     10  N   UNL     1       3.809   0.385  18.707  0.00  0.00    +0.000 N 
ATOM     11  H   UNL     1       3.132   1.842  17.055  0.00  0.00    +0.000 HD
ATOM     12  H   UNL     1       5.144   3.081  19.546  0.00  0.00    +0.000 HD
ATOM     13  H   UNL     1       3.987  -0.093  17.832  0.00  0.00    +0.000 HD
ATOM     14  H   UNL     1       4.266  -0.116  19.466  0.00  0.00    +0.000 HD
ENDBRANCH   5   7
BRANCH   6  15
ATOM     15  N   UNL     1       6.281   4.129  16.474  0.00  0.00    +0.000 N 
ATOM     16  C   UNL     1       6.030   4.673  15.231  0.00  0.00    +0.000 C 
ATOM     17  C   UNL     1       7.056   4.358  14.172  0.00  0.00    +0.000 C 
ATOM     18  O   UNL     1       5.041   5.362  15.004  0.00  0.00    +0.000 OA
ATOM     19  H   UNL     1       6.940   3.356  16.506  0.00  0.00    +0.000 HD
ENDBRANCH   6  15
BRANCH   3  20
ATOM     20  C   UNL     1       2.243   5.817  20.213  0.00  0.00    +0.000 C 
ATOM     21  O   UNL     1       1.397   5.139  20.755  0.00  0.00    +0.000 OA
BRANCH  20  22
ATOM     22  O   UNL     1       2.423   7.141  20.424  0.00  0.00    +0.000 OA
ATOM     23  H   UNL     1       2.701   7.603  19.607  0.00  0.00    +0.000 HD
ENDBRANCH  20  22
ENDBRANCH   3  20
BRANCH   1  24
ATOM     24  C   UNL     1       6.603   6.541  18.385  0.00  0.00    +0.000 C 
BRANCH  24  25
ATOM     25  O   UNL     1       7.695   5.614  18.629  0.00  0.00    +0.000 OA
ATOM     26  C   UNL     1       8.159   5.530  19.968  0.00  0.00    +0.000 C 
ENDBRANCH  24  25
BRANCH  24  27
ATOM     27  C   UNL     1       7.125   7.505  17.267  0.00  0.00    +0.000 C 
BRANCH  27  28
ATOM     28  O   UNL     1       8.073   6.910  16.376  0.00  0.00    +0.000 OA
ATOM     29  H   UNL     1       8.900   6.704  16.824  0.00  0.00    +0.000 HD
ENDBRANCH  27  28
BRANCH  27  30
ATOM     30  C   UNL     1       7.636   8.892  17.724  0.00  0.00    +0.000 C 
BRANCH  30  31
ATOM     31  O   UNL     1       8.653   8.827  18.740  0.00  0.00    +0.000 OA
BRANCH  31  32
ATOM     32  C   UNL     1       9.133  10.050  19.122  0.00  0.00    +0.000 C 
ATOM     33  O   UNL     1       9.449  10.341  20.268  0.00  0.00    +0.000 OA
BRANCH  32  34
ATOM     34  C   UNL     1       9.179  11.010  17.958  0.00  0.00    +0.000 C 
BRANCH  34  36
ATOM     35  C   UNL     1      11.551  11.896  17.880  0.00  0.00    +0.000 C 
ATOM     36  C   UNL     1      10.112  12.182  18.272  0.00  0.00    +0.000 C 
ENDBRANCH  34  36
ENDBRANCH  32  34
ENDBRANCH  31  32
ENDBRANCH  30  31
ENDBRANCH  27  30
ENDBRANCH  24  27
ENDBRANCH   1  24
TORSDOF 13
ENDMDL
MODEL 6
REMARK VINA RESULT:      -6.7      2.186      4.229
REMARK  Name = 
REMARK  16 active torsions:
REMARK  status: ('A' for Active; 'I' for Inactive)
REMARK    1  A    between atoms: C_1  and  C_2
REMARK    2  A    between atoms: C_2  and  C_3
REMARK    3  A    between atoms: C_3  and  C_4
REMARK    4  A    between atoms: C_4  and  O_6
REMARK    5  A    between atoms: O_6  and  C_7
REMARK    6  A    between atoms: C_7  and  C_8
REMARK    7  A    between atoms: C_8  and  O_9
REMARK    8  A    between atoms: C_8  and  C_10
REMARK    9  A    between atoms: C_10  and  O_11
REMARK   10  A    between atoms: C_10  and  C_13
REMARK   11  A    between atoms: O_11  and  C_12
REMARK   12  A    between atoms: C_15  and  C_16
REMARK   13  A    between atoms: C_16  and  O_18
REMARK   14  A    between atoms: C_20  and  N_21
REMARK   15  A    between atoms: C_25  and  N_26
REMARK   16  A    between atoms: C_27  and  C_28
REMARK                            x       y       z     vdW  Elec       q    Type
REMARK                         _______ _______ _______ _____ _____    ______ ____
ROOT
ATOM      1  C   UNL     1       4.242   5.594  17.634  0.00  0.00    +0.000 C 
ATOM      2  O   UNL     1       3.925   6.928  18.059  0.00  0.00    +0.000 OA
ATOM      3  C   UNL     1       2.640   7.086  18.519  0.00  0.00    +0.000 C 
ATOM      4  C   UNL     1       1.907   6.075  19.010  0.00  0.00    +0.000 C 
ATOM      5  C   UNL     1       2.440   4.681  19.172  0.00  0.00    +0.000 C 
ATOM      6  C   UNL     1       3.960   4.581  18.776  0.00  0.00    +0.000 C 
ENDROOT
BRANCH   5   7
ATOM      7  N   UNL     1       2.241   4.354  20.581  0.00  0.00    +0.000 N 
ATOM      8  C   UNL     1       1.518   3.330  21.074  0.00  0.00    +0.000 C 
ATOM      9  N   UNL     1       0.711   2.555  20.451  0.00  0.00    +0.000 NA
ATOM     10  N   UNL     1       1.713   3.161  22.393  0.00  0.00    +0.000 N 
ATOM     11  H   UNL     1       2.974   4.678  21.202  0.00  0.00    +0.000 HD
ATOM     12  H   UNL     1       0.631   2.852  19.480  0.00  0.00    +0.000 HD
ATOM     13  H   UNL     1       1.680   4.021  22.927  0.00  0.00    +0.000 HD
ATOM     14  H   UNL     1       1.017   2.511  22.756  0.00  0.00    +0.000 HD
ENDBRANCH   5   7
BRANCH   6  15
ATOM     15  N   UNL     1       4.427   3.215  18.476  0.00  0.00    +0.000 N 
ATOM     16  C   UNL     1       3.576   2.217  18.047  0.00  0.00    +0.000 C 
ATOM     17  C   UNL     1       4.220   0.873  17.825  0.00  0.00    +0.000 C 
ATOM     18  O   UNL     1       2.379   2.412  17.862  0.00  0.00    +0.000 OA
ATOM     19  H   UNL     1       5.313   2.914  18.875  0.00  0.00    +0.000 HD
ENDBRANCH   6  15
BRANCH   3  20
ATOM     20  C   UNL     1       2.083   8.471  18.446  0.00  0.00    +0.000 C 
ATOM     21  O   UNL     1       1.514   9.038  19.354  0.00  0.00    +0.000 OA
BRANCH  20  22
ATOM     22  O   UNL     1       2.322   9.012  17.229  0.00  0.00    +0.000 OA
ATOM     23  H   UNL     1       1.645   9.676  16.989  0.00  0.00    +0.000 HD
ENDBRANCH  20  22
ENDBRANCH   3  20
BRANCH   1  24
ATOM     24  C   UNL     1       5.684   5.653  17.045  0.00  0.00    +0.000 C 
BRANCH  24  25
ATOM     25  O   UNL     1       6.428   4.449  17.373  0.00  0.00    +0.000 OA
ATOM     26  C   UNL     1       7.775   4.635  17.782  0.00  0.00    +0.000 C 
ENDBRANCH  24  25
BRANCH  24  27
ATOM     27  C   UNL     1       5.825   5.813  15.494  0.00  0.00    +0.000 C 
BRANCH  27  28
ATOM     28  O   UNL     1       5.094   6.914  14.949  0.00  0.00    +0.000 OA
ATOM     29  H   UNL     1       5.670   7.525  14.479  0.00  0.00    +0.000 HD
ENDBRANCH  27  28
BRANCH  27  30
ATOM     30  C   UNL     1       5.579   4.547  14.638  0.00  0.00    +0.000 C 
BRANCH  30  31
ATOM     31  O   UNL     1       6.596   4.312  13.649  0.00  0.00    +0.000 OA
BRANCH  31  32
ATOM     32  C   UNL     1       6.173   3.563  12.585  0.00  0.00    +0.000 C 
ATOM     33  O   UNL     1       6.919   3.038  11.769  0.00  0.00    +0.000 OA
BRANCH  32  34
ATOM     34  C   UNL     1       4.666   3.506  12.518  0.00  0.00    +0.000 C 
BRANCH  34  36
ATOM     35  C   UNL     1       3.496   3.939  10.314  0.00  0.00    +0.000 C 
ATOM     36  C   UNL     1       4.215   2.919  11.179  0.00  0.00    +0.000 C 
ENDBRANCH  34  36
ENDBRANCH  32  34
ENDBRANCH  31  32
ENDBRANCH  30  31
ENDBRANCH  27  30
ENDBRANCH  24  27
ENDBRANCH   1  24
TORSDOF 13
ENDMDL
MODEL 7
REMARK VINA RESULT:      -6.5      9.456     12.192
REMARK  Name = 
REMARK  16 active torsions:
REMARK  status: ('A' for Active; 'I' for Inactive)
REMARK    1  A    between atoms: C_1  and  C_2
REMARK    2  A    between atoms: C_2  and  C_3
REMARK    3  A    between atoms: C_3  and  C_4
REMARK    4  A    between atoms: C_4  and  O_6
REMARK    5  A    between atoms: O_6  and  C_7
REMARK    6  A    between atoms: C_7  and  C_8
REMARK    7  A    between atoms: C_8  and  O_9
REMARK    8  A    between atoms: C_8  and  C_10
REMARK    9  A    between atoms: C_10  and  O_11
REMARK   10  A    between atoms: C_10  and  C_13
REMARK   11  A    between atoms: O_11  and  C_12
REMARK   12  A    between atoms: C_15  and  C_16
REMARK   13  A    between atoms: C_16  and  O_18
REMARK   14  A    between atoms: C_20  and  N_21
REMARK   15  A    between atoms: C_25  and  N_26
REMARK   16  A    between atoms: C_27  and  C_28
REMARK                            x       y       z     vdW  Elec       q    Type
REMARK                         _______ _______ _______ _____ _____    ______ ____
ROOT
ATOM      1  C   UNL     1      -1.675  12.267  20.354  0.00  0.00    +0.000 C 
ATOM      2  O   UNL     1      -1.077  10.993  20.637  0.00  0.00    +0.000 OA
ATOM      3  C   UNL     1      -0.707  10.819  21.948  0.00  0.00    +0.000 C 
ATOM      4  C   UNL     1      -1.266  11.494  22.964  0.00  0.00    +0.000 C 
ATOM      5  C   UNL     1      -2.402  12.459  22.779  0.00  0.00    +0.000 C 
ATOM      6  C   UNL     1      -2.894  12.512  21.285  0.00  0.00    +0.000 C 
ENDROOT
BRANCH   5   7
ATOM      7  N   UNL     1      -3.460  11.980  23.665  0.00  0.00    +0.000 N 
ATOM      8  C   UNL     1      -4.193  12.724  24.515  0.00  0.00    +0.000 C 
ATOM      9  N   UNL     1      -4.006  13.940  24.872  0.00  0.00    +0.000 NA
ATOM     10  N   UNL     1      -5.234  12.039  25.020  0.00  0.00    +0.000 N 
ATOM     11  H   UNL     1      -3.919  11.130  23.360  0.00  0.00    +0.000 HD
ATOM     12  H   UNL     1      -3.148  14.293  24.450  0.00  0.00    +0.000 HD
ATOM     13  H   UNL     1      -4.997  11.108  25.340  0.00  0.00    +0.000 HD
ATOM     14  H   UNL     1      -5.644  12.568  25.788  0.00  0.00    +0.000 HD
ENDBRANCH   5   7
BRANCH   6  15
ATOM     15  N   UNL     1      -3.666  13.719  20.936  0.00  0.00    +0.000 N 
ATOM     16  C   UNL     1      -5.040  13.775  21.036  0.00  0.00    +0.000 C 
ATOM     17  C   UNL     1      -5.664  15.077  20.601  0.00  0.00    +0.000 C 
ATOM     18  O   UNL     1      -5.706  12.832  21.449  0.00  0.00    +0.000 OA
ATOM     19  H   UNL     1      -3.227  14.408  20.331  0.00  0.00    +0.000 HD
ENDBRANCH   6  15
BRANCH   3  20
ATOM     20  C   UNL     1       0.374   9.817  22.197  0.00  0.00    +0.000 C 
ATOM     21  O   UNL     1       0.969   9.211  21.332  0.00  0.00    +0.000 OA
BRANCH  20  22
ATOM     22  O   UNL     1       0.608   9.697  23.524  0.00  0.00    +0.000 OA
ATOM     23  H   UNL     1       0.260  10.463  24.023  0.00  0.00    +0.000 HD
ENDBRANCH  20  22
ENDBRANCH   3  20
BRANCH   1  24
ATOM     24  C   UNL     1      -1.910  12.309  18.813  0.00  0.00    +0.000 C 
BRANCH  24  25
ATOM     25  O   UNL     1      -0.707  12.732  18.117  0.00  0.00    +0.000 OA
ATOM     26  C   UNL     1      -0.095  13.923  18.589  0.00  0.00    +0.000 C 
ENDBRANCH  24  25
BRANCH  24  27
ATOM     27  C   UNL     1      -2.343  10.978  18.112  0.00  0.00    +0.000 C 
BRANCH  27  28
ATOM     28  O   UNL     1      -1.376  10.454  17.199  0.00  0.00    +0.000 OA
ATOM     29  H   UNL     1      -1.775   9.843  16.571  0.00  0.00    +0.000 HD
ENDBRANCH  27  28
BRANCH  27  30
ATOM     30  C   UNL     1      -3.745  10.960  17.456  0.00  0.00    +0.000 C 
BRANCH  30  31
ATOM     31  O   UNL     1      -4.672  11.885  18.050  0.00  0.00    +0.000 OA
BRANCH  31  32
ATOM     32  C   UNL     1      -5.896  11.341  18.330  0.00  0.00    +0.000 C 
ATOM     33  O   UNL     1      -6.075  10.175  18.656  0.00  0.00    +0.000 OA
BRANCH  32  34
ATOM     34  C   UNL     1      -7.003  12.349  18.140  0.00  0.00    +0.000 C 
BRANCH  34  36
ATOM     35  C   UNL     1      -6.936  14.648  17.078  0.00  0.00    +0.000 C 
ATOM     36  C   UNL     1      -6.774  13.154  16.859  0.00  0.00    +0.000 C 
ENDBRANCH  34  36
ENDBRANCH  32  34
ENDBRANCH  31  32
ENDBRANCH  30  31
ENDBRANCH  27  30
ENDBRANCH  24  27
ENDBRANCH   1  24
TORSDOF 13
ENDMDL
MODEL 8
REMARK VINA RESULT:      -6.5      0.772      1.011
REMARK  Name = 
REMARK  16 active torsions:
REMARK  status: ('A' for Active; 'I' for Inactive)
REMARK    1  A    between atoms: C_1  and  C_2
REMARK    2  A    between atoms: C_2  and  C_3
REMARK    3  A    between atoms: C_3  and  C_4
REMARK    4  A    between atoms: C_4  and  O_6
REMARK    5  A    between atoms: O_6  and  C_7
REMARK    6  A    between atoms: C_7  and  C_8
REMARK    7  A    between atoms: C_8  and  O_9
REMARK    8  A    between atoms: C_8  and  C_10
REMARK    9  A    between atoms: C_10  and  O_11
REMARK   10  A    between atoms: C_10  and  C_13
REMARK   11  A    between atoms: O_11  and  C_12
REMARK   12  A    between atoms: C_15  and  C_16
REMARK   13  A    between atoms: C_16  and  O_18
REMARK   14  A    between atoms: C_20  and  N_21
REMARK   15  A    between atoms: C_25  and  N_26
REMARK   16  A    between atoms: C_27  and  C_28
REMARK                            x       y       z     vdW  Elec       q    Type
REMARK                         _______ _______ _______ _____ _____    ______ ____
ROOT
ATOM      1  C   UNL     1       5.202   4.573  19.395  0.00  0.00    +0.000 C 
ATOM      2  O   UNL     1       5.423   3.155  19.365  0.00  0.00    +0.000 OA
ATOM      3  C   UNL     1       4.700   2.449  20.295  0.00  0.00    +0.000 C 
ATOM      4  C   UNL     1       3.554   2.898  20.828  0.00  0.00    +0.000 C 
ATOM      5  C   UNL     1       2.908   4.188  20.413  0.00  0.00    +0.000 C 
ATOM      6  C   UNL     1       3.689   4.888  19.239  0.00  0.00    +0.000 C 
ENDROOT
BRANCH   5   7
ATOM      7  N   UNL     1       1.555   3.825  20.002  0.00  0.00    +0.000 N 
ATOM      8  C   UNL     1       1.208   3.135  18.899  0.00  0.00    +0.000 C 
ATOM      9  N   UNL     1       1.940   2.820  17.896  0.00  0.00    +0.000 NA
ATOM     10  N   UNL     1      -0.084   2.766  18.917  0.00  0.00    +0.000 N 
ATOM     11  H   UNL     1       0.883   3.759  20.757  0.00  0.00    +0.000 HD
ATOM     12  H   UNL     1       2.869   3.223  18.008  0.00  0.00    +0.000 HD
ATOM     13  H   UNL     1      -0.719   3.505  19.192  0.00  0.00    +0.000 HD
ATOM     14  H   UNL     1      -0.348   2.418  17.996  0.00  0.00    +0.000 HD
ENDBRANCH   5   7
BRANCH   6  15
ATOM     15  N   UNL     1       3.403   6.326  19.084  0.00  0.00    +0.000 N 
ATOM     16  C   UNL     1       2.427   6.800  18.233  0.00  0.00    +0.000 C 
ATOM     17  C   UNL     1       2.298   8.301  18.173  0.00  0.00    +0.000 C 
ATOM     18  O   UNL     1       1.716   6.052  17.569  0.00  0.00    +0.000 OA
ATOM     19  H   UNL     1       4.120   6.989  19.365  0.00  0.00    +0.000 HD
ENDBRANCH   6  15
BRANCH   3  20
ATOM     20  C   UNL     1       5.262   1.122  20.693  0.00  0.00    +0.000 C 
ATOM     21  O   UNL     1       5.295   0.141  19.981  0.00  0.00    +0.000 OA
BRANCH  20  22
ATOM     22  O   UNL     1       5.749   1.176  21.954  0.00  0.00    +0.000 OA
ATOM     23  H   UNL     1       5.107   1.582  22.572  0.00  0.00    +0.000 HD
ENDBRANCH  20  22
ENDBRANCH   3  20
BRANCH   1  24
ATOM     24  C   UNL     1       6.190   5.193  18.361  0.00  0.00    +0.000 C 
BRANCH  24  25
ATOM     25  O   UNL     1       7.296   5.854  19.032  0.00  0.00    +0.000 OA
ATOM     26  C   UNL     1       7.807   7.019  18.401  0.00  0.00    +0.000 C 
ENDBRANCH  24  25
BRANCH  24  27
ATOM     27  C   UNL     1       6.856   4.223  17.328  0.00  0.00    +0.000 C 
BRANCH  27  28
ATOM     28  O   UNL     1       8.275   4.104  17.466  0.00  0.00    +0.000 OA
ATOM     29  H   UNL     1       8.523   3.264  17.865  0.00  0.00    +0.000 HD
ENDBRANCH  27  28
BRANCH  27  30
ATOM     30  C   UNL     1       6.492   4.434  15.838  0.00  0.00    +0.000 C 
BRANCH  30  31
ATOM     31  O   UNL     1       7.478   5.178  15.102  0.00  0.00    +0.000 OA
BRANCH  31  32
ATOM     32  C   UNL     1       7.388   5.026  13.745  0.00  0.00    +0.000 C 
ATOM     33  O   UNL     1       8.110   5.595  12.937  0.00  0.00    +0.000 OA
BRANCH  32  34
ATOM     34  C   UNL     1       6.252   4.106  13.369  0.00  0.00    +0.000 C 
BRANCH  34  36
ATOM     35  C   UNL     1       5.508   2.383  11.668  0.00  0.00    +0.000 C 
ATOM     36  C   UNL     1       6.509   3.477  11.998  0.00  0.00    +0.000 C 
ENDBRANCH  34  36
ENDBRANCH  32  34
ENDBRANCH  31  32
ENDBRANCH  30  31
ENDBRANCH  27  30
ENDBRANCH  24  27
ENDBRANCH   1  24
TORSDOF 13
ENDMDL
MODEL 9
REMARK VINA RESULT:      -6.4      7.211     10.487
REMARK  Name = 
REMARK  16 active torsions:
REMARK  status: ('A' for Active; 'I' for Inactive)
REMARK    1  A    between atoms: C_1  and  C_2
REMARK    2  A    between atoms: C_2  and  C_3
REMARK    3  A    between atoms: C_3  and  C_4
REMARK    4  A    between atoms: C_4  and  O_6
REMARK    5  A    between atoms: O_6  and  C_7
REMARK    6  A    between atoms: C_7  and  C_8
REMARK    7  A    between atoms: C_8  and  O_9
REMARK    8  A    between atoms: C_8  and  C_10
REMARK    9  A    between atoms: C_10  and  O_11
REMARK   10  A    between atoms: C_10  and  C_13
REMARK   11  A    between atoms: O_11  and  C_12
REMARK   12  A    between atoms: C_15  and  C_16
REMARK   13  A    between atoms: C_16  and  O_18
REMARK   14  A    between atoms: C_20  and  N_21
REMARK   15  A    between atoms: C_25  and  N_26
REMARK   16  A    between atoms: C_27  and  C_28
REMARK                            x       y       z     vdW  Elec       q    Type
REMARK                         _______ _______ _______ _____ _____    ______ ____
ROOT
ATOM      1  C   UNL     1      -2.111  12.478  19.711  0.00  0.00    +0.000 C 
ATOM      2  O   UNL     1      -2.149  12.263  21.131  0.00  0.00    +0.000 OA
ATOM      3  C   UNL     1      -3.306  12.687  21.737  0.00  0.00    +0.000 C 
ATOM      4  C   UNL     1      -4.472  12.813  21.085  0.00  0.00    +0.000 C 
ATOM      5  C   UNL     1      -4.648  12.439  19.642  0.00  0.00    +0.000 C 
ATOM      6  C   UNL     1      -3.339  11.815  19.030  0.00  0.00    +0.000 C 
ENDROOT
BRANCH   5   7
ATOM      7  N   UNL     1      -5.747  11.476  19.627  0.00  0.00    +0.000 N 
ATOM      8  C   UNL     1      -6.522  11.158  18.572  0.00  0.00    +0.000 C 
ATOM      9  N   UNL     1      -6.599  11.746  17.437  0.00  0.00    +0.000 NA
ATOM     10  N   UNL     1      -7.289  10.081  18.813  0.00  0.00    +0.000 N 
ATOM     11  H   UNL     1      -5.683  10.745  20.326  0.00  0.00    +0.000 HD
ATOM     12  H   UNL     1      -6.004  12.573  17.438  0.00  0.00    +0.000 HD
ATOM     13  H   UNL     1      -7.754  10.100  19.713  0.00  0.00    +0.000 HD
ATOM     14  H   UNL     1      -7.984   9.990  18.074  0.00  0.00    +0.000 HD
ENDBRANCH   5   7
BRANCH   6  15
ATOM     15  N   UNL     1      -3.278  11.842  17.557  0.00  0.00    +0.000 N 
ATOM     16  C   UNL     1      -3.210  10.693  16.797  0.00  0.00    +0.000 C 
ATOM     17  C   UNL     1      -3.116  10.911  15.308  0.00  0.00    +0.000 C 
ATOM     18  O   UNL     1      -3.224   9.573  17.298  0.00  0.00    +0.000 OA
ATOM     19  H   UNL     1      -2.975  12.702  17.107  0.00  0.00    +0.000 HD
ENDBRANCH   6  15
BRANCH   3  20
ATOM     20  C   UNL     1      -3.204  13.008  23.193  0.00  0.00    +0.000 C 
ATOM     21  O   UNL     1      -2.614  13.962  23.653  0.00  0.00    +0.000 OA
BRANCH  20  22
ATOM     22  O   UNL     1      -3.881  12.093  23.926  0.00  0.00    +0.000 OA
ATOM     23  H   UNL     1      -3.779  12.252  24.886  0.00  0.00    +0.000 HD
ENDBRANCH  20  22
ENDBRANCH   3  20
BRANCH   1  24
ATOM     24  C   UNL     1      -0.689  12.045  19.241  0.00  0.00    +0.000 C 
BRANCH  24  25
ATOM     25  O   UNL     1       0.341  12.754  19.980  0.00  0.00    +0.000 OA
ATOM     26  C   UNL     1       0.698  14.036  19.486  0.00  0.00    +0.000 C 
ENDBRANCH  24  25
BRANCH  24  27
ATOM     27  C   UNL     1      -0.317  10.529  19.369  0.00  0.00    +0.000 C 
BRANCH  27  28
ATOM     28  O   UNL     1      -0.520   9.984  20.675  0.00  0.00    +0.000 OA
ATOM     29  H   UNL     1      -1.316   9.444  20.715  0.00  0.00    +0.000 HD
ENDBRANCH  27  28
BRANCH  27  30
ATOM     30  C   UNL     1       1.073  10.105  18.835  0.00  0.00    +0.000 C 
BRANCH  30  31
ATOM     31  O   UNL     1       1.522   8.836  19.340  0.00  0.00    +0.000 OA
BRANCH  31  32
ATOM     32  C   UNL     1       2.249   8.106  18.437  0.00  0.00    +0.000 C 
ATOM     33  O   UNL     1       2.532   8.488  17.310  0.00  0.00    +0.000 OA
BRANCH  32  34
ATOM     34  C   UNL     1       2.614   6.752  18.994  0.00  0.00    +0.000 C 
BRANCH  34  36
ATOM     35  C   UNL     1       1.831   4.376  18.596  0.00  0.00    +0.000 C 
ATOM     36  C   UNL     1       2.335   5.659  17.959  0.00  0.00    +0.000 C 
ENDBRANCH  34  36
ENDBRANCH  32  34
ENDBRANCH  31  32
ENDBRANCH  30  31
ENDBRANCH  27  30
ENDBRANCH  24  27
ENDBRANCH   1  24
TORSDOF 13
ENDMDL
