MODEL 1
REMARK VINA RESULT:      -7.2      0.000      0.000
REMARK  Name = 
REMARK  14 active torsions:
REMARK  status: ('A' for Active; 'I' for Inactive)
REMARK    1  A    between atoms: C_1  and  O_2
REMARK    2  A    between atoms: O_2  and  C_3
REMARK    3  A    between atoms: C_6  and  C_7
REMARK    4  A    between atoms: C_7  and  C_8
REMARK    5  A    between atoms: C_8  and  N_9
REMARK    6  A    between atoms: N_9  and  C_10
REMARK    7  A    between atoms: C_10  and  C_11
REMARK    8  A    between atoms: C_11  and  O_12
REMARK    9  A    between atoms: C_11  and  C_13
REMARK   10  A    between atoms: C_13  and  O_14
REMARK   11  A    between atoms: O_14  and  C_15
REMARK   12  A    between atoms: C_18  and  C_19
REMARK   13  A    between atoms: C_27  and  O_28
REMARK   14  A    between atoms: O_28  and  C_29
REMARK                            x       y       z     vdW  Elec       q    Type
REMARK                         _______ _______ _______ _____ _____    ______ ____
ROOT
ATOM      1  C   UNL     1       2.511   3.423  20.481  0.00  0.00    +0.000 C 
ENDROOT
BRANCH   1   2
ATOM      2  O   UNL     1       2.802   3.047  21.837  0.00  0.00    +0.000 OA
ATOM      3  H   UNL     1       3.014   3.852  22.338  0.00  0.00    +0.000 HD
ENDBRANCH   1   2
BRANCH   1   4
ATOM      4  C   UNL     1       1.708   2.279  19.822  0.00  0.00    +0.000 C 
BRANCH   4   5
ATOM      5  N   UNL     1       2.201   1.892  18.495  0.00  0.00    +0.000 NA
ATOM      6  H   UNL     1       2.334   0.884  18.438  0.00  0.00    +0.000 HD
BRANCH   5   7
ATOM      7  C   UNL     1       3.483   2.539  18.203  0.00  0.00    +0.000 C 
BRANCH   7   8
ATOM      8  C   UNL     1       3.360   3.414  16.949  0.00  0.00    +0.000 C 
BRANCH   8  12
ATOM      9  C   UNL     1       6.705   6.147  16.824  0.00  0.00    +0.000 A 
ATOM     10  C   UNL     1       5.859   6.096  17.945  0.00  0.00    +0.000 A 
ATOM     11  C   UNL     1       4.771   5.224  17.986  0.00  0.00    +0.000 A 
ATOM     12  C   UNL     1       4.476   4.424  16.884  0.00  0.00    +0.000 A 
ATOM     13  C   UNL     1       5.267   4.538  15.736  0.00  0.00    +0.000 A 
ATOM     14  C   UNL     1       6.378   5.395  15.687  0.00  0.00    +0.000 A 
BRANCH   9  16
ATOM     15  C   UNL     1       7.818   8.028  17.740  0.00  0.00    +0.000 C 
ATOM     16  O   UNL     1       7.827   6.932  16.823  0.00  0.00    +0.000 OA
ENDBRANCH   9  16
BRANCH  14  17
ATOM     17  O   UNL     1       7.011   5.332  14.474  0.00  0.00    +0.000 OA
ATOM     18  C   UNL     1       6.688   4.286  13.574  0.00  0.00    +0.000 C 
ENDBRANCH  14  17
ENDBRANCH   8  12
ENDBRANCH   7   8
ENDBRANCH   5   7
ENDBRANCH   4   5
ENDBRANCH   1   4
BRANCH   1  19
ATOM     19  C   UNL     1       1.736   4.748  20.435  0.00  0.00    +0.000 C 
BRANCH  19  20
ATOM     20  O   UNL     1       2.635   5.848  20.266  0.00  0.00    +0.000 OA
BRANCH  20  21
ATOM     21  C   UNL     1       2.024   7.067  20.125  0.00  0.00    +0.000 A 
ATOM     22  C   UNL     1       2.098   7.625  18.851  0.00  0.00    +0.000 A 
ATOM     23  C   UNL     1       1.527   8.874  18.593  0.00  0.00    +0.000 A 
ATOM     24  C   UNL     1       0.860   9.577  19.606  0.00  0.00    +0.000 A 
ATOM     25  C   UNL     1       0.752   8.985  20.868  0.00  0.00    +0.000 A 
ATOM     26  C   UNL     1       1.330   7.741  21.130  0.00  0.00    +0.000 A 
BRANCH  24  27
ATOM     27  C   UNL     1       0.272  10.897  19.382  0.00  0.00    +0.000 A 
ATOM     28  N   UNL     1      -0.314  11.314  18.274  0.00  0.00    +0.000 NA
ATOM     29  C   UNL     1      -0.731  12.596  18.517  0.00  0.00    +0.000 A 
ATOM     30  C   UNL     1      -0.423  12.964  19.803  0.00  0.00    +0.000 A 
ATOM     31  N   UNL     1       0.206  11.880  20.338  0.00  0.00    +0.000 N 
ATOM     32  H   UNL     1       0.541  11.792  21.288  0.00  0.00    +0.000 HD
ENDBRANCH  24  27
ENDBRANCH  20  21
ENDBRANCH  19  20
ENDBRANCH   1  19
TORSDOF 12
ENDMDL
MODEL 2
REMARK VINA RESULT:      -7.2      0.791      1.199
REMARK  Name = 
REMARK  14 active torsions:
REMARK  status: ('A' for Active; 'I' for Inactive)
REMARK    1  A    between atoms: C_1  and  O_2
REMARK    2  A    between atoms: O_2  and  C_3
REMARK    3  A    between atoms: C_6  and  C_7
REMARK    4  A    between atoms: C_7  and  C_8
REMARK    5  A    between atoms: C_8  and  N_9
REMARK    6  A    between atoms: N_9  and  C_10
REMARK    7  A    between atoms: C_10  and  C_11
REMARK    8  A    between atoms: C_11  and  O_12
REMARK    9  A    between atoms: C_11  and  C_13
REMARK   10  A    between atoms: C_13  and  O_14
REMARK   11  A    between atoms: O_14  and  C_15
REMARK   12  A    between atoms: C_18  and  C_19
REMARK   13  A    between atoms: C_27  and  O_28
REMARK   14  A    between atoms: O_28  and  C_29
REMARK                            x       y       z     vdW  Elec       q    Type
REMARK                         _______ _______ _______ _____ _____    ______ ____
ROOT
ATOM      1  C   UNL     1       2.376   3.285  20.915  0.00  0.00    +0.000 C 
ENDROOT
BRANCH   1   2
ATOM      2  O   UNL     1       1.960   2.706  22.162  0.00  0.00    +0.000 OA
ATOM      3  H   UNL     1       2.753   2.485  22.676  0.00  0.00    +0.000 HD
ENDBRANCH   1   2
BRANCH   1   4
ATOM      4  C   UNL     1       1.557   2.633  19.779  0.00  0.00    +0.000 C 
BRANCH   4   5
ATOM      5  N   UNL     1       2.313   1.661  18.981  0.00  0.00    +0.000 NA
ATOM      6  H   UNL     1       2.391   0.772  19.474  0.00  0.00    +0.000 HD
BRANCH   5   7
ATOM      7  C   UNL     1       3.667   2.149  18.705  0.00  0.00    +0.000 C 
BRANCH   7   8
ATOM      8  C   UNL     1       3.701   2.875  17.354  0.00  0.00    +0.000 C 
BRANCH   8  12
ATOM      9  C   UNL     1       6.926   5.751  17.378  0.00  0.00    +0.000 A 
ATOM     10  C   UNL     1       6.008   5.690  18.441  0.00  0.00    +0.000 A 
ATOM     11  C   UNL     1       4.959   4.771  18.433  0.00  0.00    +0.000 A 
ATOM     12  C   UNL     1       4.774   3.932  17.337  0.00  0.00    +0.000 A 
ATOM     13  C   UNL     1       5.636   4.053  16.241  0.00  0.00    +0.000 A 
ATOM     14  C   UNL     1       6.710   4.957  16.243  0.00  0.00    +0.000 A 
BRANCH   9  16
ATOM     15  C   UNL     1       7.716   7.978  17.548  0.00  0.00    +0.000 C 
ATOM     16  O   UNL     1       8.011   6.585  17.431  0.00  0.00    +0.000 OA
ENDBRANCH   9  16
BRANCH  14  17
ATOM     17  O   UNL     1       7.426   4.893  15.078  0.00  0.00    +0.000 OA
ATOM     18  C   UNL     1       6.746   4.670  13.854  0.00  0.00    +0.000 C 
ENDBRANCH  14  17
ENDBRANCH   8  12
ENDBRANCH   7   8
ENDBRANCH   5   7
ENDBRANCH   4   5
ENDBRANCH   1   4
BRANCH   1  19
ATOM     19  C   UNL     1       2.194   4.811  20.932  0.00  0.00    +0.000 C 
BRANCH  19  20
ATOM     20  O   UNL     1       2.259   5.337  19.604  0.00  0.00    +0.000 OA
BRANCH  20  21
ATOM     21  C   UNL     1       1.997   6.679  19.509  0.00  0.00    +0.000 A 
ATOM     22  C   UNL     1       1.440   7.258  20.648  0.00  0.00    +0.000 A 
ATOM     23  C   UNL     1       1.113   8.617  20.660  0.00  0.00    +0.000 A 
ATOM     24  C   UNL     1       1.355   9.420  19.538  0.00  0.00    +0.000 A 
ATOM     25  C   UNL     1       1.958   8.838  18.419  0.00  0.00    +0.000 A 
ATOM     26  C   UNL     1       2.276   7.478  18.400  0.00  0.00    +0.000 A 
BRANCH  24  27
ATOM     27  C   UNL     1       1.004  10.839  19.504  0.00  0.00    +0.000 A 
ATOM     28  N   UNL     1       1.559  11.764  18.741  0.00  0.00    +0.000 NA
ATOM     29  C   UNL     1       0.910  12.937  19.022  0.00  0.00    +0.000 A 
ATOM     30  C   UNL     1      -0.079  12.727  19.950  0.00  0.00    +0.000 A 
ATOM     31  N   UNL     1      -0.011  11.397  20.242  0.00  0.00    +0.000 N 
ATOM     32  H   UNL     1      -0.622  10.890  20.868  0.00  0.00    +0.000 HD
ENDBRANCH  24  27
ENDBRANCH  20  21
ENDBRANCH  19  20
ENDBRANCH   1  19
TORSDOF 12
ENDMDL
MODEL 3
REMARK VINA RESULT:      -7.1      0.826      2.317
REMARK  Name = 
REMARK  14 active torsions:
REMARK  status: ('A' for Active; 'I' for Inactive)
REMARK    1  A    between atoms: C_1  and  O_2
REMARK    2  A    between atoms: O_2  and  C_3
REMARK    3  A    between atoms: C_6  and  C_7
REMARK    4  A    between atoms: C_7  and  C_8
REMARK    5  A    between atoms: C_8  and  N_9
REMARK    6  A    between atoms: N_9  and  C_10
REMARK    7  A    between atoms: C_10  and  C_11
REMARK    8  A    between atoms: C_11  and  O_12
REMARK    9  A    between atoms: C_11  and  C_13
REMARK   10  A    between atoms: C_13  and  O_14
REMARK   11  A    between atoms: O_14  and  C_15
REMARK   12  A    between atoms: C_18  and  C_19
REMARK   13  A    between atoms: C_27  and  O_28
REMARK   14  A    between atoms: O_28  and  C_29
REMARK                            x       y       z     vdW  Elec       q    Type
REMARK                         _______ _______ _______ _____ _____    ______ ____
ROOT
ATOM      1  C   UNL     1       2.795   3.244  20.655  0.00  0.00    +0.000 C 
ENDROOT
BRANCH   1   2
ATOM      2  O   UNL     1       2.686   2.676  21.970  0.00  0.00    +0.000 OA
ATOM      3  H   UNL     1       2.646   3.402  22.614  0.00  0.00    +0.000 HD
ENDBRANCH   1   2
BRANCH   1   4
ATOM      4  C   UNL     1       2.050   2.322  19.664  0.00  0.00    +0.000 C 
BRANCH   4   5
ATOM      5  N   UNL     1       2.827   1.981  18.467  0.00  0.00    +0.000 NA
ATOM      6  H   UNL     1       3.250   1.059  18.561  0.00  0.00    +0.000 HD
BRANCH   5   7
ATOM      7  C   UNL     1       3.900   2.955  18.244  0.00  0.00    +0.000 C 
BRANCH   7   8
ATOM      8  C   UNL     1       3.587   3.815  17.014  0.00  0.00    +0.000 C 
BRANCH   8  12
ATOM      9  C   UNL     1       7.088   4.995  14.773  0.00  0.00    +0.000 A 
ATOM     10  C   UNL     1       6.254   3.962  14.313  0.00  0.00    +0.000 A 
ATOM     11  C   UNL     1       5.129   3.569  15.038  0.00  0.00    +0.000 A 
ATOM     12  C   UNL     1       4.846   4.165  16.265  0.00  0.00    +0.000 A 
ATOM     13  C   UNL     1       5.725   5.133  16.764  0.00  0.00    +0.000 A 
ATOM     14  C   UNL     1       6.849   5.554  16.036  0.00  0.00    +0.000 A 
BRANCH   9  16
ATOM     15  C   UNL     1       7.928   5.435  12.601  0.00  0.00    +0.000 C 
ATOM     16  O   UNL     1       8.136   5.446  14.015  0.00  0.00    +0.000 OA
ENDBRANCH   9  16
BRANCH  14  17
ATOM     17  O   UNL     1       7.553   6.517  16.709  0.00  0.00    +0.000 OA
ATOM     18  C   UNL     1       6.861   7.431  17.542  0.00  0.00    +0.000 C 
ENDBRANCH  14  17
ENDBRANCH   8  12
ENDBRANCH   7   8
ENDBRANCH   5   7
ENDBRANCH   4   5
ENDBRANCH   1   4
BRANCH   1  19
ATOM     19  C   UNL     1       2.226   4.671  20.627  0.00  0.00    +0.000 C 
BRANCH  19  20
ATOM     20  O   UNL     1       2.920   5.467  19.662  0.00  0.00    +0.000 OA
BRANCH  20  21
ATOM     21  C   UNL     1       2.420   6.733  19.503  0.00  0.00    +0.000 A 
ATOM     22  C   UNL     1       1.724   7.241  20.598  0.00  0.00    +0.000 A 
ATOM     23  C   UNL     1       1.153   8.515  20.543  0.00  0.00    +0.000 A 
ATOM     24  C   UNL     1       1.285   9.308  19.395  0.00  0.00    +0.000 A 
ATOM     25  C   UNL     1       2.026   8.806  18.320  0.00  0.00    +0.000 A 
ATOM     26  C   UNL     1       2.588   7.528  18.369  0.00  0.00    +0.000 A 
BRANCH  24  27
ATOM     27  C   UNL     1       0.681  10.635  19.290  0.00  0.00    +0.000 A 
ATOM     28  N   UNL     1       0.966  11.685  20.040  0.00  0.00    +0.000 NA
ATOM     29  C   UNL     1       0.183  12.711  19.581  0.00  0.00    +0.000 A 
ATOM     30  C   UNL     1      -0.574  12.296  18.514  0.00  0.00    +0.000 A 
ATOM     31  N   UNL     1      -0.246  10.984  18.339  0.00  0.00    +0.000 N 
ATOM     32  H   UNL     1      -0.595  10.372  17.613  0.00  0.00    +0.000 HD
ENDBRANCH  24  27
ENDBRANCH  20  21
ENDBRANCH  19  20
ENDBRANCH   1  19
TORSDOF 12
ENDMDL
MODEL 4
REMARK VINA RESULT:      -7.0      1.064      1.719
REMARK  Name = 
REMARK  14 active torsions:
REMARK  status: ('A' for Active; 'I' for Inactive)
REMARK    1  A    between atoms: C_1  and  O_2
REMARK    2  A    between atoms: O_2  and  C_3
REMARK    3  A    between atoms: C_6  and  C_7
REMARK    4  A    between atoms: C_7  and  C_8
REMARK    5  A    between atoms: C_8  and  N_9
REMARK    6  A    between atoms: N_9  and  C_10
REMARK    7  A    between atoms: C_10  and  C_11
REMARK    8  A    between atoms: C_11  and  O_12
REMARK    9  A    between atoms: C_11  and  C_13
REMARK   10  A    between atoms: C_13  and  O_14
REMARK   11  A    between atoms: O_14  and  C_15
REMARK   12  A    between atoms: C_18  and  C_19
REMARK   13  A    between atoms: C_27  and  O_28
REMARK   14  A    between atoms: O_28  and  C_29
REMARK                            x       y       z     vdW  Elec       q    Type
REMARK                         _______ _______ _______ _____ _____    ______ ____
ROOT
ATOM      1  C   UNL     1       2.743   2.990  20.521  0.00  0.00    +0.000 C 
ENDROOT
BRANCH   1   2
ATOM      2  O   UNL     1       2.891   2.515  21.868  0.00  0.00    +0.000 OA
ATOM      3  H   UNL     1       2.469   3.155  22.465  0.00  0.00    +0.000 HD
ENDBRANCH   1   2
BRANCH   1   4
ATOM      4  C   UNL     1       1.963   1.927  19.714  0.00  0.00    +0.000 C 
BRANCH   4   5
ATOM      5  N   UNL     1       2.088   2.073  18.259  0.00  0.00    +0.000 NA
ATOM      6  H   UNL     1       1.955   1.177  17.794  0.00  0.00    +0.000 HD
BRANCH   5   7
ATOM      7  C   UNL     1       3.413   2.584  17.895  0.00  0.00    +0.000 C 
BRANCH   7   8
ATOM      8  C   UNL     1       3.276   3.749  16.908  0.00  0.00    +0.000 C 
BRANCH   8  12
ATOM      9  C   UNL     1       6.845   6.186  16.875  0.00  0.00    +0.000 A 
ATOM     10  C   UNL     1       5.840   6.368  15.910  0.00  0.00    +0.000 A 
ATOM     11  C   UNL     1       4.691   5.578  15.909  0.00  0.00    +0.000 A 
ATOM     12  C   UNL     1       4.549   4.551  16.840  0.00  0.00    +0.000 A 
ATOM     13  C   UNL     1       5.589   4.314  17.746  0.00  0.00    +0.000 A 
ATOM     14  C   UNL     1       6.741   5.115  17.774  0.00  0.00    +0.000 A 
BRANCH   9  16
ATOM     15  C   UNL     1       7.680   8.313  17.502  0.00  0.00    +0.000 C 
ATOM     16  O   UNL     1       7.926   7.025  16.935  0.00  0.00    +0.000 OA
ENDBRANCH   9  16
BRANCH  14  17
ATOM     17  O   UNL     1       7.614   4.710  18.748  0.00  0.00    +0.000 OA
ATOM     18  C   UNL     1       7.792   5.516  19.900  0.00  0.00    +0.000 C 
ENDBRANCH  14  17
ENDBRANCH   8  12
ENDBRANCH   7   8
ENDBRANCH   5   7
ENDBRANCH   4   5
ENDBRANCH   1   4
BRANCH   1  19
ATOM     19  C   UNL     1       2.026   4.348  20.495  0.00  0.00    +0.000 C 
BRANCH  19  20
ATOM     20  O   UNL     1       2.841   5.332  19.853  0.00  0.00    +0.000 OA
BRANCH  20  21
ATOM     21  C   UNL     1       2.306   6.594  19.838  0.00  0.00    +0.000 A 
ATOM     22  C   UNL     1       2.396   7.264  18.618  0.00  0.00    +0.000 A 
ATOM     23  C   UNL     1       1.901   8.564  18.489  0.00  0.00    +0.000 A 
ATOM     24  C   UNL     1       1.294   9.208  19.576  0.00  0.00    +0.000 A 
ATOM     25  C   UNL     1       1.167   8.509  20.780  0.00  0.00    +0.000 A 
ATOM     26  C   UNL     1       1.671   7.212  20.914  0.00  0.00    +0.000 A 
BRANCH  24  27
ATOM     27  C   UNL     1       0.787  10.576  19.487  0.00  0.00    +0.000 A 
ATOM     28  N   UNL     1       0.192  11.124  18.441  0.00  0.00    +0.000 NA
ATOM     29  C   UNL     1      -0.131  12.404  18.807  0.00  0.00    +0.000 A 
ATOM     30  C   UNL     1       0.244  12.640  20.106  0.00  0.00    +0.000 A 
ATOM     31  N   UNL     1       0.819  11.476  20.524  0.00  0.00    +0.000 N 
ATOM     32  H   UNL     1       1.179  11.286  21.449  0.00  0.00    +0.000 HD
ENDBRANCH  24  27
ENDBRANCH  20  21
ENDBRANCH  19  20
ENDBRANCH   1  19
TORSDOF 12
ENDMDL
MODEL 5
REMARK VINA RESULT:      -7.0      2.858      7.778
REMARK  Name = 
REMARK  14 active torsions:
REMARK  status: ('A' for Active; 'I' for Inactive)
REMARK    1  A    between atoms: C_1  and  O_2
REMARK    2  A    between atoms: O_2  and  C_3
REMARK    3  A    between atoms: C_6  and  C_7
REMARK    4  A    between atoms: C_7  and  C_8
REMARK    5  A    between atoms: C_8  and  N_9
REMARK    6  A    between atoms: N_9  and  C_10
REMARK    7  A    between atoms: C_10  and  C_11
REMARK    8  A    between atoms: C_11  and  O_12
REMARK    9  A    between atoms: C_11  and  C_13
REMARK   10  A    between atoms: C_13  and  O_14
REMARK   11  A    between atoms: O_14  and  C_15
REMARK   12  A    between atoms: C_18  and  C_19
REMARK   13  A    between atoms: C_27  and  O_28
REMARK   14  A    between atoms: O_28  and  C_29
REMARK                            x       y       z     vdW  Elec       q    Type
REMARK                         _______ _______ _______ _____ _____    ______ ____
ROOT
ATOM      1  C   UNL     1       2.090   2.548  20.813  0.00  0.00    +0.000 C 
ENDROOT
BRANCH   1   2
ATOM      2  O   UNL     1       2.638   3.040  22.045  0.00  0.00    +0.000 OA
ATOM      3  H   UNL     1       2.361   2.446  22.762  0.00  0.00    +0.000 HD
ENDBRANCH   1   2
BRANCH   1   4
ATOM      4  C   UNL     1       1.000   3.535  20.338  0.00  0.00    +0.000 C 
BRANCH   4   5
ATOM      5  N   UNL     1       1.510   4.629  19.503  0.00  0.00    +0.000 NA
ATOM      6  H   UNL     1       2.427   4.399  19.126  0.00  0.00    +0.000 HD
BRANCH   5   7
ATOM      7  C   UNL     1       1.634   5.867  20.280  0.00  0.00    +0.000 C 
BRANCH   7   8
ATOM      8  C   UNL     1       2.547   6.859  19.549  0.00  0.00    +0.000 C 
BRANCH   8  12
ATOM      9  C   UNL     1       0.476  10.630  19.139  0.00  0.00    +0.000 A 
ATOM     10  C   UNL     1       1.350  10.175  18.136  0.00  0.00    +0.000 A 
ATOM     11  C   UNL     1       2.029   8.965  18.268  0.00  0.00    +0.000 A 
ATOM     12  C   UNL     1       1.891   8.209  19.431  0.00  0.00    +0.000 A 
ATOM     13  C   UNL     1       1.090   8.705  20.466  0.00  0.00    +0.000 A 
ATOM     14  C   UNL     1       0.383   9.911  20.340  0.00  0.00    +0.000 A 
BRANCH   9  16
ATOM     15  C   UNL     1       0.467  12.925  18.554  0.00  0.00    +0.000 C 
ATOM     16  O   UNL     1      -0.263  11.769  18.967  0.00  0.00    +0.000 OA
ENDBRANCH   9  16
BRANCH  14  17
ATOM     17  O   UNL     1      -0.345  10.189  21.465  0.00  0.00    +0.000 OA
ATOM     18  C   UNL     1      -0.047   9.509  22.672  0.00  0.00    +0.000 C 
ENDBRANCH  14  17
ENDBRANCH   8  12
ENDBRANCH   7   8
ENDBRANCH   5   7
ENDBRANCH   4   5
ENDBRANCH   1   4
BRANCH   1  19
ATOM     19  C   UNL     1       3.189   2.377  19.754  0.00  0.00    +0.000 C 
BRANCH  19  20
ATOM     20  O   UNL     1       4.131   3.451  19.832  0.00  0.00    +0.000 OA
BRANCH  20  21
ATOM     21  C   UNL     1       4.755   3.749  18.649  0.00  0.00    +0.000 A 
ATOM     22  C   UNL     1       4.056   3.388  17.499  0.00  0.00    +0.000 A 
ATOM     23  C   UNL     1       4.603   3.625  16.236  0.00  0.00    +0.000 A 
ATOM     24  C   UNL     1       5.854   4.244  16.105  0.00  0.00    +0.000 A 
ATOM     25  C   UNL     1       6.525   4.645  17.265  0.00  0.00    +0.000 A 
ATOM     26  C   UNL     1       5.984   4.399  18.529  0.00  0.00    +0.000 A 
BRANCH  24  27
ATOM     27  C   UNL     1       6.471   4.487  14.802  0.00  0.00    +0.000 A 
ATOM     28  N   UNL     1       7.301   5.471  14.501  0.00  0.00    +0.000 NA
ATOM     29  C   UNL     1       7.642   5.298  13.185  0.00  0.00    +0.000 A 
ATOM     30  C   UNL     1       7.038   4.176  12.676  0.00  0.00    +0.000 A 
ATOM     31  N   UNL     1       6.305   3.672  13.710  0.00  0.00    +0.000 N 
ATOM     32  H   UNL     1       5.755   2.823  13.695  0.00  0.00    +0.000 HD
ENDBRANCH  24  27
ENDBRANCH  20  21
ENDBRANCH  19  20
ENDBRANCH   1  19
TORSDOF 12
ENDMDL
MODEL 6
REMARK VINA RESULT:      -6.9      1.034      1.895
REMARK  Name = 
REMARK  14 active torsions:
REMARK  status: ('A' for Active; 'I' for Inactive)
REMARK    1  A    between atoms: C_1  and  O_2
REMARK    2  A    between atoms: O_2  and  C_3
REMARK    3  A    between atoms: C_6  and  C_7
REMARK    4  A    between atoms: C_7  and  C_8
REMARK    5  A    between atoms: C_8  and  N_9
REMARK    6  A    between atoms: N_9  and  C_10
REMARK    7  A    between atoms: C_10  and  C_11
REMARK    8  A    between atoms: C_11  and  O_12
REMARK    9  A    between atoms: C_11  and  C_13
REMARK   10  A    between atoms: C_13  and  O_14
REMARK   11  A    between atoms: O_14  and  C_15
REMARK   12  A    between atoms: C_18  and  C_19
REMARK   13  A    between atoms: C_27  and  O_28
REMARK   14  A    between atoms: O_28  and  C_29
REMARK                            x       y       z     vdW  Elec       q    Type
REMARK                         _______ _______ _______ _____ _____    ______ ____
ROOT
ATOM      1  C   UNL     1       2.160   3.652  20.567  0.00  0.00    +0.000 C 
ENDROOT
BRANCH   1   2
ATOM      2  O   UNL     1       2.330   2.914  21.788  0.00  0.00    +0.000 OA
ATOM      3  H   UNL     1       1.455   2.783  22.190  0.00  0.00    +0.000 HD
ENDBRANCH   1   2
BRANCH   1   4
ATOM      4  C   UNL     1       1.040   2.977  19.744  0.00  0.00    +0.000 C 
BRANCH   4   5
ATOM      5  N   UNL     1       1.360   2.816  18.321  0.00  0.00    +0.000 NA
ATOM      6  H   UNL     1       1.701   1.875  18.132  0.00  0.00    +0.000 HD
BRANCH   5   7
ATOM      7  C   UNL     1       2.395   3.768  17.906  0.00  0.00    +0.000 C 
BRANCH   7   8
ATOM      8  C   UNL     1       3.638   3.016  17.414  0.00  0.00    +0.000 C 
BRANCH   8  12
ATOM      9  C   UNL     1       6.771   5.904  16.695  0.00  0.00    +0.000 A 
ATOM     10  C   UNL     1       5.684   5.787  15.812  0.00  0.00    +0.000 A 
ATOM     11  C   UNL     1       4.676   4.849  16.033  0.00  0.00    +0.000 A 
ATOM     12  C   UNL     1       4.762   3.971  17.112  0.00  0.00    +0.000 A 
ATOM     13  C   UNL     1       5.889   4.030  17.940  0.00  0.00    +0.000 A 
ATOM     14  C   UNL     1       6.901   4.982  17.743  0.00  0.00    +0.000 A 
BRANCH   9  16
ATOM     15  C   UNL     1       7.584   8.014  17.400  0.00  0.00    +0.000 C 
ATOM     16  O   UNL     1       7.710   6.888  16.531  0.00  0.00    +0.000 OA
ENDBRANCH   9  16
BRANCH  14  17
ATOM     17  O   UNL     1       7.894   4.864  18.679  0.00  0.00    +0.000 OA
ATOM     18  C   UNL     1       7.727   5.469  19.950  0.00  0.00    +0.000 C 
ENDBRANCH  14  17
ENDBRANCH   8  12
ENDBRANCH   7   8
ENDBRANCH   5   7
ENDBRANCH   4   5
ENDBRANCH   1   4
BRANCH   1  19
ATOM     19  C   UNL     1       1.830   5.124  20.859  0.00  0.00    +0.000 C 
BRANCH  19  20
ATOM     20  O   UNL     1       2.554   5.983  19.974  0.00  0.00    +0.000 OA
BRANCH  20  21
ATOM     21  C   UNL     1       2.044   7.251  19.868  0.00  0.00    +0.000 A 
ATOM     22  C   UNL     1       2.188   7.847  18.616  0.00  0.00    +0.000 A 
ATOM     23  C   UNL     1       1.723   9.146  18.395  0.00  0.00    +0.000 A 
ATOM     24  C   UNL     1       1.091   9.863  19.421  0.00  0.00    +0.000 A 
ATOM     25  C   UNL     1       0.911   9.237  20.658  0.00  0.00    +0.000 A 
ATOM     26  C   UNL     1       1.384   7.942  20.884  0.00  0.00    +0.000 A 
BRANCH  24  27
ATOM     27  C   UNL     1       0.615  11.232  19.236  0.00  0.00    +0.000 A 
ATOM     28  N   UNL     1       0.690  12.212  20.119  0.00  0.00    +0.000 NA
ATOM     29  C   UNL     1       0.143  13.316  19.519  0.00  0.00    +0.000 A 
ATOM     30  C   UNL     1      -0.247  13.020  18.237  0.00  0.00    +0.000 A 
ATOM     31  N   UNL     1       0.060  11.701  18.071  0.00  0.00    +0.000 N 
ATOM     32  H   UNL     1      -0.064  11.160  17.226  0.00  0.00    +0.000 HD
ENDBRANCH  24  27
ENDBRANCH  20  21
ENDBRANCH  19  20
ENDBRANCH   1  19
TORSDOF 12
ENDMDL
MODEL 7
REMARK VINA RESULT:      -6.8      1.281      2.226
REMARK  Name = 
REMARK  14 active torsions:
REMARK  status: ('A' for Active; 'I' for Inactive)
REMARK    1  A    between atoms: C_1  and  O_2
REMARK    2  A    between atoms: O_2  and  C_3
REMARK    3  A    between atoms: C_6  and  C_7
REMARK    4  A    between atoms: C_7  and  C_8
REMARK    5  A    between atoms: C_8  and  N_9
REMARK    6  A    between atoms: N_9  and  C_10
REMARK    7  A    between atoms: C_10  and  C_11
REMARK    8  A    between atoms: C_11  and  O_12
REMARK    9  A    between atoms: C_11  and  C_13
REMARK   10  A    between atoms: C_13  and  O_14
REMARK   11  A    between atoms: O_14  and  C_15
REMARK   12  A    between atoms: C_18  and  C_19
REMARK   13  A    between atoms: C_27  and  O_28
REMARK   14  A    between atoms: O_28  and  C_29
REMARK                            x       y       z     vdW  Elec       q    Type
REMARK                         _______ _______ _______ _____ _____    ______ ____
ROOT
ATOM      1  C   UNL     1       2.071   4.085  20.472  0.00  0.00    +0.000 C 
ENDROOT
BRANCH   1   2
ATOM      2  O   UNL     1       2.173   3.356  21.706  0.00  0.00    +0.000 OA
ATOM      3  H   UNL     1       1.342   2.871  21.842  0.00  0.00    +0.000 HD
ENDBRANCH   1   2
BRANCH   1   4
ATOM      4  C   UNL     1       0.821   3.587  19.714  0.00  0.00    +0.000 C 
BRANCH   4   5
ATOM      5  N   UNL     1       1.121   2.919  18.443  0.00  0.00    +0.000 NA
ATOM      6  H   UNL     1       1.491   1.984  18.604  0.00  0.00    +0.000 HD
BRANCH   5   7
ATOM      7  C   UNL     1       2.114   3.676  17.675  0.00  0.00    +0.000 C 
BRANCH   7   8
ATOM      8  C   UNL     1       3.400   2.855  17.519  0.00  0.00    +0.000 C 
BRANCH   8  12
ATOM      9  C   UNL     1       6.715   5.610  17.213  0.00  0.00    +0.000 A 
ATOM     10  C   UNL     1       6.107   5.084  16.060  0.00  0.00    +0.000 A 
ATOM     11  C   UNL     1       5.045   4.186  16.153  0.00  0.00    +0.000 A 
ATOM     12  C   UNL     1       4.603   3.753  17.402  0.00  0.00    +0.000 A 
ATOM     13  C   UNL     1       5.265   4.210  18.547  0.00  0.00    +0.000 A 
ATOM     14  C   UNL     1       6.322   5.130  18.471  0.00  0.00    +0.000 A 
BRANCH   9  16
ATOM     15  C   UNL     1       7.283   7.901  17.415  0.00  0.00    +0.000 C 
ATOM     16  O   UNL     1       7.693   6.564  17.121  0.00  0.00    +0.000 OA
ENDBRANCH   9  16
BRANCH  14  17
ATOM     17  O   UNL     1       6.806   5.447  19.712  0.00  0.00    +0.000 OA
ATOM     18  C   UNL     1       8.202   5.388  19.950  0.00  0.00    +0.000 C 
ENDBRANCH  14  17
ENDBRANCH   8  12
ENDBRANCH   7   8
ENDBRANCH   5   7
ENDBRANCH   4   5
ENDBRANCH   1   4
BRANCH   1  19
ATOM     19  C   UNL     1       2.000   5.597  20.735  0.00  0.00    +0.000 C 
BRANCH  19  20
ATOM     20  O   UNL     1       2.611   6.321  19.664  0.00  0.00    +0.000 OA
BRANCH  20  21
ATOM     21  C   UNL     1       2.106   7.580  19.466  0.00  0.00    +0.000 A 
ATOM     22  C   UNL     1       1.500   8.160  20.579  0.00  0.00    +0.000 A 
ATOM     23  C   UNL     1       0.934   9.434  20.491  0.00  0.00    +0.000 A 
ATOM     24  C   UNL     1       0.980  10.155  19.289  0.00  0.00    +0.000 A 
ATOM     25  C   UNL     1       1.633   9.582  18.193  0.00  0.00    +0.000 A 
ATOM     26  C   UNL     1       2.191   8.304  18.277  0.00  0.00    +0.000 A 
BRANCH  24  27
ATOM     27  C   UNL     1       0.377  11.479  19.151  0.00  0.00    +0.000 A 
ATOM     28  N   UNL     1       0.911  12.521  18.537  0.00  0.00    +0.000 NA
ATOM     29  C   UNL     1      -0.004  13.536  18.633  0.00  0.00    +0.000 A 
ATOM     30  C   UNL     1      -1.130  13.105  19.289  0.00  0.00    +0.000 A 
ATOM     31  N   UNL     1      -0.876  11.804  19.607  0.00  0.00    +0.000 N 
ATOM     32  H   UNL     1      -1.511  11.166  20.069  0.00  0.00    +0.000 HD
ENDBRANCH  24  27
ENDBRANCH  20  21
ENDBRANCH  19  20
ENDBRANCH   1  19
TORSDOF 12
ENDMDL
MODEL 8
REMARK VINA RESULT:      -6.8      1.177      1.277
REMARK  Name = 
REMARK  14 active torsions:
REMARK  status: ('A' for Active; 'I' for Inactive)
REMARK    1  A    between atoms: C_1  and  O_2
REMARK    2  A    between atoms: O_2  and  C_3
REMARK    3  A    between atoms: C_6  and  C_7
REMARK    4  A    between atoms: C_7  and  C_8
REMARK    5  A    between atoms: C_8  and  N_9
REMARK    6  A    between atoms: N_9  and  C_10
REMARK    7  A    between atoms: C_10  and  C_11
REMARK    8  A    between atoms: C_11  and  O_12
REMARK    9  A    between atoms: C_11  and  C_13
REMARK   10  A    between atoms: C_13  and  O_14
REMARK   11  A    between atoms: O_14  and  C_15
REMARK   12  A    between atoms: C_18  and  C_19
REMARK   13  A    between atoms: C_27  and  O_28
REMARK   14  A    between atoms: O_28  and  C_29
REMARK                            x       y       z     vdW  Elec       q    Type
REMARK                         _______ _______ _______ _____ _____    ______ ____
ROOT
ATOM      1  C   UNL     1       1.611   3.953  19.504  0.00  0.00    +0.000 C 
ENDROOT
BRANCH   1   2
ATOM      2  O   UNL     1       0.493   4.080  20.397  0.00  0.00    +0.000 OA
ATOM      3  H   UNL     1       0.826   4.361  21.265  0.00  0.00    +0.000 HD
ENDBRANCH   1   2
BRANCH   1   4
ATOM      4  C   UNL     1       1.322   2.790  18.528  0.00  0.00    +0.000 C 
BRANCH   4   5
ATOM      5  N   UNL     1       2.292   1.691  18.606  0.00  0.00    +0.000 NA
ATOM      6  H   UNL     1       2.502   1.464  19.577  0.00  0.00    +0.000 HD
BRANCH   5   7
ATOM      7  C   UNL     1       3.547   2.051  17.940  0.00  0.00    +0.000 C 
BRANCH   7   8
ATOM      8  C   UNL     1       4.524   2.665  18.950  0.00  0.00    +0.000 C 
BRANCH   8  12
ATOM      9  C   UNL     1       6.846   5.897  17.266  0.00  0.00    +0.000 A 
ATOM     10  C   UNL     1       6.313   5.994  18.563  0.00  0.00    +0.000 A 
ATOM     11  C   UNL     1       5.554   4.958  19.107  0.00  0.00    +0.000 A 
ATOM     12  C   UNL     1       5.266   3.828  18.345  0.00  0.00    +0.000 A 
ATOM     13  C   UNL     1       5.723   3.771  17.023  0.00  0.00    +0.000 A 
ATOM     14  C   UNL     1       6.507   4.795  16.469  0.00  0.00    +0.000 A 
BRANCH   9  16
ATOM     15  C   UNL     1       7.752   8.069  17.542  0.00  0.00    +0.000 C 
ATOM     16  O   UNL     1       7.672   6.871  16.769  0.00  0.00    +0.000 OA
ENDBRANCH   9  16
BRANCH  14  17
ATOM     17  O   UNL     1       6.853   4.520  15.173  0.00  0.00    +0.000 OA
ATOM     18  C   UNL     1       5.836   4.387  14.194  0.00  0.00    +0.000 C 
ENDBRANCH  14  17
ENDBRANCH   8  12
ENDBRANCH   7   8
ENDBRANCH   5   7
ENDBRANCH   4   5
ENDBRANCH   1   4
BRANCH   1  19
ATOM     19  C   UNL     1       1.861   5.267  18.750  0.00  0.00    +0.000 C 
BRANCH  19  20
ATOM     20  O   UNL     1       2.519   6.213  19.597  0.00  0.00    +0.000 OA
BRANCH  20  21
ATOM     21  C   UNL     1       2.054   7.497  19.487  0.00  0.00    +0.000 A 
ATOM     22  C   UNL     1       2.164   8.064  18.218  0.00  0.00    +0.000 A 
ATOM     23  C   UNL     1       1.739   9.375  17.992  0.00  0.00    +0.000 A 
ATOM     24  C   UNL     1       1.182  10.135  19.030  0.00  0.00    +0.000 A 
ATOM     25  C   UNL     1       1.034   9.540  20.286  0.00  0.00    +0.000 A 
ATOM     26  C   UNL     1       1.467   8.232  20.517  0.00  0.00    +0.000 A 
BRANCH  24  27
ATOM     27  C   UNL     1       0.750  11.518  18.838  0.00  0.00    +0.000 A 
ATOM     28  N   UNL     1      -0.458  11.917  18.479  0.00  0.00    +0.000 NA
ATOM     29  C   UNL     1      -0.417  13.286  18.442  0.00  0.00    +0.000 A 
ATOM     30  C   UNL     1       0.824  13.739  18.813  0.00  0.00    +0.000 A 
ATOM     31  N   UNL     1       1.549  12.611  19.064  0.00  0.00    +0.000 N 
ATOM     32  H   UNL     1       2.505  12.576  19.394  0.00  0.00    +0.000 HD
ENDBRANCH  24  27
ENDBRANCH  20  21
ENDBRANCH  19  20
ENDBRANCH   1  19
TORSDOF 12
ENDMDL
MODEL 9
REMARK VINA RESULT:      -6.8      3.252      8.637
REMARK  Name = 
REMARK  14 active torsions:
REMARK  status: ('A' for Active; 'I' for Inactive)
REMARK    1  A    between atoms: C_1  and  O_2
REMARK    2  A    between atoms: O_2  and  C_3
REMARK    3  A    between atoms: C_6  and  C_7
REMARK    4  A    between atoms: C_7  and  C_8
REMARK    5  A    between atoms: C_8  and  N_9
REMARK    6  A    between atoms: N_9  and  C_10
REMARK    7  A    between atoms: C_10  and  C_11
REMARK    8  A    between atoms: C_11  and  O_12
REMARK    9  A    between atoms: C_11  and  C_13
REMARK   10  A    between atoms: C_13  and  O_14
REMARK   11  A    between atoms: O_14  and  C_15
REMARK   12  A    between atoms: C_18  and  C_19
REMARK   13  A    between atoms: C_27  and  O_28
REMARK   14  A    between atoms: O_28  and  C_29
REMARK                            x       y       z     vdW  Elec       q    Type
REMARK                         _______ _______ _______ _____ _____    ______ ____
ROOT
ATOM      1  C   UNL     1       2.303   3.105  20.406  0.00  0.00    +0.000 C 
ENDROOT
BRANCH   1   2
ATOM      2  O   UNL     1       2.450   3.156  21.834  0.00  0.00    +0.000 OA
ATOM      3  H   UNL     1       2.285   2.267  22.190  0.00  0.00    +0.000 HD
ENDBRANCH   1   2
BRANCH   1   4
ATOM      4  C   UNL     1       1.778   4.476  19.923  0.00  0.00    +0.000 C 
BRANCH   4   5
ATOM      5  N   UNL     1       2.405   5.623  20.589  0.00  0.00    +0.000 NA
ATOM      6  H   UNL     1       2.942   5.321  21.400  0.00  0.00    +0.000 HD
BRANCH   5   7
ATOM      7  C   UNL     1       1.395   6.584  21.042  0.00  0.00    +0.000 C 
BRANCH   7   8
ATOM      8  C   UNL     1       1.727   7.986  20.518  0.00  0.00    +0.000 C 
BRANCH   8  12
ATOM      9  C   UNL     1      -0.529  11.066  22.543  0.00  0.00    +0.000 A 
ATOM     10  C   UNL     1      -0.444   9.768  23.075  0.00  0.00    +0.000 A 
ATOM     11  C   UNL     1       0.273   8.767  22.420  0.00  0.00    +0.000 A 
ATOM     12  C   UNL     1       0.875   9.030  21.191  0.00  0.00    +0.000 A 
ATOM     13  C   UNL     1       0.717  10.298  20.620  0.00  0.00    +0.000 A 
ATOM     14  C   UNL     1       0.017  11.321  21.277  0.00  0.00    +0.000 A 
BRANCH   9  16
ATOM     15  C   UNL     1      -2.556  12.200  23.010  0.00  0.00    +0.000 C 
ATOM     16  O   UNL     1      -1.151  12.072  23.234  0.00  0.00    +0.000 OA
ENDBRANCH   9  16
BRANCH  14  17
ATOM     17  O   UNL     1       0.003  12.476  20.541  0.00  0.00    +0.000 OA
ATOM     18  C   UNL     1       0.984  13.469  20.788  0.00  0.00    +0.000 C 
ENDBRANCH  14  17
ENDBRANCH   8  12
ENDBRANCH   7   8
ENDBRANCH   5   7
ENDBRANCH   4   5
ENDBRANCH   1   4
BRANCH   1  19
ATOM     19  C   UNL     1       3.636   2.748  19.732  0.00  0.00    +0.000 C 
BRANCH  19  20
ATOM     20  O   UNL     1       4.490   3.894  19.674  0.00  0.00    +0.000 OA
BRANCH  20  21
ATOM     21  C   UNL     1       5.073   4.109  18.452  0.00  0.00    +0.000 A 
ATOM     22  C   UNL     1       4.450   3.480  17.376  0.00  0.00    +0.000 A 
ATOM     23  C   UNL     1       4.966   3.612  16.085  0.00  0.00    +0.000 A 
ATOM     24  C   UNL     1       6.108   4.391  15.848  0.00  0.00    +0.000 A 
ATOM     25  C   UNL     1       6.697   5.055  16.929  0.00  0.00    +0.000 A 
ATOM     26  C   UNL     1       6.188   4.916  18.222  0.00  0.00    +0.000 A 
BRANCH  24  27
ATOM     27  C   UNL     1       6.693   4.533  14.517  0.00  0.00    +0.000 A 
ATOM     28  N   UNL     1       6.365   3.840  13.440  0.00  0.00    +0.000 NA
ATOM     29  C   UNL     1       7.146   4.316  12.421  0.00  0.00    +0.000 A 
ATOM     30  C   UNL     1       7.947   5.337  12.868  0.00  0.00    +0.000 A 
ATOM     31  N   UNL     1       7.647   5.465  14.192  0.00  0.00    +0.000 N 
ATOM     32  H   UNL     1       8.031   6.151  14.829  0.00  0.00    +0.000 HD
ENDBRANCH  24  27
ENDBRANCH  20  21
ENDBRANCH  19  20
ENDBRANCH   1  19
TORSDOF 12
ENDMDL
