MODEL 1
REMARK VINA RESULT:      -7.6      0.000      0.000
REMARK  Name = 
REMARK  12 active torsions:
REMARK  status: ('A' for Active; 'I' for Inactive)
REMARK    1  A    between atoms: C_1  and  C_2
REMARK    2  A    between atoms: C_2  and  C_4
REMARK    3  A    between atoms: C_7  and  O_8
REMARK    4  A    between atoms: O_8  and  C_9
REMARK    5  A    between atoms: C_9  and  C_10
REMARK    6  A    between atoms: C_9  and  C_11
REMARK    7  A    between atoms: C_11  and  O_13
REMARK    8  A    between atoms: O_13  and  C_14
REMARK    9  A    between atoms: C_14  and  C_15
REMARK   10  A    between atoms: N_17  and  C_18
REMARK   11  A    between atoms: C_18  and  C_19
REMARK   12  A    between atoms: C_19  and  C_20
REMARK                            x       y       z     vdW  Elec       q    Type
REMARK                         _______ _______ _______ _____ _____    ______ ____
ROOT
ATOM      1  C   UNL     1       7.202   4.907  16.880  0.00  0.00    +0.000 C 
ATOM      2  O   UNL     1       7.434   4.469  18.002  0.00  0.00    +0.000 OA
ENDROOT
BRANCH   1   3
ATOM      3  C   UNL     1       6.318   4.219  15.827  0.00  0.00    +0.000 C 
ATOM      4  C   UNL     1       6.939   4.455  14.450  0.00  0.00    +0.000 C 
BRANCH   3   5
ATOM      5  O   UNL     1       5.003   4.772  15.896  0.00  0.00    +0.000 OA
BRANCH   5   9
ATOM      6  C   UNL     1       2.460   4.210  19.165  0.00  0.00    +0.000 A 
ATOM      7  C   UNL     1       2.775   5.480  18.675  0.00  0.00    +0.000 A 
ATOM      8  C   UNL     1       3.649   5.616  17.591  0.00  0.00    +0.000 A 
ATOM      9  C   UNL     1       4.239   4.497  16.996  0.00  0.00    +0.000 A 
ATOM     10  C   UNL     1       3.953   3.232  17.506  0.00  0.00    +0.000 A 
ATOM     11  C   UNL     1       3.059   3.089  18.579  0.00  0.00    +0.000 A 
BRANCH   6  13
ATOM     12  C   UNL     1       1.338   2.630  20.875  0.00  0.00    +0.000 C 
ATOM     13  C   UNL     1       1.484   4.007  20.279  0.00  0.00    +0.000 C 
ATOM     14  O   UNL     1       0.828   4.957  20.704  0.00  0.00    +0.000 OA
ENDBRANCH   6  13
ENDBRANCH   5   9
ENDBRANCH   3   5
ENDBRANCH   1   3
BRANCH   1  15
ATOM     15  O   UNL     1       7.625   6.130  16.443  0.00  0.00    +0.000 OA
BRANCH  15  16
ATOM     16  C   UNL     1       6.951   7.229  17.070  0.00  0.00    +0.000 C 
BRANCH  16  17
ATOM     17  C   UNL     1       7.919   7.944  18.019  0.00  0.00    +0.000 C 
ATOM     18  O   UNL     1       8.545   7.346  18.895  0.00  0.00    +0.000 OA
ATOM     19  N   UNL     1       8.022   9.308  17.833  0.00  0.00    +0.000 N 
ATOM     20  H   UNL     1       7.580   9.744  17.034  0.00  0.00    +0.000 HD
BRANCH  19  21
ATOM     21  C   UNL     1       8.913  10.087  18.680  0.00  0.00    +0.000 C 
BRANCH  21  22
ATOM     22  C   UNL     1      10.068  10.727  17.909  0.00  0.00    +0.000 C 
BRANCH  22  23
ATOM     23  C   UNL     1       9.955  12.232  17.877  0.00  0.00    +0.000 A 
ATOM     24  C   UNL     1      10.961  13.009  17.284  0.00  0.00    +0.000 A 
ATOM     25  C   UNL     1      10.869  14.403  17.278  0.00  0.00    +0.000 A 
ATOM     26  C   UNL     1       9.774  15.034  17.865  0.00  0.00    +0.000 A 
ATOM     27  C   UNL     1       8.771  14.272  18.461  0.00  0.00    +0.000 A 
ATOM     28  C   UNL     1       8.862  12.879  18.469  0.00  0.00    +0.000 A 
ENDBRANCH  22  23
ENDBRANCH  21  22
ENDBRANCH  19  21
ENDBRANCH  16  17
ENDBRANCH  15  16
ENDBRANCH   1  15
TORSDOF 10
ENDMDL
MODEL 2
REMARK VINA RESULT:      -7.6      4.160      7.624
REMARK  Name = 
REMARK  12 active torsions:
REMARK  status: ('A' for Active; 'I' for Inactive)
REMARK    1  A    between atoms: C_1  and  C_2
REMARK    2  A    between atoms: C_2  and  C_4
REMARK    3  A    between atoms: C_7  and  O_8
REMARK    4  A    between atoms: O_8  and  C_9
REMARK    5  A    between atoms: C_9  and  C_10
REMARK    6  A    between atoms: C_9  and  C_11
REMARK    7  A    between atoms: C_11  and  O_13
REMARK    8  A    between atoms: O_13  and  C_14
REMARK    9  A    between atoms: C_14  and  C_15
REMARK   10  A    between atoms: N_17  and  C_18
REMARK   11  A    between atoms: C_18  and  C_19
REMARK   12  A    between atoms: C_19  and  C_20
REMARK                            x       y       z     vdW  Elec       q    Type
REMARK                         _______ _______ _______ _____ _____    ______ ____
ROOT
ATOM      1  C   UNL     1       5.707   5.828  15.498  0.00  0.00    +0.000 C 
ATOM      2  O   UNL     1       5.209   5.103  14.644  0.00  0.00    +0.000 OA
ENDROOT
BRANCH   1   3
ATOM      3  C   UNL     1       4.931   6.816  16.384  0.00  0.00    +0.000 C 
ATOM      4  C   UNL     1       5.929   7.532  17.295  0.00  0.00    +0.000 C 
BRANCH   3   5
ATOM      5  O   UNL     1       3.970   6.090  17.152  0.00  0.00    +0.000 OA
BRANCH   5   9
ATOM      6  C   UNL     1       1.576   8.273  19.792  0.00  0.00    +0.000 A 
ATOM      7  C   UNL     1       1.881   8.732  18.509  0.00  0.00    +0.000 A 
ATOM      8  C   UNL     1       2.706   7.974  17.671  0.00  0.00    +0.000 A 
ATOM      9  C   UNL     1       3.255   6.763  18.103  0.00  0.00    +0.000 A 
ATOM     10  C   UNL     1       2.980   6.321  19.396  0.00  0.00    +0.000 A 
ATOM     11  C   UNL     1       2.135   7.067  20.233  0.00  0.00    +0.000 A 
BRANCH   6  13
ATOM     12  C   UNL     1      -0.314  10.008  20.108  0.00  0.00    +0.000 C 
ATOM     13  C   UNL     1       0.651   9.014  20.704  0.00  0.00    +0.000 C 
ATOM     14  O   UNL     1       0.677   8.799  21.914  0.00  0.00    +0.000 OA
ENDBRANCH   6  13
ENDBRANCH   5   9
ENDBRANCH   3   5
ENDBRANCH   1   3
BRANCH   1  15
ATOM     15  O   UNL     1       7.027   5.786  15.849  0.00  0.00    +0.000 OA
BRANCH  15  16
ATOM     16  C   UNL     1       7.450   4.508  16.341  0.00  0.00    +0.000 C 
BRANCH  16  17
ATOM     17  C   UNL     1       7.117   4.402  17.833  0.00  0.00    +0.000 C 
ATOM     18  O   UNL     1       7.909   4.745  18.711  0.00  0.00    +0.000 OA
ATOM     19  N   UNL     1       5.873   3.877  18.121  0.00  0.00    +0.000 N 
ATOM     20  H   UNL     1       5.209   3.713  17.374  0.00  0.00    +0.000 HD
BRANCH  19  21
ATOM     21  C   UNL     1       5.453   3.733  19.506  0.00  0.00    +0.000 C 
BRANCH  21  22
ATOM     22  C   UNL     1       4.693   2.433  19.771  0.00  0.00    +0.000 C 
BRANCH  22  23
ATOM     23  C   UNL     1       3.202   2.659  19.843  0.00  0.00    +0.000 A 
ATOM     24  C   UNL     1       2.407   2.535  18.693  0.00  0.00    +0.000 A 
ATOM     25  C   UNL     1       1.031   2.769  18.755  0.00  0.00    +0.000 A 
ATOM     26  C   UNL     1       0.437   3.132  19.962  0.00  0.00    +0.000 A 
ATOM     27  C   UNL     1       1.218   3.262  21.109  0.00  0.00    +0.000 A 
ATOM     28  C   UNL     1       2.593   3.029  21.049  0.00  0.00    +0.000 A 
ENDBRANCH  22  23
ENDBRANCH  21  22
ENDBRANCH  19  21
ENDBRANCH  16  17
ENDBRANCH  15  16
ENDBRANCH   1  15
TORSDOF 10
ENDMDL
MODEL 3
REMARK VINA RESULT:      -7.3      4.657      8.071
REMARK  Name = 
REMARK  12 active torsions:
REMARK  status: ('A' for Active; 'I' for Inactive)
REMARK    1  A    between atoms: C_1  and  C_2
REMARK    2  A    between atoms: C_2  and  C_4
REMARK    3  A    between atoms: C_7  and  O_8
REMARK    4  A    between atoms: O_8  and  C_9
REMARK    5  A    between atoms: C_9  and  C_10
REMARK    6  A    between atoms: C_9  and  C_11
REMARK    7  A    between atoms: C_11  and  O_13
REMARK    8  A    between atoms: O_13  and  C_14
REMARK    9  A    between atoms: C_14  and  C_15
REMARK   10  A    between atoms: N_17  and  C_18
REMARK   11  A    between atoms: C_18  and  C_19
REMARK   12  A    between atoms: C_19  and  C_20
REMARK                            x       y       z     vdW  Elec       q    Type
REMARK                         _______ _______ _______ _____ _____    ______ ____
ROOT
ATOM      1  C   UNL     1       5.746   6.570  17.377  0.00  0.00    +0.000 C 
ATOM      2  O   UNL     1       6.971   6.619  17.395  0.00  0.00    +0.000 OA
ENDROOT
BRANCH   1   3
ATOM      3  C   UNL     1       4.842   6.559  18.620  0.00  0.00    +0.000 C 
ATOM      4  C   UNL     1       5.177   5.317  19.447  0.00  0.00    +0.000 C 
BRANCH   3   5
ATOM      5  O   UNL     1       3.478   6.537  18.198  0.00  0.00    +0.000 OA
BRANCH   5   9
ATOM      6  C   UNL     1       0.754   9.504  19.319  0.00  0.00    +0.000 A 
ATOM      7  C   UNL     1       1.308   9.446  18.038  0.00  0.00    +0.000 A 
ATOM      8  C   UNL     1       2.233   8.446  17.719  0.00  0.00    +0.000 A 
ATOM      9  C   UNL     1       2.636   7.505  18.672  0.00  0.00    +0.000 A 
ATOM     10  C   UNL     1       2.109   7.583  19.960  0.00  0.00    +0.000 A 
ATOM     11  C   UNL     1       1.165   8.571  20.279  0.00  0.00    +0.000 A 
BRANCH   6  13
ATOM     12  C   UNL     1      -0.469  10.861  21.147  0.00  0.00    +0.000 C 
ATOM     13  C   UNL     1      -0.283  10.514  19.692  0.00  0.00    +0.000 C 
ATOM     14  O   UNL     1      -0.958  11.054  18.818  0.00  0.00    +0.000 OA
ENDBRANCH   6  13
ENDBRANCH   5   9
ENDBRANCH   3   5
ENDBRANCH   1   3
BRANCH   1  15
ATOM     15  O   UNL     1       5.005   6.617  16.230  0.00  0.00    +0.000 OA
BRANCH  15  16
ATOM     16  C   UNL     1       5.458   5.712  15.216  0.00  0.00    +0.000 C 
BRANCH  16  17
ATOM     17  C   UNL     1       5.287   4.271  15.709  0.00  0.00    +0.000 C 
ATOM     18  O   UNL     1       6.084   3.377  15.422  0.00  0.00    +0.000 OA
ATOM     19  N   UNL     1       4.164   4.044  16.479  0.00  0.00    +0.000 N 
ATOM     20  H   UNL     1       3.595   4.823  16.785  0.00  0.00    +0.000 HD
BRANCH  19  21
ATOM     21  C   UNL     1       3.903   2.710  17.000  0.00  0.00    +0.000 C 
BRANCH  21  22
ATOM     22  C   UNL     1       2.454   2.511  17.445  0.00  0.00    +0.000 C 
BRANCH  22  23
ATOM     23  C   UNL     1       2.252   2.896  18.890  0.00  0.00    +0.000 A 
ATOM     24  C   UNL     1       1.290   3.852  19.244  0.00  0.00    +0.000 A 
ATOM     25  C   UNL     1       1.122   4.226  20.580  0.00  0.00    +0.000 A 
ATOM     26  C   UNL     1       1.913   3.652  21.573  0.00  0.00    +0.000 A 
ATOM     27  C   UNL     1       2.875   2.704  21.231  0.00  0.00    +0.000 A 
ATOM     28  C   UNL     1       3.046   2.329  19.897  0.00  0.00    +0.000 A 
ENDBRANCH  22  23
ENDBRANCH  21  22
ENDBRANCH  19  21
ENDBRANCH  16  17
ENDBRANCH  15  16
ENDBRANCH   1  15
TORSDOF 10
ENDMDL
MODEL 4
REMARK VINA RESULT:      -7.2      2.939      4.194
REMARK  Name = 
REMARK  12 active torsions:
REMARK  status: ('A' for Active; 'I' for Inactive)
REMARK    1  A    between atoms: C_1  and  C_2
REMARK    2  A    between atoms: C_2  and  C_4
REMARK    3  A    between atoms: C_7  and  O_8
REMARK    4  A    between atoms: O_8  and  C_9
REMARK    5  A    between atoms: C_9  and  C_10
REMARK    6  A    between atoms: C_9  and  C_11
REMARK    7  A    between atoms: C_11  and  O_13
REMARK    8  A    between atoms: O_13  and  C_14
REMARK    9  A    between atoms: C_14  and  C_15
REMARK   10  A    between atoms: N_17  and  C_18
REMARK   11  A    between atoms: C_18  and  C_19
REMARK   12  A    between atoms: C_19  and  C_20
REMARK                            x       y       z     vdW  Elec       q    Type
REMARK                         _______ _______ _______ _____ _____    ______ ____
ROOT
ATOM      1  C   UNL     1       5.045   4.428  18.820  0.00  0.00    +0.000 C 
ATOM      2  O   UNL     1       5.430   3.360  19.284  0.00  0.00    +0.000 OA
ENDROOT
BRANCH   1   3
ATOM      3  C   UNL     1       3.970   5.329  19.447  0.00  0.00    +0.000 C 
ATOM      4  C   UNL     1       3.001   4.447  20.233  0.00  0.00    +0.000 C 
BRANCH   3   5
ATOM      5  O   UNL     1       3.290   6.030  18.404  0.00  0.00    +0.000 OA
BRANCH   5   9
ATOM      6  C   UNL     1       1.223   9.611  19.014  0.00  0.00    +0.000 A 
ATOM      7  C   UNL     1       1.853   9.312  17.805  0.00  0.00    +0.000 A 
ATOM      8  C   UNL     1       2.552   8.108  17.658  0.00  0.00    +0.000 A 
ATOM      9  C   UNL     1       2.652   7.199  18.715  0.00  0.00    +0.000 A 
ATOM     10  C   UNL     1       2.053   7.513  19.933  0.00  0.00    +0.000 A 
ATOM     11  C   UNL     1       1.333   8.709  20.079  0.00  0.00    +0.000 A 
BRANCH   6  13
ATOM     12  C   UNL     1       0.945  12.157  18.661  0.00  0.00    +0.000 C 
ATOM     13  C   UNL     1       0.413  10.854  19.202  0.00  0.00    +0.000 C 
ATOM     14  O   UNL     1      -0.672  10.800  19.778  0.00  0.00    +0.000 OA
ENDBRANCH   6  13
ENDBRANCH   5   9
ENDBRANCH   3   5
ENDBRANCH   1   3
BRANCH   1  15
ATOM     15  O   UNL     1       5.598   5.015  17.717  0.00  0.00    +0.000 OA
BRANCH  15  16
ATOM     16  C   UNL     1       6.957   5.429  17.907  0.00  0.00    +0.000 C 
BRANCH  16  17
ATOM     17  C   UNL     1       7.084   6.920  17.574  0.00  0.00    +0.000 C 
ATOM     18  O   UNL     1       6.360   7.474  16.746  0.00  0.00    +0.000 OA
ATOM     19  N   UNL     1       8.081   7.590  18.254  0.00  0.00    +0.000 N 
ATOM     20  H   UNL     1       8.579   7.129  19.004  0.00  0.00    +0.000 HD
BRANCH  19  21
ATOM     21  C   UNL     1       8.290   9.010  18.014  0.00  0.00    +0.000 C 
BRANCH  21  22
ATOM     22  C   UNL     1       9.096   9.694  19.118  0.00  0.00    +0.000 C 
BRANCH  22  23
ATOM     23  C   UNL     1       9.701  10.995  18.649  0.00  0.00    +0.000 A 
ATOM     24  C   UNL     1       8.909  11.957  18.005  0.00  0.00    +0.000 A 
ATOM     25  C   UNL     1       9.476  13.150  17.548  0.00  0.00    +0.000 A 
ATOM     26  C   UNL     1      10.837  13.391  17.725  0.00  0.00    +0.000 A 
ATOM     27  C   UNL     1      11.634  12.439  18.359  0.00  0.00    +0.000 A 
ATOM     28  C   UNL     1      11.069  11.246  18.816  0.00  0.00    +0.000 A 
ENDBRANCH  22  23
ENDBRANCH  21  22
ENDBRANCH  19  21
ENDBRANCH  16  17
ENDBRANCH  15  16
ENDBRANCH   1  15
TORSDOF 10
ENDMDL
MODEL 5
REMARK VINA RESULT:      -7.2      5.188      8.458
REMARK  Name = 
REMARK  12 active torsions:
REMARK  status: ('A' for Active; 'I' for Inactive)
REMARK    1  A    between atoms: C_1  and  C_2
REMARK    2  A    between atoms: C_2  and  C_4
REMARK    3  A    between atoms: C_7  and  O_8
REMARK    4  A    between atoms: O_8  and  C_9
REMARK    5  A    between atoms: C_9  and  C_10
REMARK    6  A    between atoms: C_9  and  C_11
REMARK    7  A    between atoms: C_11  and  O_13
REMARK    8  A    between atoms: O_13  and  C_14
REMARK    9  A    between atoms: C_14  and  C_15
REMARK   10  A    between atoms: N_17  and  C_18
REMARK   11  A    between atoms: C_18  and  C_19
REMARK   12  A    between atoms: C_19  and  C_20
REMARK                            x       y       z     vdW  Elec       q    Type
REMARK                         _______ _______ _______ _____ _____    ______ ____
ROOT
ATOM      1  C   UNL     1       2.706   4.871  19.984  0.00  0.00    +0.000 C 
ATOM      2  O   UNL     1       2.321   4.785  21.146  0.00  0.00    +0.000 OA
ENDROOT
BRANCH   1   3
ATOM      3  C   UNL     1       3.531   3.807  19.244  0.00  0.00    +0.000 C 
ATOM      4  C   UNL     1       3.471   2.507  20.046  0.00  0.00    +0.000 C 
BRANCH   3   5
ATOM      5  O   UNL     1       4.877   4.270  19.122  0.00  0.00    +0.000 OA
BRANCH   5   9
ATOM      6  C   UNL     1       6.655   4.835  15.381  0.00  0.00    +0.000 A 
ATOM      7  C   UNL     1       7.406   4.713  16.552  0.00  0.00    +0.000 A 
ATOM      8  C   UNL     1       6.761   4.547  17.784  0.00  0.00    +0.000 A 
ATOM      9  C   UNL     1       5.367   4.523  17.870  0.00  0.00    +0.000 A 
ATOM     10  C   UNL     1       4.616   4.680  16.706  0.00  0.00    +0.000 A 
ATOM     11  C   UNL     1       5.257   4.824  15.466  0.00  0.00    +0.000 A 
BRANCH   6  13
ATOM     12  C   UNL     1       6.700   4.187  12.879  0.00  0.00    +0.000 C 
ATOM     13  C   UNL     1       7.294   4.951  14.035  0.00  0.00    +0.000 C 
ATOM     14  O   UNL     1       8.279   5.671  13.882  0.00  0.00    +0.000 OA
ENDBRANCH   6  13
ENDBRANCH   5   9
ENDBRANCH   3   5
ENDBRANCH   1   3
BRANCH   1  15
ATOM     15  O   UNL     1       2.363   5.897  19.149  0.00  0.00    +0.000 OA
BRANCH  15  16
ATOM     16  C   UNL     1       2.507   7.194  19.743  0.00  0.00    +0.000 C 
BRANCH  16  17
ATOM     17  C   UNL     1       1.990   8.258  18.770  0.00  0.00    +0.000 C 
ATOM     18  O   UNL     1       2.238   8.225  17.564  0.00  0.00    +0.000 OA
ATOM     19  N   UNL     1       1.244   9.267  19.345  0.00  0.00    +0.000 N 
ATOM     20  H   UNL     1       0.968   9.200  20.317  0.00  0.00    +0.000 HD
BRANCH  19  21
ATOM     21  C   UNL     1       0.703  10.330  18.513  0.00  0.00    +0.000 C 
BRANCH  21  22
ATOM     22  C   UNL     1      -0.502  11.031  19.140  0.00  0.00    +0.000 C 
BRANCH  22  23
ATOM     23  C   UNL     1      -1.730  10.925  18.268  0.00  0.00    +0.000 A 
ATOM     24  C   UNL     1      -2.830  11.770  18.482  0.00  0.00    +0.000 A 
ATOM     25  C   UNL     1      -3.976  11.653  17.692  0.00  0.00    +0.000 A 
ATOM     26  C   UNL     1      -4.036  10.693  16.684  0.00  0.00    +0.000 A 
ATOM     27  C   UNL     1      -2.952   9.846  16.466  0.00  0.00    +0.000 A 
ATOM     28  C   UNL     1      -1.805   9.960  17.256  0.00  0.00    +0.000 A 
ENDBRANCH  22  23
ENDBRANCH  21  22
ENDBRANCH  19  21
ENDBRANCH  16  17
ENDBRANCH  15  16
ENDBRANCH   1  15
TORSDOF 10
ENDMDL
MODEL 6
REMARK VINA RESULT:      -7.2      3.117      4.246
REMARK  Name = 
REMARK  12 active torsions:
REMARK  status: ('A' for Active; 'I' for Inactive)
REMARK    1  A    between atoms: C_1  and  C_2
REMARK    2  A    between atoms: C_2  and  C_4
REMARK    3  A    between atoms: C_7  and  O_8
REMARK    4  A    between atoms: O_8  and  C_9
REMARK    5  A    between atoms: C_9  and  C_10
REMARK    6  A    between atoms: C_9  and  C_11
REMARK    7  A    between atoms: C_11  and  O_13
REMARK    8  A    between atoms: O_13  and  C_14
REMARK    9  A    between atoms: C_14  and  C_15
REMARK   10  A    between atoms: N_17  and  C_18
REMARK   11  A    between atoms: C_18  and  C_19
REMARK   12  A    between atoms: C_19  and  C_20
REMARK                            x       y       z     vdW  Elec       q    Type
REMARK                         _______ _______ _______ _____ _____    ______ ____
ROOT
ATOM      1  C   UNL     1       4.438   4.713  18.678  0.00  0.00    +0.000 C 
ATOM      2  O   UNL     1       4.894   3.960  19.533  0.00  0.00    +0.000 OA
ENDROOT
BRANCH   1   3
ATOM      3  C   UNL     1       3.064   5.398  18.743  0.00  0.00    +0.000 C 
ATOM      4  C   UNL     1       2.051   4.514  18.016  0.00  0.00    +0.000 C 
BRANCH   3   5
ATOM      5  O   UNL     1       3.159   6.682  18.124  0.00  0.00    +0.000 OA
BRANCH   5   9
ATOM      6  C   UNL     1       0.957   9.747  19.920  0.00  0.00    +0.000 A 
ATOM      7  C   UNL     1       1.378   8.619  20.628  0.00  0.00    +0.000 A 
ATOM      8  C   UNL     1       2.094   7.610  19.975  0.00  0.00    +0.000 A 
ATOM      9  C   UNL     1       2.381   7.696  18.609  0.00  0.00    +0.000 A 
ATOM     10  C   UNL     1       1.931   8.805  17.895  0.00  0.00    +0.000 A 
ATOM     11  C   UNL     1       1.231   9.831  18.549  0.00  0.00    +0.000 A 
BRANCH   6  13
ATOM     12  C   UNL     1      -1.240  11.037  20.360  0.00  0.00    +0.000 C 
ATOM     13  C   UNL     1       0.243  10.881  20.583  0.00  0.00    +0.000 C 
ATOM     14  O   UNL     1       0.863  11.660  21.306  0.00  0.00    +0.000 OA
ENDBRANCH   6  13
ENDBRANCH   5   9
ENDBRANCH   3   5
ENDBRANCH   1   3
BRANCH   1  15
ATOM     15  O   UNL     1       5.142   5.125  17.582  0.00  0.00    +0.000 OA
BRANCH  15  16
ATOM     16  C   UNL     1       6.562   5.002  17.732  0.00  0.00    +0.000 C 
BRANCH  16  17
ATOM     17  C   UNL     1       7.243   6.256  17.171  0.00  0.00    +0.000 C 
ATOM     18  O   UNL     1       7.694   6.303  16.026  0.00  0.00    +0.000 OA
ATOM     19  N   UNL     1       7.330   7.318  18.048  0.00  0.00    +0.000 N 
ATOM     20  H   UNL     1       6.850   7.279  18.938  0.00  0.00    +0.000 HD
BRANCH  19  21
ATOM     21  C   UNL     1       7.957   8.559  17.619  0.00  0.00    +0.000 C 
BRANCH  21  22
ATOM     22  C   UNL     1       8.817   9.204  18.705  0.00  0.00    +0.000 C 
BRANCH  22  23
ATOM     23  C   UNL     1       9.180  10.629  18.363  0.00  0.00    +0.000 A 
ATOM     24  C   UNL     1      10.460  11.126  18.647  0.00  0.00    +0.000 A 
ATOM     25  C   UNL     1      10.786  12.452  18.353  0.00  0.00    +0.000 A 
ATOM     26  C   UNL     1       9.838  13.295  17.776  0.00  0.00    +0.000 A 
ATOM     27  C   UNL     1       8.561  12.813  17.494  0.00  0.00    +0.000 A 
ATOM     28  C   UNL     1       8.233  11.487  17.787  0.00  0.00    +0.000 A 
ENDBRANCH  22  23
ENDBRANCH  21  22
ENDBRANCH  19  21
ENDBRANCH  16  17
ENDBRANCH  15  16
ENDBRANCH   1  15
TORSDOF 10
ENDMDL
MODEL 7
REMARK VINA RESULT:      -7.2      4.342      7.806
REMARK  Name = 
REMARK  12 active torsions:
REMARK  status: ('A' for Active; 'I' for Inactive)
REMARK    1  A    between atoms: C_1  and  C_2
REMARK    2  A    between atoms: C_2  and  C_4
REMARK    3  A    between atoms: C_7  and  O_8
REMARK    4  A    between atoms: O_8  and  C_9
REMARK    5  A    between atoms: C_9  and  C_10
REMARK    6  A    between atoms: C_9  and  C_11
REMARK    7  A    between atoms: C_11  and  O_13
REMARK    8  A    between atoms: O_13  and  C_14
REMARK    9  A    between atoms: C_14  and  C_15
REMARK   10  A    between atoms: N_17  and  C_18
REMARK   11  A    between atoms: C_18  and  C_19
REMARK   12  A    between atoms: C_19  and  C_20
REMARK                            x       y       z     vdW  Elec       q    Type
REMARK                         _______ _______ _______ _____ _____    ______ ____
ROOT
ATOM      1  C   UNL     1       6.915   6.545  17.363  0.00  0.00    +0.000 C 
ATOM      2  O   UNL     1       7.266   7.576  16.799  0.00  0.00    +0.000 OA
ENDROOT
BRANCH   1   3
ATOM      3  C   UNL     1       5.852   6.459  18.469  0.00  0.00    +0.000 C 
ATOM      4  C   UNL     1       6.227   5.313  19.410  0.00  0.00    +0.000 C 
BRANCH   3   5
ATOM      5  O   UNL     1       4.577   6.228  17.867  0.00  0.00    +0.000 OA
BRANCH   5   9
ATOM      6  C   UNL     1       1.534   8.789  19.152  0.00  0.00    +0.000 A 
ATOM      7  C   UNL     1       1.948   7.688  19.905  0.00  0.00    +0.000 A 
ATOM      8  C   UNL     1       2.957   6.848  19.419  0.00  0.00    +0.000 A 
ATOM      9  C   UNL     1       3.550   7.077  18.175  0.00  0.00    +0.000 A 
ATOM     10  C   UNL     1       3.113   8.156  17.408  0.00  0.00    +0.000 A 
ATOM     11  C   UNL     1       2.117   9.014  17.899  0.00  0.00    +0.000 A 
BRANCH   6  13
ATOM     12  C   UNL     1       0.943  10.883  20.549  0.00  0.00    +0.000 C 
ATOM     13  C   UNL     1       0.505   9.752  19.652  0.00  0.00    +0.000 C 
ATOM     14  O   UNL     1      -0.671   9.622  19.321  0.00  0.00    +0.000 OA
ENDBRANCH   6  13
ENDBRANCH   5   9
ENDBRANCH   3   5
ENDBRANCH   1   3
BRANCH   1  15
ATOM     15  O   UNL     1       7.360   5.302  17.011  0.00  0.00    +0.000 OA
BRANCH  15  16
ATOM     16  C   UNL     1       7.093   4.962  15.644  0.00  0.00    +0.000 C 
BRANCH  16  17
ATOM     17  C   UNL     1       5.962   3.929  15.591  0.00  0.00    +0.000 C 
ATOM     18  O   UNL     1       5.640   3.358  14.548  0.00  0.00    +0.000 OA
ATOM     19  N   UNL     1       5.319   3.699  16.791  0.00  0.00    +0.000 N 
ATOM     20  H   UNL     1       5.685   4.102  17.645  0.00  0.00    +0.000 HD
BRANCH  19  21
ATOM     21  C   UNL     1       4.230   2.737  16.854  0.00  0.00    +0.000 C 
BRANCH  21  22
ATOM     22  C   UNL     1       2.868   3.386  17.099  0.00  0.00    +0.000 C 
BRANCH  22  23
ATOM     23  C   UNL     1       2.472   3.330  18.555  0.00  0.00    +0.000 A 
ATOM     24  C   UNL     1       3.377   2.866  19.521  0.00  0.00    +0.000 A 
ATOM     25  C   UNL     1       3.000   2.789  20.864  0.00  0.00    +0.000 A 
ATOM     26  C   UNL     1       1.718   3.172  21.255  0.00  0.00    +0.000 A 
ATOM     27  C   UNL     1       0.810   3.629  20.302  0.00  0.00    +0.000 A 
ATOM     28  C   UNL     1       1.184   3.706  18.958  0.00  0.00    +0.000 A 
ENDBRANCH  22  23
ENDBRANCH  21  22
ENDBRANCH  19  21
ENDBRANCH  16  17
ENDBRANCH  15  16
ENDBRANCH   1  15
TORSDOF 10
ENDMDL
MODEL 8
REMARK VINA RESULT:      -7.2      2.501      3.971
REMARK  Name = 
REMARK  12 active torsions:
REMARK  status: ('A' for Active; 'I' for Inactive)
REMARK    1  A    between atoms: C_1  and  C_2
REMARK    2  A    between atoms: C_2  and  C_4
REMARK    3  A    between atoms: C_7  and  O_8
REMARK    4  A    between atoms: O_8  and  C_9
REMARK    5  A    between atoms: C_9  and  C_10
REMARK    6  A    between atoms: C_9  and  C_11
REMARK    7  A    between atoms: C_11  and  O_13
REMARK    8  A    between atoms: O_13  and  C_14
REMARK    9  A    between atoms: C_14  and  C_15
REMARK   10  A    between atoms: N_17  and  C_18
REMARK   11  A    between atoms: C_18  and  C_19
REMARK   12  A    between atoms: C_19  and  C_20
REMARK                            x       y       z     vdW  Elec       q    Type
REMARK                         _______ _______ _______ _____ _____    ______ ____
ROOT
ATOM      1  C   UNL     1       4.401   4.003  17.519  0.00  0.00    +0.000 C 
ATOM      2  O   UNL     1       3.575   3.554  16.732  0.00  0.00    +0.000 OA
ENDROOT
BRANCH   1   3
ATOM      3  C   UNL     1       4.160   4.233  19.020  0.00  0.00    +0.000 C 
ATOM      4  C   UNL     1       4.594   2.976  19.774  0.00  0.00    +0.000 C 
BRANCH   3   5
ATOM      5  O   UNL     1       2.773   4.501  19.229  0.00  0.00    +0.000 OA
BRANCH   5   9
ATOM      6  C   UNL     1       1.596   8.468  19.819  0.00  0.00    +0.000 A 
ATOM      7  C   UNL     1       1.347   7.468  20.763  0.00  0.00    +0.000 A 
ATOM      8  C   UNL     1       1.742   6.150  20.507  0.00  0.00    +0.000 A 
ATOM      9  C   UNL     1       2.368   5.804  19.306  0.00  0.00    +0.000 A 
ATOM     10  C   UNL     1       2.585   6.795  18.350  0.00  0.00    +0.000 A 
ATOM     11  C   UNL     1       2.211   8.122  18.610  0.00  0.00    +0.000 A 
BRANCH   6  13
ATOM     12  C   UNL     1       1.222  10.855  18.902  0.00  0.00    +0.000 C 
ATOM     13  C   UNL     1       1.251   9.901  20.069  0.00  0.00    +0.000 C 
ATOM     14  O   UNL     1       0.983  10.280  21.208  0.00  0.00    +0.000 OA
ENDBRANCH   6  13
ENDBRANCH   5   9
ENDBRANCH   3   5
ENDBRANCH   1   3
BRANCH   1  15
ATOM     15  O   UNL     1       5.697   4.274  17.182  0.00  0.00    +0.000 OA
BRANCH  15  16
ATOM     16  C   UNL     1       5.904   5.617  16.726  0.00  0.00    +0.000 C 
BRANCH  16  17
ATOM     17  C   UNL     1       6.958   6.295  17.609  0.00  0.00    +0.000 C 
ATOM     18  O   UNL     1       7.490   5.720  18.559  0.00  0.00    +0.000 OA
ATOM     19  N   UNL     1       7.252   7.601  17.273  0.00  0.00    +0.000 N 
ATOM     20  H   UNL     1       6.878   8.000  16.421  0.00  0.00    +0.000 HD
BRANCH  19  21
ATOM     21  C   UNL     1       8.239   8.341  18.045  0.00  0.00    +0.000 C 
BRANCH  21  22
ATOM     22  C   UNL     1       8.144   9.854  17.850  0.00  0.00    +0.000 C 
BRANCH  22  23
ATOM     23  C   UNL     1       9.286  10.580  18.519  0.00  0.00    +0.000 A 
ATOM     24  C   UNL     1       9.306  10.743  19.912  0.00  0.00    +0.000 A 
ATOM     25  C   UNL     1      10.350  11.437  20.528  0.00  0.00    +0.000 A 
ATOM     26  C   UNL     1      11.381  11.977  19.761  0.00  0.00    +0.000 A 
ATOM     27  C   UNL     1      11.368  11.825  18.376  0.00  0.00    +0.000 A 
ATOM     28  C   UNL     1      10.325  11.132  17.758  0.00  0.00    +0.000 A 
ENDBRANCH  22  23
ENDBRANCH  21  22
ENDBRANCH  19  21
ENDBRANCH  16  17
ENDBRANCH  15  16
ENDBRANCH   1  15
TORSDOF 10
ENDMDL
MODEL 9
REMARK VINA RESULT:      -7.2      3.798      7.020
REMARK  Name = 
REMARK  12 active torsions:
REMARK  status: ('A' for Active; 'I' for Inactive)
REMARK    1  A    between atoms: C_1  and  C_2
REMARK    2  A    between atoms: C_2  and  C_4
REMARK    3  A    between atoms: C_7  and  O_8
REMARK    4  A    between atoms: O_8  and  C_9
REMARK    5  A    between atoms: C_9  and  C_10
REMARK    6  A    between atoms: C_9  and  C_11
REMARK    7  A    between atoms: C_11  and  O_13
REMARK    8  A    between atoms: O_13  and  C_14
REMARK    9  A    between atoms: C_14  and  C_15
REMARK   10  A    between atoms: N_17  and  C_18
REMARK   11  A    between atoms: C_18  and  C_19
REMARK   12  A    between atoms: C_19  and  C_20
REMARK                            x       y       z     vdW  Elec       q    Type
REMARK                         _______ _______ _______ _____ _____    ______ ____
ROOT
ATOM      1  C   UNL     1       7.445   5.298  18.064  0.00  0.00    +0.000 C 
ATOM      2  O   UNL     1       8.076   4.247  18.031  0.00  0.00    +0.000 OA
ENDROOT
BRANCH   1   3
ATOM      3  C   UNL     1       7.508   6.403  16.998  0.00  0.00    +0.000 C 
ATOM      4  C   UNL     1       7.533   7.756  17.709  0.00  0.00    +0.000 C 
BRANCH   3   5
ATOM      5  O   UNL     1       6.364   6.292  16.150  0.00  0.00    +0.000 OA
BRANCH   5   9
ATOM      6  C   UNL     1       6.136   3.583  12.975  0.00  0.00    +0.000 A 
ATOM      7  C   UNL     1       5.184   3.615  13.997  0.00  0.00    +0.000 A 
ATOM      8  C   UNL     1       5.318   4.527  15.050  0.00  0.00    +0.000 A 
ATOM      9  C   UNL     1       6.407   5.401  15.114  0.00  0.00    +0.000 A 
ATOM     10  C   UNL     1       7.375   5.346  14.112  0.00  0.00    +0.000 A 
ATOM     11  C   UNL     1       7.234   4.448  13.042  0.00  0.00    +0.000 A 
BRANCH   6  13
ATOM     12  C   UNL     1       7.257   2.089  11.188  0.00  0.00    +0.000 C 
ATOM     13  C   UNL     1       6.006   2.672  11.797  0.00  0.00    +0.000 C 
ATOM     14  O   UNL     1       4.894   2.399  11.349  0.00  0.00    +0.000 OA
ENDBRANCH   6  13
ENDBRANCH   5   9
ENDBRANCH   3   5
ENDBRANCH   1   3
BRANCH   1  15
ATOM     15  O   UNL     1       6.512   5.589  19.019  0.00  0.00    +0.000 OA
BRANCH  15  16
ATOM     16  C   UNL     1       5.598   4.515  19.277  0.00  0.00    +0.000 C 
BRANCH  16  17
ATOM     17  C   UNL     1       4.177   4.960  18.914  0.00  0.00    +0.000 C 
ATOM     18  O   UNL     1       3.532   4.429  18.009  0.00  0.00    +0.000 OA
ATOM     19  N   UNL     1       3.683   6.011  19.660  0.00  0.00    +0.000 N 
ATOM     20  H   UNL     1       4.197   6.345  20.465  0.00  0.00    +0.000 HD
BRANCH  19  21
ATOM     21  C   UNL     1       2.343   6.514  19.399  0.00  0.00    +0.000 C 
BRANCH  21  22
ATOM     22  C   UNL     1       2.308   7.604  18.328  0.00  0.00    +0.000 C 
BRANCH  22  23
ATOM     23  C   UNL     1       1.738   8.897  18.861  0.00  0.00    +0.000 A 
ATOM     24  C   UNL     1       1.830  10.078  18.110  0.00  0.00    +0.000 A 
ATOM     25  C   UNL     1       1.326  11.279  18.616  0.00  0.00    +0.000 A 
ATOM     26  C   UNL     1       0.729  11.313  19.875  0.00  0.00    +0.000 A 
ATOM     27  C   UNL     1       0.638  10.146  20.631  0.00  0.00    +0.000 A 
ATOM     28  C   UNL     1       1.141   8.945  20.128  0.00  0.00    +0.000 A 
ENDBRANCH  22  23
ENDBRANCH  21  22
ENDBRANCH  19  21
ENDBRANCH  16  17
ENDBRANCH  15  16
ENDBRANCH   1  15
TORSDOF 10
ENDMDL
