MODEL 1
REMARK VINA RESULT:      -9.0      0.000      0.000
REMARK  Name = 
REMARK  6 active torsions:
REMARK  status: ('A' for Active; 'I' for Inactive)
REMARK    1  A    between atoms: N_1  and  C_2
REMARK    2  A    between atoms: C_2  and  C_3
REMARK    3  A    between atoms: C_2  and  C_10
REMARK    4  A    between atoms: C_3  and  C_4
REMARK    5  A    between atoms: C_13  and  C_15
REMARK    6  A    between atoms: C_18  and  N_19
REMARK                            x       y       z     vdW  Elec       q    Type
REMARK                         _______ _______ _______ _____ _____    ______ ____
ROOT
ATOM      1  C   UNL     1      -0.630  11.686  22.402  0.00  0.00    +0.000 A 
ATOM      2  C   UNL     1       0.223  11.606  21.307  0.00  0.00    +0.000 A 
ATOM      3  C   UNL     1       0.788  10.374  20.948  0.00  0.00    +0.000 A 
ATOM      4  C   UNL     1       0.541   9.191  21.670  0.00  0.00    +0.000 A 
ATOM      5  C   UNL     1      -0.327   9.277  22.764  0.00  0.00    +0.000 A 
ATOM      6  C   UNL     1      -0.891  10.517  23.136  0.00  0.00    +0.000 A 
ENDROOT
BRANCH   4   7
ATOM      7  N   UNL     1       1.148   7.938  21.326  0.00  0.00    +0.000 N 
ATOM      8  C   UNL     1       1.714   7.698  20.096  0.00  0.00    +0.000 C 
ATOM      9  O   UNL     1       1.825   8.564  19.224  0.00  0.00    +0.000 OA
ATOM     10  N   UNL     1       2.186   6.442  19.811  0.00  0.00    +0.000 N 
ATOM     11  C   UNL     1       2.711   6.282  18.459  0.00  0.00    +0.000 C 
ATOM     12  C   UNL     1       3.146   4.864  18.387  0.00  0.00    +0.000 A 
ATOM     13  C   UNL     1       3.730   4.227  17.300  0.00  0.00    +0.000 A 
ATOM     14  C   UNL     1       4.025   2.874  17.418  0.00  0.00    +0.000 A 
ATOM     15  C   UNL     1       3.727   2.201  18.608  0.00  0.00    +0.000 A 
ATOM     16  F   UNL     1       3.997   0.893  18.693  0.00  0.00    +0.000 F 
ATOM     17  C   UNL     1       3.151   2.857  19.708  0.00  0.00    +0.000 A 
ATOM     18  C   UNL     1       2.864   4.209  19.591  0.00  0.00    +0.000 A 
ATOM     19  C   UNL     1       2.269   5.186  20.579  0.00  0.00    +0.000 C 
ATOM     20  H   UNL     1       1.375   7.305  22.079  0.00  0.00    +0.000 HD
ENDBRANCH   4   7
BRANCH   1  24
ATOM     21  C   UNL     1      -3.378  14.140  23.244  0.00  0.00    +0.000 C 
ATOM     22  O   UNL     1      -2.920  15.213  23.628  0.00  0.00    +0.000 OA
ATOM     23  N   UNL     1      -2.625  13.078  22.761  0.00  0.00    +0.000 N 
ATOM     24  C   UNL     1      -1.238  12.986  22.821  0.00  0.00    +0.000 C 
ATOM     25  O   UNL     1      -0.484  13.879  23.189  0.00  0.00    +0.000 OA
ATOM     26  H   UNL     1      -3.169  12.249  22.533  0.00  0.00    +0.000 HD
BRANCH  21  27
ATOM     27  C   UNL     1      -4.910  13.905  23.168  0.00  0.00    +0.000 C 
BRANCH  27  28
ATOM     28  N   UNL     1      -5.594  14.736  24.197  0.00  0.00    +0.000 NA
ATOM     29  H   UNL     1      -5.364  14.322  25.110  0.00  0.00    +0.000 HD
ATOM     30  H   UNL     1      -6.600  14.585  24.113  0.00  0.00    +0.000 HD
ENDBRANCH  27  28
BRANCH  27  31
ATOM     31  C   UNL     1      -5.422  14.172  21.728  0.00  0.00    +0.000 C 
BRANCH  31  32
ATOM     32  C   UNL     1      -5.963  12.963  20.988  0.00  0.00    +0.000 A 
ATOM     33  C   UNL     1      -7.078  12.265  21.478  0.00  0.00    +0.000 A 
ATOM     34  C   UNL     1      -7.585  11.157  20.793  0.00  0.00    +0.000 A 
ATOM     35  C   UNL     1      -6.991  10.739  19.605  0.00  0.00    +0.000 A 
ATOM     36  C   UNL     1      -5.904  11.440  19.091  0.00  0.00    +0.000 A 
ATOM     37  C   UNL     1      -5.397  12.549  19.774  0.00  0.00    +0.000 A 
ENDBRANCH  31  32
ENDBRANCH  27  31
ENDBRANCH  21  27
ENDBRANCH   1  24
TORSDOF 6
ENDMDL
MODEL 2
REMARK VINA RESULT:      -9.0      4.187     11.202
REMARK  Name = 
REMARK  6 active torsions:
REMARK  status: ('A' for Active; 'I' for Inactive)
REMARK    1  A    between atoms: N_1  and  C_2
REMARK    2  A    between atoms: C_2  and  C_3
REMARK    3  A    between atoms: C_2  and  C_10
REMARK    4  A    between atoms: C_3  and  C_4
REMARK    5  A    between atoms: C_13  and  C_15
REMARK    6  A    between atoms: C_18  and  N_19
REMARK                            x       y       z     vdW  Elec       q    Type
REMARK                         _______ _______ _______ _____ _____    ______ ____
ROOT
ATOM      1  C   UNL     1       2.769   7.784  18.169  0.00  0.00    +0.000 A 
ATOM      2  C   UNL     1       2.443   7.327  19.440  0.00  0.00    +0.000 A 
ATOM      3  C   UNL     1       1.606   8.092  20.266  0.00  0.00    +0.000 A 
ATOM      4  C   UNL     1       1.084   9.336  19.867  0.00  0.00    +0.000 A 
ATOM      5  C   UNL     1       1.407   9.784  18.581  0.00  0.00    +0.000 A 
ATOM      6  C   UNL     1       2.258   9.023  17.749  0.00  0.00    +0.000 A 
ENDROOT
BRANCH   4   7
ATOM      7  N   UNL     1       0.259  10.136  20.724  0.00  0.00    +0.000 N 
ATOM      8  C   UNL     1      -0.798  10.882  20.256  0.00  0.00    +0.000 C 
ATOM      9  O   UNL     1      -1.174  10.854  19.080  0.00  0.00    +0.000 OA
ATOM     10  N   UNL     1      -1.477  11.697  21.123  0.00  0.00    +0.000 N 
ATOM     11  C   UNL     1      -2.540  12.487  20.510  0.00  0.00    +0.000 C 
ATOM     12  C   UNL     1      -3.113  13.282  21.626  0.00  0.00    +0.000 A 
ATOM     13  C   UNL     1      -4.168  14.182  21.550  0.00  0.00    +0.000 A 
ATOM     14  C   UNL     1      -4.527  14.864  22.707  0.00  0.00    +0.000 A 
ATOM     15  C   UNL     1      -3.828  14.630  23.896  0.00  0.00    +0.000 A 
ATOM     16  F   UNL     1      -4.175  15.314  24.992  0.00  0.00    +0.000 F 
ATOM     17  C   UNL     1      -2.773  13.706  23.967  0.00  0.00    +0.000 A 
ATOM     18  C   UNL     1      -2.420  13.021  22.813  0.00  0.00    +0.000 A 
ATOM     19  C   UNL     1      -1.361  11.971  22.568  0.00  0.00    +0.000 C 
ATOM     20  H   UNL     1       0.305   9.961  21.717  0.00  0.00    +0.000 HD
ENDBRANCH   4   7
BRANCH   1  24
ATOM     21  C   UNL     1       4.712   4.791  16.924  0.00  0.00    +0.000 C 
ATOM     22  O   UNL     1       5.271   5.030  15.857  0.00  0.00    +0.000 OA
ATOM     23  N   UNL     1       4.014   5.718  17.685  0.00  0.00    +0.000 N 
ATOM     24  C   UNL     1       3.670   7.000  17.268  0.00  0.00    +0.000 C 
ATOM     25  O   UNL     1       4.043   7.532  16.229  0.00  0.00    +0.000 OA
ATOM     26  H   UNL     1       3.576   5.332  18.517  0.00  0.00    +0.000 HD
BRANCH  21  27
ATOM     27  C   UNL     1       4.829   3.395  17.593  0.00  0.00    +0.000 C 
BRANCH  27  28
ATOM     28  N   UNL     1       5.537   3.525  18.897  0.00  0.00    +0.000 NA
ATOM     29  H   UNL     1       5.569   2.582  19.308  0.00  0.00    +0.000 HD
ATOM     30  H   UNL     1       4.934   4.044  19.538  0.00  0.00    +0.000 HD
ENDBRANCH  27  28
BRANCH  27  31
ATOM     31  C   UNL     1       3.427   2.743  17.721  0.00  0.00    +0.000 C 
BRANCH  31  32
ATOM     32  C   UNL     1       2.710   2.982  19.035  0.00  0.00    +0.000 A 
ATOM     33  C   UNL     1       1.516   3.719  19.074  0.00  0.00    +0.000 A 
ATOM     34  C   UNL     1       0.846   3.932  20.283  0.00  0.00    +0.000 A 
ATOM     35  C   UNL     1       1.355   3.401  21.466  0.00  0.00    +0.000 A 
ATOM     36  C   UNL     1       2.521   2.641  21.438  0.00  0.00    +0.000 A 
ATOM     37  C   UNL     1       3.191   2.426  20.230  0.00  0.00    +0.000 A 
ENDBRANCH  31  32
ENDBRANCH  27  31
ENDBRANCH  21  27
ENDBRANCH   1  24
TORSDOF 6
ENDMDL
MODEL 3
REMARK VINA RESULT:      -9.0      0.666      1.311
REMARK  Name = 
REMARK  6 active torsions:
REMARK  status: ('A' for Active; 'I' for Inactive)
REMARK    1  A    between atoms: N_1  and  C_2
REMARK    2  A    between atoms: C_2  and  C_3
REMARK    3  A    between atoms: C_2  and  C_10
REMARK    4  A    between atoms: C_3  and  C_4
REMARK    5  A    between atoms: C_13  and  C_15
REMARK    6  A    between atoms: C_18  and  N_19
REMARK                            x       y       z     vdW  Elec       q    Type
REMARK                         _______ _______ _______ _____ _____    ______ ____
ROOT
ATOM      1  C   UNL     1      -1.161  11.470  22.364  0.00  0.00    +0.000 A 
ATOM      2  C   UNL     1      -0.766  10.531  23.309  0.00  0.00    +0.000 A 
ATOM      3  C   UNL     1      -0.119   9.355  22.900  0.00  0.00    +0.000 A 
ATOM      4  C   UNL     1       0.138   9.067  21.547  0.00  0.00    +0.000 A 
ATOM      5  C   UNL     1      -0.252  10.023  20.602  0.00  0.00    +0.000 A 
ATOM      6  C   UNL     1      -0.913  11.204  21.007  0.00  0.00    +0.000 A 
ENDROOT
BRANCH   4   7
ATOM      7  N   UNL     1       0.766   7.849  21.124  0.00  0.00    +0.000 N 
ATOM      8  C   UNL     1       1.611   7.784  20.041  0.00  0.00    +0.000 C 
ATOM      9  O   UNL     1       1.967   8.779  19.403  0.00  0.00    +0.000 OA
ATOM     10  N   UNL     1       2.094   6.565  19.642  0.00  0.00    +0.000 N 
ATOM     11  C   UNL     1       2.932   6.603  18.448  0.00  0.00    +0.000 C 
ATOM     12  C   UNL     1       3.321   5.189  18.212  0.00  0.00    +0.000 A 
ATOM     13  C   UNL     1       4.134   4.709  17.194  0.00  0.00    +0.000 A 
ATOM     14  C   UNL     1       4.341   3.336  17.118  0.00  0.00    +0.000 A 
ATOM     15  C   UNL     1       3.733   2.490  18.053  0.00  0.00    +0.000 A 
ATOM     16  F   UNL     1       3.927   1.170  17.947  0.00  0.00    +0.000 F 
ATOM     17  C   UNL     1       2.926   2.987  19.088  0.00  0.00    +0.000 A 
ATOM     18  C   UNL     1       2.726   4.357  19.167  0.00  0.00    +0.000 A 
ATOM     19  C   UNL     1       1.939   5.190  20.153  0.00  0.00    +0.000 C 
ATOM     20  H   UNL     1       0.776   7.077  21.774  0.00  0.00    +0.000 HD
ENDBRANCH   4   7
BRANCH   1  24
ATOM     21  C   UNL     1      -4.085  13.721  23.181  0.00  0.00    +0.000 C 
ATOM     22  O   UNL     1      -3.709  14.833  23.541  0.00  0.00    +0.000 OA
ATOM     23  N   UNL     1      -3.256  12.711  22.712  0.00  0.00    +0.000 N 
ATOM     24  C   UNL     1      -1.865  12.728  22.764  0.00  0.00    +0.000 C 
ATOM     25  O   UNL     1      -1.180  13.682  23.109  0.00  0.00    +0.000 OA
ATOM     26  H   UNL     1      -3.735  11.839  22.505  0.00  0.00    +0.000 HD
BRANCH  21  27
ATOM     27  C   UNL     1      -5.595  13.367  23.121  0.00  0.00    +0.000 C 
BRANCH  27  28
ATOM     28  N   UNL     1      -6.310  14.041  24.240  0.00  0.00    +0.000 NA
ATOM     29  H   UNL     1      -6.371  15.038  23.991  0.00  0.00    +0.000 HD
ATOM     30  H   UNL     1      -5.701  14.037  25.058  0.00  0.00    +0.000 HD
ENDBRANCH  27  28
BRANCH  27  31
ATOM     31  C   UNL     1      -6.173  13.721  21.725  0.00  0.00    +0.000 C 
BRANCH  31  32
ATOM     32  C   UNL     1      -6.340  12.555  20.769  0.00  0.00    +0.000 A 
ATOM     33  C   UNL     1      -5.506  12.426  19.647  0.00  0.00    +0.000 A 
ATOM     34  C   UNL     1      -5.651  11.347  18.770  0.00  0.00    +0.000 A 
ATOM     35  C   UNL     1      -6.623  10.378  19.009  0.00  0.00    +0.000 A 
ATOM     36  C   UNL     1      -7.436  10.477  20.134  0.00  0.00    +0.000 A 
ATOM     37  C   UNL     1      -7.291  11.554  21.013  0.00  0.00    +0.000 A 
ENDBRANCH  31  32
ENDBRANCH  27  31
ENDBRANCH  21  27
ENDBRANCH   1  24
TORSDOF 6
ENDMDL
MODEL 4
REMARK VINA RESULT:      -8.9      4.172     11.219
REMARK  Name = 
REMARK  6 active torsions:
REMARK  status: ('A' for Active; 'I' for Inactive)
REMARK    1  A    between atoms: N_1  and  C_2
REMARK    2  A    between atoms: C_2  and  C_3
REMARK    3  A    between atoms: C_2  and  C_10
REMARK    4  A    between atoms: C_3  and  C_4
REMARK    5  A    between atoms: C_13  and  C_15
REMARK    6  A    between atoms: C_18  and  N_19
REMARK                            x       y       z     vdW  Elec       q    Type
REMARK                         _______ _______ _______ _____ _____    ______ ____
ROOT
ATOM      1  C   UNL     1       2.576   8.160  18.281  0.00  0.00    +0.000 A 
ATOM      2  C   UNL     1       2.210   7.684  19.533  0.00  0.00    +0.000 A 
ATOM      3  C   UNL     1       1.380   8.454  20.361  0.00  0.00    +0.000 A 
ATOM      4  C   UNL     1       0.905   9.723  19.982  0.00  0.00    +0.000 A 
ATOM      5  C   UNL     1       1.268  10.192  18.715  0.00  0.00    +0.000 A 
ATOM      6  C   UNL     1       2.112   9.425  17.881  0.00  0.00    +0.000 A 
ENDROOT
BRANCH   4   7
ATOM      7  N   UNL     1       0.086  10.528  20.842  0.00  0.00    +0.000 N 
ATOM      8  C   UNL     1      -1.052  11.164  20.405  0.00  0.00    +0.000 C 
ATOM      9  O   UNL     1      -1.508  11.023  19.267  0.00  0.00    +0.000 OA
ATOM     10  N   UNL     1      -1.726  11.994  21.263  0.00  0.00    +0.000 N 
ATOM     11  C   UNL     1      -2.883  12.663  20.679  0.00  0.00    +0.000 C 
ATOM     12  C   UNL     1      -3.432  13.498  21.778  0.00  0.00    +0.000 A 
ATOM     13  C   UNL     1      -4.552  14.317  21.721  0.00  0.00    +0.000 A 
ATOM     14  C   UNL     1      -4.877  15.057  22.851  0.00  0.00    +0.000 A 
ATOM     15  C   UNL     1      -4.079  14.960  23.997  0.00  0.00    +0.000 A 
ATOM     16  F   UNL     1      -4.396  15.699  25.066  0.00  0.00    +0.000 F 
ATOM     17  C   UNL     1      -2.958  14.117  24.051  0.00  0.00    +0.000 A 
ATOM     18  C   UNL     1      -2.639  13.374  22.924  0.00  0.00    +0.000 A 
ATOM     19  C   UNL     1      -1.527  12.381  22.672  0.00  0.00    +0.000 C 
ATOM     20  H   UNL     1       0.216  10.431  21.838  0.00  0.00    +0.000 HD
ENDBRANCH   4   7
BRANCH   1  24
ATOM     21  C   UNL     1       4.868   5.343  17.235  0.00  0.00    +0.000 C 
ATOM     22  O   UNL     1       5.205   5.450  16.059  0.00  0.00    +0.000 OA
ATOM     23  N   UNL     1       4.119   6.276  17.940  0.00  0.00    +0.000 N 
ATOM     24  C   UNL     1       3.472   7.372  17.378  0.00  0.00    +0.000 C 
ATOM     25  O   UNL     1       3.575   7.736  16.214  0.00  0.00    +0.000 OA
ATOM     26  H   UNL     1       3.894   5.998  18.892  0.00  0.00    +0.000 HD
BRANCH  21  27
ATOM     27  C   UNL     1       5.356   4.151  18.101  0.00  0.00    +0.000 C 
BRANCH  27  28
ATOM     28  N   UNL     1       6.844   4.153  18.161  0.00  0.00    +0.000 NA
ATOM     29  H   UNL     1       7.126   3.222  18.497  0.00  0.00    +0.000 HD
ATOM     30  H   UNL     1       7.133   4.777  18.915  0.00  0.00    +0.000 HD
ENDBRANCH  27  28
BRANCH  27  31
ATOM     31  C   UNL     1       4.689   4.198  19.502  0.00  0.00    +0.000 C 
BRANCH  31  32
ATOM     32  C   UNL     1       3.259   3.694  19.565  0.00  0.00    +0.000 A 
ATOM     33  C   UNL     1       2.363   4.206  20.517  0.00  0.00    +0.000 A 
ATOM     34  C   UNL     1       1.042   3.752  20.570  0.00  0.00    +0.000 A 
ATOM     35  C   UNL     1       0.597   2.788  19.669  0.00  0.00    +0.000 A 
ATOM     36  C   UNL     1       1.466   2.295  18.700  0.00  0.00    +0.000 A 
ATOM     37  C   UNL     1       2.787   2.749  18.643  0.00  0.00    +0.000 A 
ENDBRANCH  31  32
ENDBRANCH  27  31
ENDBRANCH  21  27
ENDBRANCH   1  24
TORSDOF 6
ENDMDL
MODEL 5
REMARK VINA RESULT:      -8.9      5.412     11.694
REMARK  Name = 
REMARK  6 active torsions:
REMARK  status: ('A' for Active; 'I' for Inactive)
REMARK    1  A    between atoms: N_1  and  C_2
REMARK    2  A    between atoms: C_2  and  C_3
REMARK    3  A    between atoms: C_2  and  C_10
REMARK    4  A    between atoms: C_3  and  C_4
REMARK    5  A    between atoms: C_13  and  C_15
REMARK    6  A    between atoms: C_18  and  N_19
REMARK                            x       y       z     vdW  Elec       q    Type
REMARK                         _______ _______ _______ _____ _____    ______ ____
ROOT
ATOM      1  C   UNL     1       1.878   6.832  20.086  0.00  0.00    +0.000 A 
ATOM      2  C   UNL     1       1.159   7.592  21.001  0.00  0.00    +0.000 A 
ATOM      3  C   UNL     1       0.849   8.929  20.711  0.00  0.00    +0.000 A 
ATOM      4  C   UNL     1       1.255   9.556  19.519  0.00  0.00    +0.000 A 
ATOM      5  C   UNL     1       1.969   8.782  18.598  0.00  0.00    +0.000 A 
ATOM      6  C   UNL     1       2.293   7.438  18.889  0.00  0.00    +0.000 A 
ENDROOT
BRANCH   4   7
ATOM      7  N   UNL     1       0.971  10.934  19.238  0.00  0.00    +0.000 N 
ATOM      8  C   UNL     1       1.090  11.926  20.183  0.00  0.00    +0.000 C 
ATOM      9  O   UNL     1       1.532  11.727  21.318  0.00  0.00    +0.000 OA
ATOM     10  N   UNL     1       0.706  13.203  19.863  0.00  0.00    +0.000 N 
ATOM     11  C   UNL     1       0.817  14.163  20.956  0.00  0.00    +0.000 C 
ATOM     12  C   UNL     1       0.345  15.448  20.380  0.00  0.00    +0.000 A 
ATOM     13  C   UNL     1       0.275  16.674  21.029  0.00  0.00    +0.000 A 
ATOM     14  C   UNL     1      -0.242  17.755  20.325  0.00  0.00    +0.000 A 
ATOM     15  C   UNL     1      -0.672  17.582  19.004  0.00  0.00    +0.000 A 
ATOM     16  F   UNL     1      -1.188  18.630  18.352  0.00  0.00    +0.000 F 
ATOM     17  C   UNL     1      -0.582  16.342  18.352  0.00  0.00    +0.000 A 
ATOM     18  C   UNL     1      -0.060  15.266  19.054  0.00  0.00    +0.000 A 
ATOM     19  C   UNL     1       0.180  13.832  18.638  0.00  0.00    +0.000 C 
ATOM     20  H   UNL     1       0.915  11.212  18.270  0.00  0.00    +0.000 HD
ENDBRANCH   4   7
BRANCH   1  24
ATOM     21  C   UNL     1       3.259   3.382  19.401  0.00  0.00    +0.000 C 
ATOM     22  O   UNL     1       3.195   2.666  20.396  0.00  0.00    +0.000 OA
ATOM     23  N   UNL     1       2.735   4.664  19.304  0.00  0.00    +0.000 N 
ATOM     24  C   UNL     1       2.238   5.408  20.369  0.00  0.00    +0.000 C 
ATOM     25  O   UNL     1       2.075   4.992  21.510  0.00  0.00    +0.000 OA
ATOM     26  H   UNL     1       2.923   5.127  18.418  0.00  0.00    +0.000 HD
BRANCH  21  27
ATOM     27  C   UNL     1       3.867   2.854  18.074  0.00  0.00    +0.000 C 
BRANCH  27  28
ATOM     28  N   UNL     1       3.066   1.700  17.581  0.00  0.00    +0.000 NA
ATOM     29  H   UNL     1       3.041   1.011  18.346  0.00  0.00    +0.000 HD
ATOM     30  H   UNL     1       3.600   1.227  16.852  0.00  0.00    +0.000 HD
ENDBRANCH  27  28
BRANCH  27  31
ATOM     31  C   UNL     1       3.979   4.006  17.040  0.00  0.00    +0.000 C 
BRANCH  31  32
ATOM     32  C   UNL     1       5.175   4.924  17.205  0.00  0.00    +0.000 A 
ATOM     33  C   UNL     1       5.088   6.280  16.857  0.00  0.00    +0.000 A 
ATOM     34  C   UNL     1       6.186   7.131  17.019  0.00  0.00    +0.000 A 
ATOM     35  C   UNL     1       7.380   6.640  17.540  0.00  0.00    +0.000 A 
ATOM     36  C   UNL     1       7.470   5.303  17.919  0.00  0.00    +0.000 A 
ATOM     37  C   UNL     1       6.373   4.452  17.760  0.00  0.00    +0.000 A 
ENDBRANCH  31  32
ENDBRANCH  27  31
ENDBRANCH  21  27
ENDBRANCH   1  24
TORSDOF 6
ENDMDL
MODEL 6
REMARK VINA RESULT:      -8.8      4.160     11.161
REMARK  Name = 
REMARK  6 active torsions:
REMARK  status: ('A' for Active; 'I' for Inactive)
REMARK    1  A    between atoms: N_1  and  C_2
REMARK    2  A    between atoms: C_2  and  C_3
REMARK    3  A    between atoms: C_2  and  C_10
REMARK    4  A    between atoms: C_3  and  C_4
REMARK    5  A    between atoms: C_13  and  C_15
REMARK    6  A    between atoms: C_18  and  N_19
REMARK                            x       y       z     vdW  Elec       q    Type
REMARK                         _______ _______ _______ _____ _____    ______ ____
ROOT
ATOM      1  C   UNL     1       2.956   7.656  18.070  0.00  0.00    +0.000 A 
ATOM      2  C   UNL     1       2.448   8.862  17.603  0.00  0.00    +0.000 A 
ATOM      3  C   UNL     1       1.601   9.628  18.417  0.00  0.00    +0.000 A 
ATOM      4  C   UNL     1       1.219   9.216  19.707  0.00  0.00    +0.000 A 
ATOM      5  C   UNL     1       1.743   8.006  20.176  0.00  0.00    +0.000 A 
ATOM      6  C   UNL     1       2.588   7.226  19.356  0.00  0.00    +0.000 A 
ENDROOT
BRANCH   4   7
ATOM      7  N   UNL     1       0.323   9.980  20.526  0.00  0.00    +0.000 N 
ATOM      8  C   UNL     1      -0.702  10.734  20.005  0.00  0.00    +0.000 C 
ATOM      9  O   UNL     1      -0.989  10.745  18.805  0.00  0.00    +0.000 OA
ATOM     10  N   UNL     1      -1.454  11.513  20.847  0.00  0.00    +0.000 N 
ATOM     11  C   UNL     1      -2.474  12.317  20.182  0.00  0.00    +0.000 C 
ATOM     12  C   UNL     1      -3.138  13.067  21.279  0.00  0.00    +0.000 A 
ATOM     13  C   UNL     1      -4.193  13.963  21.154  0.00  0.00    +0.000 A 
ATOM     14  C   UNL     1      -4.645  14.600  22.303  0.00  0.00    +0.000 A 
ATOM     15  C   UNL     1      -4.035  14.330  23.533  0.00  0.00    +0.000 A 
ATOM     16  F   UNL     1      -4.471  14.972  24.623  0.00  0.00    +0.000 F 
ATOM     17  C   UNL     1      -2.980  13.411  23.651  0.00  0.00    +0.000 A 
ATOM     18  C   UNL     1      -2.534  12.770  22.505  0.00  0.00    +0.000 A 
ATOM     19  C   UNL     1      -1.449  11.736  22.304  0.00  0.00    +0.000 C 
ATOM     20  H   UNL     1       0.296   9.770  21.513  0.00  0.00    +0.000 HD
ENDBRANCH   4   7
BRANCH   1  24
ATOM     21  C   UNL     1       4.814   4.549  16.987  0.00  0.00    +0.000 C 
ATOM     22  O   UNL     1       5.411   4.728  15.929  0.00  0.00    +0.000 OA
ATOM     23  N   UNL     1       4.132   5.529  17.695  0.00  0.00    +0.000 N 
ATOM     24  C   UNL     1       3.850   6.807  17.223  0.00  0.00    +0.000 C 
ATOM     25  O   UNL     1       4.271   7.286  16.177  0.00  0.00    +0.000 OA
ATOM     26  H   UNL     1       3.656   5.190  18.527  0.00  0.00    +0.000 HD
BRANCH  21  27
ATOM     27  C   UNL     1       4.859   3.175  17.708  0.00  0.00    +0.000 C 
BRANCH  27  28
ATOM     28  N   UNL     1       5.502   3.332  19.042  0.00  0.00    +0.000 NA
ATOM     29  H   UNL     1       5.578   4.344  19.214  0.00  0.00    +0.000 HD
ATOM     30  H   UNL     1       6.474   3.030  18.966  0.00  0.00    +0.000 HD
ENDBRANCH  27  28
BRANCH  27  31
ATOM     31  C   UNL     1       3.434   2.564  17.786  0.00  0.00    +0.000 C 
BRANCH  31  32
ATOM     32  C   UNL     1       2.668   2.845  19.064  0.00  0.00    +0.000 A 
ATOM     33  C   UNL     1       3.101   2.313  20.289  0.00  0.00    +0.000 A 
ATOM     34  C   UNL     1       2.403   2.580  21.470  0.00  0.00    +0.000 A 
ATOM     35  C   UNL     1       1.270   3.389  21.445  0.00  0.00    +0.000 A 
ATOM     36  C   UNL     1       0.848   3.950  20.243  0.00  0.00    +0.000 A 
ATOM     37  C   UNL     1       1.546   3.686  19.061  0.00  0.00    +0.000 A 
ENDBRANCH  31  32
ENDBRANCH  27  31
ENDBRANCH  21  27
ENDBRANCH   1  24
TORSDOF 6
ENDMDL
MODEL 7
REMARK VINA RESULT:      -8.7      4.435     12.151
REMARK  Name = 
REMARK  6 active torsions:
REMARK  status: ('A' for Active; 'I' for Inactive)
REMARK    1  A    between atoms: N_1  and  C_2
REMARK    2  A    between atoms: C_2  and  C_3
REMARK    3  A    between atoms: C_2  and  C_10
REMARK    4  A    between atoms: C_3  and  C_4
REMARK    5  A    between atoms: C_13  and  C_15
REMARK    6  A    between atoms: C_18  and  N_19
REMARK                            x       y       z     vdW  Elec       q    Type
REMARK                         _______ _______ _______ _____ _____    ______ ____
ROOT
ATOM      1  C   UNL     1       2.687   6.774  19.563  0.00  0.00    +0.000 A 
ATOM      2  C   UNL     1       2.586   7.711  18.542  0.00  0.00    +0.000 A 
ATOM      3  C   UNL     1       1.733   8.815  18.687  0.00  0.00    +0.000 A 
ATOM      4  C   UNL     1       0.944   9.014  19.835  0.00  0.00    +0.000 A 
ATOM      5  C   UNL     1       1.060   8.073  20.864  0.00  0.00    +0.000 A 
ATOM      6  C   UNL     1       1.909   6.953  20.720  0.00  0.00    +0.000 A 
ENDROOT
BRANCH   4   7
ATOM      7  N   UNL     1       0.044  10.122  19.969  0.00  0.00    +0.000 N 
ATOM      8  C   UNL     1       0.266  11.160  20.843  0.00  0.00    +0.000 C 
ATOM      9  O   UNL     1       1.296  11.267  21.515  0.00  0.00    +0.000 OA
ATOM     10  N   UNL     1      -0.690  12.133  20.983  0.00  0.00    +0.000 N 
ATOM     11  C   UNL     1      -0.379  13.153  21.979  0.00  0.00    +0.000 C 
ATOM     12  C   UNL     1      -1.544  14.073  21.955  0.00  0.00    +0.000 A 
ATOM     13  C   UNL     1      -1.715  15.219  22.721  0.00  0.00    +0.000 A 
ATOM     14  C   UNL     1      -2.906  15.923  22.584  0.00  0.00    +0.000 A 
ATOM     15  C   UNL     1      -3.883  15.466  21.693  0.00  0.00    +0.000 A 
ATOM     16  F   UNL     1      -5.032  16.146  21.594  0.00  0.00    +0.000 F 
ATOM     17  C   UNL     1      -3.695  14.316  20.911  0.00  0.00    +0.000 A 
ATOM     18  C   UNL     1      -2.504  13.617  21.044  0.00  0.00    +0.000 A 
ATOM     19  C   UNL     1      -1.998  12.375  20.348  0.00  0.00    +0.000 C 
ATOM     20  H   UNL     1      -0.640  10.261  19.240  0.00  0.00    +0.000 HD
ENDBRANCH   4   7
BRANCH   1  24
ATOM     21  C   UNL     1       5.763   4.800  18.602  0.00  0.00    +0.000 C 
ATOM     22  O   UNL     1       5.691   3.637  18.989  0.00  0.00    +0.000 OA
ATOM     23  N   UNL     1       4.748   5.742  18.706  0.00  0.00    +0.000 N 
ATOM     24  C   UNL     1       3.576   5.577  19.437  0.00  0.00    +0.000 C 
ATOM     25  O   UNL     1       3.219   4.539  19.981  0.00  0.00    +0.000 OA
ATOM     26  H   UNL     1       5.002   6.669  18.375  0.00  0.00    +0.000 HD
BRANCH  21  27
ATOM     27  C   UNL     1       7.014   5.312  17.837  0.00  0.00    +0.000 C 
BRANCH  27  28
ATOM     28  N   UNL     1       7.915   4.167  17.532  0.00  0.00    +0.000 NA
ATOM     29  H   UNL     1       7.434   3.593  16.826  0.00  0.00    +0.000 HD
ATOM     30  H   UNL     1       7.948   3.558  18.351  0.00  0.00    +0.000 HD
ENDBRANCH  27  28
BRANCH  27  31
ATOM     31  C   UNL     1       6.583   6.103  16.574  0.00  0.00    +0.000 C 
BRANCH  31  32
ATOM     32  C   UNL     1       6.453   5.288  15.301  0.00  0.00    +0.000 A 
ATOM     33  C   UNL     1       7.456   5.329  14.320  0.00  0.00    +0.000 A 
ATOM     34  C   UNL     1       7.343   4.570  13.151  0.00  0.00    +0.000 A 
ATOM     35  C   UNL     1       6.233   3.753  12.953  0.00  0.00    +0.000 A 
ATOM     36  C   UNL     1       5.246   3.678  13.931  0.00  0.00    +0.000 A 
ATOM     37  C   UNL     1       5.358   4.434  15.101  0.00  0.00    +0.000 A 
ENDBRANCH  31  32
ENDBRANCH  27  31
ENDBRANCH  21  27
ENDBRANCH   1  24
TORSDOF 6
ENDMDL
MODEL 8
REMARK VINA RESULT:      -8.7      4.460     11.170
REMARK  Name = 
REMARK  6 active torsions:
REMARK  status: ('A' for Active; 'I' for Inactive)
REMARK    1  A    between atoms: N_1  and  C_2
REMARK    2  A    between atoms: C_2  and  C_3
REMARK    3  A    between atoms: C_2  and  C_10
REMARK    4  A    between atoms: C_3  and  C_4
REMARK    5  A    between atoms: C_13  and  C_15
REMARK    6  A    between atoms: C_18  and  N_19
REMARK                            x       y       z     vdW  Elec       q    Type
REMARK                         _______ _______ _______ _____ _____    ______ ____
ROOT
ATOM      1  C   UNL     1       2.920   7.795  17.937  0.00  0.00    +0.000 A 
ATOM      2  C   UNL     1       2.426   9.004  17.461  0.00  0.00    +0.000 A 
ATOM      3  C   UNL     1       1.588   9.785  18.269  0.00  0.00    +0.000 A 
ATOM      4  C   UNL     1       1.200   9.386  19.561  0.00  0.00    +0.000 A 
ATOM      5  C   UNL     1       1.709   8.173  20.039  0.00  0.00    +0.000 A 
ATOM      6  C   UNL     1       2.546   7.377  19.225  0.00  0.00    +0.000 A 
ENDROOT
BRANCH   4   7
ATOM      7  N   UNL     1       0.313  10.166  20.375  0.00  0.00    +0.000 N 
ATOM      8  C   UNL     1       0.570  11.473  20.714  0.00  0.00    +0.000 C 
ATOM      9  O   UNL     1       1.536  12.106  20.277  0.00  0.00    +0.000 OA
ATOM     10  N   UNL     1      -0.278  12.120  21.576  0.00  0.00    +0.000 N 
ATOM     11  C   UNL     1       0.122  13.482  21.915  0.00  0.00    +0.000 C 
ATOM     12  C   UNL     1      -0.928  13.963  22.849  0.00  0.00    +0.000 A 
ATOM     13  C   UNL     1      -1.001  15.215  23.445  0.00  0.00    +0.000 A 
ATOM     14  C   UNL     1      -2.045  15.456  24.331  0.00  0.00    +0.000 A 
ATOM     15  C   UNL     1      -2.976  14.446  24.596  0.00  0.00    +0.000 A 
ATOM     16  F   UNL     1      -3.959  14.690  25.471  0.00  0.00    +0.000 F 
ATOM     17  C   UNL     1      -2.903  13.188  23.978  0.00  0.00    +0.000 A 
ATOM     18  C   UNL     1      -1.865  12.952  23.088  0.00  0.00    +0.000 A 
ATOM     19  C   UNL     1      -1.524  11.732  22.263  0.00  0.00    +0.000 C 
ATOM     20  H   UNL     1      -0.629   9.826  20.500  0.00  0.00    +0.000 HD
ENDBRANCH   4   7
BRANCH   1  24
ATOM     21  C   UNL     1       4.811   4.684  16.922  0.00  0.00    +0.000 C 
ATOM     22  O   UNL     1       5.369   4.831  15.838  0.00  0.00    +0.000 OA
ATOM     23  N   UNL     1       4.130   5.679  17.611  0.00  0.00    +0.000 N 
ATOM     24  C   UNL     1       3.805   6.930  17.096  0.00  0.00    +0.000 C 
ATOM     25  O   UNL     1       4.181   7.373  16.018  0.00  0.00    +0.000 OA
ATOM     26  H   UNL     1       3.690   5.365  18.472  0.00  0.00    +0.000 HD
BRANCH  21  27
ATOM     27  C   UNL     1       4.909   3.343  17.697  0.00  0.00    +0.000 C 
BRANCH  27  28
ATOM     28  N   UNL     1       5.546   3.579  19.023  0.00  0.00    +0.000 NA
ATOM     29  H   UNL     1       5.205   4.492  19.354  0.00  0.00    +0.000 HD
ATOM     30  H   UNL     1       6.544   3.736  18.875  0.00  0.00    +0.000 HD
ENDBRANCH  27  28
BRANCH  27  31
ATOM     31  C   UNL     1       3.510   2.681  17.802  0.00  0.00    +0.000 C 
BRANCH  31  32
ATOM     32  C   UNL     1       2.752   2.946  19.089  0.00  0.00    +0.000 A 
ATOM     33  C   UNL     1       1.585   3.724  19.083  0.00  0.00    +0.000 A 
ATOM     34  C   UNL     1       0.878   3.961  20.266  0.00  0.00    +0.000 A 
ATOM     35  C   UNL     1       1.324   3.414  21.467  0.00  0.00    +0.000 A 
ATOM     36  C   UNL     1       2.463   2.614  21.482  0.00  0.00    +0.000 A 
ATOM     37  C   UNL     1       3.169   2.375  20.300  0.00  0.00    +0.000 A 
ENDBRANCH  31  32
ENDBRANCH  27  31
ENDBRANCH  21  27
ENDBRANCH   1  24
TORSDOF 6
ENDMDL
MODEL 9
REMARK VINA RESULT:      -8.7      4.401     11.222
REMARK  Name = 
REMARK  6 active torsions:
REMARK  status: ('A' for Active; 'I' for Inactive)
REMARK    1  A    between atoms: N_1  and  C_2
REMARK    2  A    between atoms: C_2  and  C_3
REMARK    3  A    between atoms: C_2  and  C_10
REMARK    4  A    between atoms: C_3  and  C_4
REMARK    5  A    between atoms: C_13  and  C_15
REMARK    6  A    between atoms: C_18  and  N_19
REMARK                            x       y       z     vdW  Elec       q    Type
REMARK                         _______ _______ _______ _____ _____    ______ ____
ROOT
ATOM      1  C   UNL     1       2.622   8.133  18.112  0.00  0.00    +0.000 A 
ATOM      2  C   UNL     1       2.282   7.786  19.414  0.00  0.00    +0.000 A 
ATOM      3  C   UNL     1       1.387   8.585  20.140  0.00  0.00    +0.000 A 
ATOM      4  C   UNL     1       0.818   9.756  19.608  0.00  0.00    +0.000 A 
ATOM      5  C   UNL     1       1.156  10.094  18.293  0.00  0.00    +0.000 A 
ATOM      6  C   UNL     1       2.065   9.299  17.560  0.00  0.00    +0.000 A 
ENDROOT
BRANCH   4   7
ATOM      7  N   UNL     1      -0.069  10.594  20.363  0.00  0.00    +0.000 N 
ATOM      8  C   UNL     1       0.339  11.764  20.959  0.00  0.00    +0.000 C 
ATOM      9  O   UNL     1       1.473  12.232  20.819  0.00  0.00    +0.000 OA
ATOM     10  N   UNL     1      -0.544  12.458  21.744  0.00  0.00    +0.000 N 
ATOM     11  C   UNL     1       0.011  13.652  22.375  0.00  0.00    +0.000 C 
ATOM     12  C   UNL     1      -1.111  14.218  23.166  0.00  0.00    +0.000 A 
ATOM     13  C   UNL     1      -1.085  15.372  23.939  0.00  0.00    +0.000 A 
ATOM     14  C   UNL     1      -2.234  15.709  24.645  0.00  0.00    +0.000 A 
ATOM     15  C   UNL     1      -3.365  14.891  24.561  0.00  0.00    +0.000 A 
ATOM     16  F   UNL     1      -4.453  15.222  25.267  0.00  0.00    +0.000 F 
ATOM     17  C   UNL     1      -3.388  13.735  23.765  0.00  0.00    +0.000 A 
ATOM     18  C   UNL     1      -2.243  13.403  23.055  0.00  0.00    +0.000 A 
ATOM     19  C   UNL     1      -1.956  12.254  22.115  0.00  0.00    +0.000 C 
ATOM     20  H   UNL     1      -1.061  10.445  20.254  0.00  0.00    +0.000 HD
ENDBRANCH   4   7
BRANCH   1  24
ATOM     21  C   UNL     1       5.032   5.316  17.379  0.00  0.00    +0.000 C 
ATOM     22  O   UNL     1       5.433   5.358  16.219  0.00  0.00    +0.000 OA
ATOM     23  N   UNL     1       4.224   6.272  17.980  0.00  0.00    +0.000 N 
ATOM     24  C   UNL     1       3.585   7.313  17.313  0.00  0.00    +0.000 C 
ATOM     25  O   UNL     1       3.746   7.605  16.135  0.00  0.00    +0.000 OA
ATOM     26  H   UNL     1       3.951   6.049  18.933  0.00  0.00    +0.000 HD
BRANCH  21  27
ATOM     27  C   UNL     1       5.497   4.194  18.346  0.00  0.00    +0.000 C 
BRANCH  27  28
ATOM     28  N   UNL     1       6.974   4.264  18.518  0.00  0.00    +0.000 NA
ATOM     29  H   UNL     1       7.386   3.723  17.746  0.00  0.00    +0.000 HD
ATOM     30  H   UNL     1       7.226   3.724  19.347  0.00  0.00    +0.000 HD
ENDBRANCH  27  28
BRANCH  27  31
ATOM     31  C   UNL     1       4.721   4.287  19.686  0.00  0.00    +0.000 C 
BRANCH  31  32
ATOM     32  C   UNL     1       3.289   3.787  19.652  0.00  0.00    +0.000 A 
ATOM     33  C   UNL     1       2.932   2.696  18.845  0.00  0.00    +0.000 A 
ATOM     34  C   UNL     1       1.615   2.226  18.820  0.00  0.00    +0.000 A 
ATOM     35  C   UNL     1       0.642   2.834  19.608  0.00  0.00    +0.000 A 
ATOM     36  C   UNL     1       0.988   3.897  20.438  0.00  0.00    +0.000 A 
ATOM     37  C   UNL     1       2.304   4.366  20.465  0.00  0.00    +0.000 A 
ENDBRANCH  31  32
ENDBRANCH  27  31
ENDBRANCH  21  27
ENDBRANCH   1  24
TORSDOF 6
ENDMDL
