MODEL 1
REMARK VINA RESULT:      -7.5      0.000      0.000
REMARK  Name = 
REMARK  6 active torsions:
REMARK  status: ('A' for Active; 'I' for Inactive)
REMARK    1  A    between atoms: C_1  and  C_2
REMARK    2  A    between atoms: C_2  and  N_3
REMARK    3  A    between atoms: C_6  and  C_7
REMARK    4  A    between atoms: N_9  and  C_10
REMARK    5  A    between atoms: N_19  and  C_20
REMARK    6  A    between atoms: C_20  and  C_21
REMARK                            x       y       z     vdW  Elec       q    Type
REMARK                         _______ _______ _______ _____ _____    ______ ____
ROOT
ATOM      1  N   UNL     1       2.311   6.109  20.398  0.00  0.00    +0.000 NA
ATOM      2  C   UNL     1       2.803   5.303  19.525  0.00  0.00    +0.000 C 
ATOM      3  S   UNL     1       3.000   5.675  17.843  0.00  0.00    +0.000 S 
ATOM      4  C   UNL     1       4.773   5.360  17.756  0.00  0.00    +0.000 C 
ATOM      5  C   UNL     1       5.050   3.933  18.196  0.00  0.00    +0.000 C 
ATOM      6  C   UNL     1       4.393   3.460  19.477  0.00  0.00    +0.000 C 
ATOM      7  O   UNL     1       4.930   2.557  20.124  0.00  0.00    +0.000 OA
ATOM      8  N   UNL     1       3.176   4.014  19.850  0.00  0.00    +0.000 N 
ENDROOT
BRANCH   4   9
ATOM      9  C   UNL     1       5.161   5.567  16.288  0.00  0.00    +0.000 C 
ATOM     10  O   UNL     1       5.135   6.677  15.754  0.00  0.00    +0.000 OA
ATOM     11  N   UNL     1       5.551   4.397  15.644  0.00  0.00    +0.000 N 
ATOM     12  H   UNL     1       5.223   3.514  16.016  0.00  0.00    +0.000 HD
BRANCH  11  13
ATOM     13  C   UNL     1       6.152   4.382  14.375  0.00  0.00    +0.000 A 
ATOM     14  C   UNL     1       7.294   5.137  14.090  0.00  0.00    +0.000 A 
ATOM     15  C   UNL     1       7.861   5.098  12.815  0.00  0.00    +0.000 A 
ATOM     16  C   UNL     1       7.270   4.329  11.815  0.00  0.00    +0.000 A 
ATOM     17  C   UNL     1       6.137   3.566  12.101  0.00  0.00    +0.000 A 
ATOM     18  C   UNL     1       5.598   3.566  13.390  0.00  0.00    +0.000 A 
ENDBRANCH  11  13
ENDBRANCH   4   9
BRANCH   1  20
ATOM     19  C   UNL     1       1.225   8.198  21.051  0.00  0.00    +0.000 C 
ATOM     20  C   UNL     1       2.038   7.491  19.984  0.00  0.00    +0.000 C 
ENDBRANCH   1  20
BRANCH   8  21
ATOM     21  C   UNL     1       2.316   3.232  20.732  0.00  0.00    +0.000 C 
ATOM     22  C   UNL     1       0.963   2.831  20.178  0.00  0.00    +0.000 C 
ENDBRANCH   8  21
TORSDOF 4
ENDMDL
MODEL 2
REMARK VINA RESULT:      -7.4      0.112      1.059
REMARK  Name = 
REMARK  6 active torsions:
REMARK  status: ('A' for Active; 'I' for Inactive)
REMARK    1  A    between atoms: C_1  and  C_2
REMARK    2  A    between atoms: C_2  and  N_3
REMARK    3  A    between atoms: C_6  and  C_7
REMARK    4  A    between atoms: N_9  and  C_10
REMARK    5  A    between atoms: N_19  and  C_20
REMARK    6  A    between atoms: C_20  and  C_21
REMARK                            x       y       z     vdW  Elec       q    Type
REMARK                         _______ _______ _______ _____ _____    ______ ____
ROOT
ATOM      1  N   UNL     1       2.313   6.067  20.476  0.00  0.00    +0.000 NA
ATOM      2  C   UNL     1       2.788   5.251  19.602  0.00  0.00    +0.000 C 
ATOM      3  S   UNL     1       2.938   5.600  17.911  0.00  0.00    +0.000 S 
ATOM      4  C   UNL     1       4.710   5.295  17.781  0.00  0.00    +0.000 C 
ATOM      5  C   UNL     1       5.009   3.877  18.235  0.00  0.00    +0.000 C 
ATOM      6  C   UNL     1       4.389   3.419  19.540  0.00  0.00    +0.000 C 
ATOM      7  O   UNL     1       4.950   2.529  20.186  0.00  0.00    +0.000 OA
ATOM      8  N   UNL     1       3.179   3.970  19.937  0.00  0.00    +0.000 N 
ENDROOT
BRANCH   4   9
ATOM      9  C   UNL     1       5.058   5.483  16.300  0.00  0.00    +0.000 C 
ATOM     10  O   UNL     1       4.963   6.575  15.739  0.00  0.00    +0.000 OA
ATOM     11  N   UNL     1       5.495   4.318  15.679  0.00  0.00    +0.000 N 
ATOM     12  H   UNL     1       5.222   3.429  16.080  0.00  0.00    +0.000 HD
BRANCH  11  13
ATOM     13  C   UNL     1       6.071   4.300  14.398  0.00  0.00    +0.000 A 
ATOM     14  C   UNL     1       5.530   3.539  13.356  0.00  0.00    +0.000 A 
ATOM     15  C   UNL     1       6.133   3.543  12.097  0.00  0.00    +0.000 A 
ATOM     16  C   UNL     1       7.294   4.284  11.886  0.00  0.00    +0.000 A 
ATOM     17  C   UNL     1       7.828   5.052  12.921  0.00  0.00    +0.000 A 
ATOM     18  C   UNL     1       7.197   5.087  14.167  0.00  0.00    +0.000 A 
ENDBRANCH  11  13
ENDBRANCH   4   9
BRANCH   1  20
ATOM     19  C   UNL     1       1.210   8.152  21.117  0.00  0.00    +0.000 C 
ATOM     20  C   UNL     1       2.019   7.441  20.049  0.00  0.00    +0.000 C 
ENDBRANCH   1  20
BRANCH   8  21
ATOM     21  C   UNL     1       2.348   3.195  20.852  0.00  0.00    +0.000 C 
ATOM     22  C   UNL     1       0.959   2.833  20.365  0.00  0.00    +0.000 C 
ENDBRANCH   8  21
TORSDOF 4
ENDMDL
MODEL 3
REMARK VINA RESULT:      -7.0      1.033      1.043
REMARK  Name = 
REMARK  6 active torsions:
REMARK  status: ('A' for Active; 'I' for Inactive)
REMARK    1  A    between atoms: C_1  and  C_2
REMARK    2  A    between atoms: C_2  and  N_3
REMARK    3  A    between atoms: C_6  and  C_7
REMARK    4  A    between atoms: N_9  and  C_10
REMARK    5  A    between atoms: N_19  and  C_20
REMARK    6  A    between atoms: C_20  and  C_21
REMARK                            x       y       z     vdW  Elec       q    Type
REMARK                         _______ _______ _______ _____ _____    ______ ____
ROOT
ATOM      1  N   UNL     1       2.180   6.214  19.713  0.00  0.00    +0.000 NA
ATOM      2  C   UNL     1       2.780   5.240  19.125  0.00  0.00    +0.000 C 
ATOM      3  S   UNL     1       3.633   5.375  17.621  0.00  0.00    +0.000 S 
ATOM      4  C   UNL     1       5.220   4.758  18.215  0.00  0.00    +0.000 C 
ATOM      5  C   UNL     1       5.032   3.366  18.793  0.00  0.00    +0.000 C 
ATOM      6  C   UNL     1       3.881   3.164  19.759  0.00  0.00    +0.000 C 
ATOM      7  O   UNL     1       3.961   2.266  20.601  0.00  0.00    +0.000 OA
ATOM      8  N   UNL     1       2.748   3.954  19.626  0.00  0.00    +0.000 N 
ENDROOT
BRANCH   4   9
ATOM      9  C   UNL     1       6.139   4.724  16.989  0.00  0.00    +0.000 C 
ATOM     10  O   UNL     1       7.359   4.596  17.089  0.00  0.00    +0.000 OA
ATOM     11  N   UNL     1       5.459   4.837  15.781  0.00  0.00    +0.000 N 
ATOM     12  H   UNL     1       4.547   5.276  15.783  0.00  0.00    +0.000 HD
BRANCH  11  13
ATOM     13  C   UNL     1       6.065   4.612  14.533  0.00  0.00    +0.000 A 
ATOM     14  C   UNL     1       7.236   5.274  14.152  0.00  0.00    +0.000 A 
ATOM     15  C   UNL     1       7.807   5.027  12.902  0.00  0.00    +0.000 A 
ATOM     16  C   UNL     1       7.192   4.140  12.021  0.00  0.00    +0.000 A 
ATOM     17  C   UNL     1       6.030   3.471  12.405  0.00  0.00    +0.000 A 
ATOM     18  C   UNL     1       5.486   3.681  13.674  0.00  0.00    +0.000 A 
ENDBRANCH  11  13
ENDBRANCH   4   9
BRANCH   1  20
ATOM     19  C   UNL     1       1.470   8.544  19.910  0.00  0.00    +0.000 C 
ATOM     20  C   UNL     1       2.353   7.564  19.162  0.00  0.00    +0.000 C 
ENDBRANCH   1  20
BRANCH   8  21
ATOM     21  C   UNL     1       1.493   3.436  20.159  0.00  0.00    +0.000 C 
ATOM     22  C   UNL     1       0.610   2.670  19.194  0.00  0.00    +0.000 C 
ENDBRANCH   8  21
TORSDOF 4
ENDMDL
MODEL 4
REMARK VINA RESULT:      -6.9      1.034      1.484
REMARK  Name = 
REMARK  6 active torsions:
REMARK  status: ('A' for Active; 'I' for Inactive)
REMARK    1  A    between atoms: C_1  and  C_2
REMARK    2  A    between atoms: C_2  and  N_3
REMARK    3  A    between atoms: C_6  and  C_7
REMARK    4  A    between atoms: N_9  and  C_10
REMARK    5  A    between atoms: N_19  and  C_20
REMARK    6  A    between atoms: C_20  and  C_21
REMARK                            x       y       z     vdW  Elec       q    Type
REMARK                         _______ _______ _______ _____ _____    ______ ____
ROOT
ATOM      1  N   UNL     1       2.266   6.090  19.765  0.00  0.00    +0.000 NA
ATOM      2  C   UNL     1       2.858   5.115  19.170  0.00  0.00    +0.000 C 
ATOM      3  S   UNL     1       3.669   5.241  17.643  0.00  0.00    +0.000 S 
ATOM      4  C   UNL     1       5.276   4.642  18.200  0.00  0.00    +0.000 C 
ATOM      5  C   UNL     1       5.114   3.255  18.797  0.00  0.00    +0.000 C 
ATOM      6  C   UNL     1       3.991   3.054  19.795  0.00  0.00    +0.000 C 
ATOM      7  O   UNL     1       4.101   2.165  20.644  0.00  0.00    +0.000 OA
ATOM      8  N   UNL     1       2.849   3.834  19.685  0.00  0.00    +0.000 N 
ENDROOT
BRANCH   4   9
ATOM      9  C   UNL     1       6.162   4.602  16.950  0.00  0.00    +0.000 C 
ATOM     10  O   UNL     1       7.380   4.438  17.016  0.00  0.00    +0.000 OA
ATOM     11  N   UNL     1       5.455   4.754  15.762  0.00  0.00    +0.000 N 
ATOM     12  H   UNL     1       4.556   5.219  15.795  0.00  0.00    +0.000 HD
BRANCH  11  13
ATOM     13  C   UNL     1       6.022   4.533  14.496  0.00  0.00    +0.000 A 
ATOM     14  C   UNL     1       5.480   3.610  13.596  0.00  0.00    +0.000 A 
ATOM     15  C   UNL     1       6.074   3.414  12.347  0.00  0.00    +0.000 A 
ATOM     16  C   UNL     1       7.227   4.119  12.010  0.00  0.00    +0.000 A 
ATOM     17  C   UNL     1       7.762   5.048  12.903  0.00  0.00    +0.000 A 
ATOM     18  C   UNL     1       7.140   5.279  14.132  0.00  0.00    +0.000 A 
ENDBRANCH  11  13
ENDBRANCH   4   9
BRANCH   1  20
ATOM     19  C   UNL     1       1.559   8.421  19.970  0.00  0.00    +0.000 C 
ATOM     20  C   UNL     1       2.414   7.436  19.195  0.00  0.00    +0.000 C 
ENDBRANCH   1  20
BRANCH   8  21
ATOM     21  C   UNL     1       1.612   3.312  20.257  0.00  0.00    +0.000 C 
ATOM     22  C   UNL     1       0.602   2.741  19.282  0.00  0.00    +0.000 C 
ENDBRANCH   8  21
TORSDOF 4
ENDMDL
MODEL 5
REMARK VINA RESULT:      -6.4      3.465      7.154
REMARK  Name = 
REMARK  6 active torsions:
REMARK  status: ('A' for Active; 'I' for Inactive)
REMARK    1  A    between atoms: C_1  and  C_2
REMARK    2  A    between atoms: C_2  and  N_3
REMARK    3  A    between atoms: C_6  and  C_7
REMARK    4  A    between atoms: N_9  and  C_10
REMARK    5  A    between atoms: N_19  and  C_20
REMARK    6  A    between atoms: C_20  and  C_21
REMARK                            x       y       z     vdW  Elec       q    Type
REMARK                         _______ _______ _______ _____ _____    ______ ____
ROOT
ATOM      1  N   UNL     1       6.003   4.375  18.775  0.00  0.00    +0.000 NA
ATOM      2  C   UNL     1       4.736   4.560  18.897  0.00  0.00    +0.000 C 
ATOM      3  S   UNL     1       4.009   5.989  19.557  0.00  0.00    +0.000 S 
ATOM      4  C   UNL     1       2.980   6.388  18.131  0.00  0.00    +0.000 C 
ATOM      5  C   UNL     1       2.068   5.213  17.828  0.00  0.00    +0.000 C 
ATOM      6  C   UNL     1       2.700   3.837  17.777  0.00  0.00    +0.000 C 
ATOM      7  O   UNL     1       2.169   2.962  17.087  0.00  0.00    +0.000 OA
ATOM      8  N   UNL     1       3.821   3.585  18.556  0.00  0.00    +0.000 N 
ENDROOT
BRANCH   4   9
ATOM      9  C   UNL     1       2.169   7.624  18.536  0.00  0.00    +0.000 C 
ATOM     10  O   UNL     1       1.667   8.379  17.703  0.00  0.00    +0.000 OA
ATOM     11  N   UNL     1       2.052   7.786  19.912  0.00  0.00    +0.000 N 
ATOM     12  H   UNL     1       2.751   7.358  20.507  0.00  0.00    +0.000 HD
BRANCH  11  13
ATOM     13  C   UNL     1       1.179   8.713  20.506  0.00  0.00    +0.000 A 
ATOM     14  C   UNL     1       1.073  10.029  20.043  0.00  0.00    +0.000 A 
ATOM     15  C   UNL     1       0.196  10.922  20.661  0.00  0.00    +0.000 A 
ATOM     16  C   UNL     1      -0.553  10.510  21.761  0.00  0.00    +0.000 A 
ATOM     17  C   UNL     1      -0.457   9.196  22.217  0.00  0.00    +0.000 A 
ATOM     18  C   UNL     1       0.384   8.288  21.568  0.00  0.00    +0.000 A 
ENDBRANCH  11  13
ENDBRANCH   4   9
BRANCH   1  20
ATOM     19  C   UNL     1       7.409   6.106  17.773  0.00  0.00    +0.000 C 
ATOM     20  C   UNL     1       6.896   5.505  19.068  0.00  0.00    +0.000 C 
ENDBRANCH   1  20
BRANCH   8  21
ATOM     21  C   UNL     1       4.098   2.199  18.919  0.00  0.00    +0.000 C 
ATOM     22  C   UNL     1       4.391   1.926  20.381  0.00  0.00    +0.000 C 
ENDBRANCH   8  21
TORSDOF 4
ENDMDL
MODEL 6
REMARK VINA RESULT:      -6.4      4.962      7.428
REMARK  Name = 
REMARK  6 active torsions:
REMARK  status: ('A' for Active; 'I' for Inactive)
REMARK    1  A    between atoms: C_1  and  C_2
REMARK    2  A    between atoms: C_2  and  N_3
REMARK    3  A    between atoms: C_6  and  C_7
REMARK    4  A    between atoms: N_9  and  C_10
REMARK    5  A    between atoms: N_19  and  C_20
REMARK    6  A    between atoms: C_20  and  C_21
REMARK                            x       y       z     vdW  Elec       q    Type
REMARK                         _______ _______ _______ _____ _____    ______ ____
ROOT
ATOM      1  N   UNL     1       1.410  12.344  19.713  0.00  0.00    +0.000 NA
ATOM      2  C   UNL     1       0.914  11.209  20.059  0.00  0.00    +0.000 C 
ATOM      3  S   UNL     1       1.012   9.762  19.110  0.00  0.00    +0.000 S 
ATOM      4  C   UNL     1       1.808   8.735  20.360  0.00  0.00    +0.000 C 
ATOM      5  C   UNL     1       0.940   8.700  21.606  0.00  0.00    +0.000 C 
ATOM      6  C   UNL     1       0.415  10.023  22.126  0.00  0.00    +0.000 C 
ATOM      7  O   UNL     1       0.150  10.129  23.326  0.00  0.00    +0.000 OA
ATOM      8  N   UNL     1       0.191  11.055  21.225  0.00  0.00    +0.000 N 
ENDROOT
BRANCH   4   9
ATOM      9  C   UNL     1       1.931   7.340  19.737  0.00  0.00    +0.000 C 
ATOM     10  O   UNL     1       2.192   7.177  18.545  0.00  0.00    +0.000 OA
ATOM     11  N   UNL     1       1.734   6.305  20.645  0.00  0.00    +0.000 N 
ATOM     12  H   UNL     1       1.198   6.497  21.482  0.00  0.00    +0.000 HD
BRANCH  11  13
ATOM     13  C   UNL     1       2.012   4.960  20.350  0.00  0.00    +0.000 A 
ATOM     14  C   UNL     1       3.321   4.499  20.176  0.00  0.00    +0.000 A 
ATOM     15  C   UNL     1       3.558   3.155  19.880  0.00  0.00    +0.000 A 
ATOM     16  C   UNL     1       2.486   2.278  19.728  0.00  0.00    +0.000 A 
ATOM     17  C   UNL     1       1.181   2.734  19.913  0.00  0.00    +0.000 A 
ATOM     18  C   UNL     1       0.946   4.068  20.258  0.00  0.00    +0.000 A 
ENDBRANCH  11  13
ENDBRANCH   4   9
BRANCH   1  20
ATOM     19  C   UNL     1       2.880  13.763  18.371  0.00  0.00    +0.000 C 
ATOM     20  C   UNL     1       2.250  12.390  18.508  0.00  0.00    +0.000 C 
ENDBRANCH   1  20
BRANCH   8  21
ATOM     21  C   UNL     1      -0.772  12.086  21.600  0.00  0.00    +0.000 C 
ATOM     22  C   UNL     1      -1.980  12.246  20.699  0.00  0.00    +0.000 C 
ENDBRANCH   8  21
TORSDOF 4
ENDMDL
MODEL 7
REMARK VINA RESULT:      -6.3      2.876      7.194
REMARK  Name = 
REMARK  6 active torsions:
REMARK  status: ('A' for Active; 'I' for Inactive)
REMARK    1  A    between atoms: C_1  and  C_2
REMARK    2  A    between atoms: C_2  and  N_3
REMARK    3  A    between atoms: C_6  and  C_7
REMARK    4  A    between atoms: N_9  and  C_10
REMARK    5  A    between atoms: N_19  and  C_20
REMARK    6  A    between atoms: C_20  and  C_21
REMARK                            x       y       z     vdW  Elec       q    Type
REMARK                         _______ _______ _______ _____ _____    ______ ____
ROOT
ATOM      1  N   UNL     1       4.196   3.285  17.891  0.00  0.00    +0.000 NA
ATOM      2  C   UNL     1       3.877   4.458  17.468  0.00  0.00    +0.000 C 
ATOM      3  S   UNL     1       2.455   5.324  17.951  0.00  0.00    +0.000 S 
ATOM      4  C   UNL     1       3.296   6.800  18.559  0.00  0.00    +0.000 C 
ATOM      5  C   UNL     1       4.134   7.394  17.442  0.00  0.00    +0.000 C 
ATOM      6  C   UNL     1       5.021   6.447  16.658  0.00  0.00    +0.000 C 
ATOM      7  O   UNL     1       6.037   6.893  16.117  0.00  0.00    +0.000 OA
ATOM      8  N   UNL     1       4.632   5.122  16.523  0.00  0.00    +0.000 N 
ENDROOT
BRANCH   4   9
ATOM      9  C   UNL     1       2.184   7.765  18.986  0.00  0.00    +0.000 C 
ATOM     10  O   UNL     1       1.730   7.776  20.130  0.00  0.00    +0.000 OA
ATOM     11  N   UNL     1       1.766   8.617  17.969  0.00  0.00    +0.000 N 
ATOM     12  H   UNL     1       1.918   8.329  17.010  0.00  0.00    +0.000 HD
BRANCH  11  13
ATOM     13  C   UNL     1       0.924   9.720  18.187  0.00  0.00    +0.000 A 
ATOM     14  C   UNL     1      -0.450   9.661  17.933  0.00  0.00    +0.000 A 
ATOM     15  C   UNL     1      -1.254  10.780  18.159  0.00  0.00    +0.000 A 
ATOM     16  C   UNL     1      -0.681  11.967  18.611  0.00  0.00    +0.000 A 
ATOM     17  C   UNL     1       0.687  12.023  18.875  0.00  0.00    +0.000 A 
ATOM     18  C   UNL     1       1.484  10.890  18.696  0.00  0.00    +0.000 A 
ENDBRANCH  11  13
ENDBRANCH   4   9
BRANCH   1  20
ATOM     19  C   UNL     1       4.271   2.410  20.172  0.00  0.00    +0.000 C 
ATOM     20  C   UNL     1       3.391   2.700  18.971  0.00  0.00    +0.000 C 
ENDBRANCH   1  20
BRANCH   8  21
ATOM     21  C   UNL     1       5.155   4.374  15.384  0.00  0.00    +0.000 C 
ATOM     22  C   UNL     1       6.617   3.976  15.449  0.00  0.00    +0.000 C 
ENDBRANCH   8  21
TORSDOF 4
ENDMDL
MODEL 8
REMARK VINA RESULT:      -6.3      2.936      7.166
REMARK  Name = 
REMARK  6 active torsions:
REMARK  status: ('A' for Active; 'I' for Inactive)
REMARK    1  A    between atoms: C_1  and  C_2
REMARK    2  A    between atoms: C_2  and  N_3
REMARK    3  A    between atoms: C_6  and  C_7
REMARK    4  A    between atoms: N_9  and  C_10
REMARK    5  A    between atoms: N_19  and  C_20
REMARK    6  A    between atoms: C_20  and  C_21
REMARK                            x       y       z     vdW  Elec       q    Type
REMARK                         _______ _______ _______ _____ _____    ______ ____
ROOT
ATOM      1  N   UNL     1       4.326   3.414  18.131  0.00  0.00    +0.000 NA
ATOM      2  C   UNL     1       3.930   4.534  17.639  0.00  0.00    +0.000 C 
ATOM      3  S   UNL     1       2.496   5.374  18.134  0.00  0.00    +0.000 S 
ATOM      4  C   UNL     1       3.297   6.928  18.579  0.00  0.00    +0.000 C 
ATOM      5  C   UNL     1       4.046   7.468  17.373  0.00  0.00    +0.000 C 
ATOM      6  C   UNL     1       4.933   6.501  16.615  0.00  0.00    +0.000 C 
ATOM      7  O   UNL     1       5.896   6.946  15.983  0.00  0.00    +0.000 OA
ATOM      8  N   UNL     1       4.600   5.154  16.603  0.00  0.00    +0.000 N 
ENDROOT
BRANCH   4   9
ATOM      9  C   UNL     1       2.166   7.876  18.993  0.00  0.00    +0.000 C 
ATOM     10  O   UNL     1       1.672   7.851  20.121  0.00  0.00    +0.000 OA
ATOM     11  N   UNL     1       1.779   8.754  17.987  0.00  0.00    +0.000 N 
ATOM     12  H   UNL     1       1.966   8.494  17.026  0.00  0.00    +0.000 HD
BRANCH  11  13
ATOM     13  C   UNL     1       0.923   9.846  18.206  0.00  0.00    +0.000 A 
ATOM     14  C   UNL     1       1.396  11.065  18.703  0.00  0.00    +0.000 A 
ATOM     15  C   UNL     1       0.514  12.127  18.912  0.00  0.00    +0.000 A 
ATOM     16  C   UNL     1      -0.845  11.962  18.654  0.00  0.00    +0.000 A 
ATOM     17  C   UNL     1      -1.315  10.751  18.148  0.00  0.00    +0.000 A 
ATOM     18  C   UNL     1      -0.426   9.704  17.892  0.00  0.00    +0.000 A 
ENDBRANCH  11  13
ENDBRANCH   4   9
BRANCH   1  20
ATOM     19  C   UNL     1       2.596   1.845  18.849  0.00  0.00    +0.000 C 
ATOM     20  C   UNL     1       3.609   2.881  19.296  0.00  0.00    +0.000 C 
ENDBRANCH   1  20
BRANCH   8  21
ATOM     21  C   UNL     1       5.097   4.341  15.497  0.00  0.00    +0.000 C 
ATOM     22  C   UNL     1       6.579   4.024  15.501  0.00  0.00    +0.000 C 
ENDBRANCH   8  21
TORSDOF 4
ENDMDL
MODEL 9
REMARK VINA RESULT:      -6.3      3.284      6.726
REMARK  Name = 
REMARK  6 active torsions:
REMARK  status: ('A' for Active; 'I' for Inactive)
REMARK    1  A    between atoms: C_1  and  C_2
REMARK    2  A    between atoms: C_2  and  N_3
REMARK    3  A    between atoms: C_6  and  C_7
REMARK    4  A    between atoms: N_9  and  C_10
REMARK    5  A    between atoms: N_19  and  C_20
REMARK    6  A    between atoms: C_20  and  C_21
REMARK                            x       y       z     vdW  Elec       q    Type
REMARK                         _______ _______ _______ _____ _____    ______ ____
ROOT
ATOM      1  N   UNL     1       5.960   4.286  18.106  0.00  0.00    +0.000 NA
ATOM      2  C   UNL     1       4.746   4.487  18.481  0.00  0.00    +0.000 C 
ATOM      3  S   UNL     1       4.198   5.900  19.323  0.00  0.00    +0.000 S 
ATOM      4  C   UNL     1       2.920   6.375  18.142  0.00  0.00    +0.000 C 
ATOM      5  C   UNL     1       1.937   5.229  17.979  0.00  0.00    +0.000 C 
ATOM      6  C   UNL     1       2.513   3.846  17.754  0.00  0.00    +0.000 C 
ATOM      7  O   UNL     1       1.836   3.010  17.149  0.00  0.00    +0.000 OA
ATOM      8  N   UNL     1       3.758   3.543  18.289  0.00  0.00    +0.000 N 
ENDROOT
BRANCH   4   9
ATOM      9  C   UNL     1       2.234   7.607  18.744  0.00  0.00    +0.000 C 
ATOM     10  O   UNL     1       2.099   7.752  19.959  0.00  0.00    +0.000 OA
ATOM     11  N   UNL     1       1.805   8.526  17.792  0.00  0.00    +0.000 N 
ATOM     12  H   UNL     1       1.633   8.195  16.850  0.00  0.00    +0.000 HD
BRANCH  11  13
ATOM     13  C   UNL     1       1.353   9.815  18.118  0.00  0.00    +0.000 A 
ATOM     14  C   UNL     1       0.005  10.080  18.383  0.00  0.00    +0.000 A 
ATOM     15  C   UNL     1      -0.407  11.376  18.699  0.00  0.00    +0.000 A 
ATOM     16  C   UNL     1       0.522  12.413  18.722  0.00  0.00    +0.000 A 
ATOM     17  C   UNL     1       1.868  12.149  18.469  0.00  0.00    +0.000 A 
ATOM     18  C   UNL     1       2.289  10.843  18.201  0.00  0.00    +0.000 A 
ENDBRANCH  11  13
ENDBRANCH   4   9
BRANCH   1  20
ATOM     19  C   UNL     1       7.093   6.110  16.938  0.00  0.00    +0.000 C 
ATOM     20  C   UNL     1       6.920   5.387  18.260  0.00  0.00    +0.000 C 
ENDBRANCH   1  20
BRANCH   8  21
ATOM     21  C   UNL     1       4.066   2.138  18.538  0.00  0.00    +0.000 C 
ATOM     22  C   UNL     1       4.392   1.759  19.969  0.00  0.00    +0.000 C 
ENDBRANCH   8  21
TORSDOF 4
ENDMDL
