MODEL 1
REMARK VINA RESULT:      -7.5      0.000      0.000
REMARK  Name = 
REMARK  5 active torsions:
REMARK  status: ('A' for Active; 'I' for Inactive)
REMARK    1  A    between atoms: C_2  and  C_21
REMARK    2  A    between atoms: N_3  and  C_4
REMARK    3  A    between atoms: C_4  and  N_6
REMARK    4  A    between atoms: N_9  and  C_10
REMARK    5  A    between atoms: C_13  and  N_14
REMARK                            x       y       z     vdW  Elec       q    Type
REMARK                         _______ _______ _______ _____ _____    ______ ____
ROOT
ATOM      1  N   UNL     1       0.865   9.321  19.620  0.00  0.00    +0.000 N 
ATOM      2  C   UNL     1       1.556   8.406  20.545  0.00  0.00    +0.000 C 
ATOM      3  C   UNL     1       1.889   7.062  19.884  0.00  0.00    +0.000 C 
ATOM      4  N   UNL     1       2.637   7.302  18.639  0.00  0.00    +0.000 N 
ATOM      5  C   UNL     1       1.948   8.183  17.676  0.00  0.00    +0.000 C 
ATOM      6  C   UNL     1       1.582   9.531  18.351  0.00  0.00    +0.000 C 
ENDROOT
BRANCH   4   7
ATOM      7  C   UNL     1       3.811   6.642  18.357  0.00  0.00    +0.000 A 
ATOM      8  C   UNL     1       4.580   6.937  17.220  0.00  0.00    +0.000 A 
ATOM      9  C   UNL     1       5.800   6.294  16.969  0.00  0.00    +0.000 A 
ATOM     10  C   UNL     1       6.271   5.334  17.867  0.00  0.00    +0.000 A 
ATOM     11  C   UNL     1       5.528   5.008  18.999  0.00  0.00    +0.000 A 
ATOM     12  C   UNL     1       4.312   5.660  19.230  0.00  0.00    +0.000 A 
BRANCH  10  13
ATOM     13  N   UNL     1       7.565   4.678  17.636  0.00  0.00    +0.000 N 
ATOM     14  O   UNL     1       7.872   4.407  16.467  0.00  0.00    +0.000 OA
ATOM     15  O   UNL     1       8.272   4.430  18.625  0.00  0.00    +0.000 OA
ENDBRANCH  10  13
ENDBRANCH   4   7
BRANCH   1  16
ATOM     16  C   UNL     1      -0.115  10.164  20.101  0.00  0.00    +0.000 C 
ATOM     17  S   UNL     1      -0.063  10.937  21.585  0.00  0.00    +0.000 S 
BRANCH  16  20
ATOM     18  O   UNL     1      -0.765  12.464  18.471  0.00  0.00    +0.000 OA
ATOM     19  C   UNL     1      -1.490  11.474  18.522  0.00  0.00    +0.000 C 
ATOM     20  N   UNL     1      -1.220  10.352  19.298  0.00  0.00    +0.000 N 
ATOM     21  H   UNL     1      -2.011   9.751  19.488  0.00  0.00    +0.000 HD
BRANCH  19  22
ATOM     22  C   UNL     1      -2.723  11.424  17.772  0.00  0.00    +0.000 A 
ATOM     23  C   UNL     1      -4.015  11.657  18.203  0.00  0.00    +0.000 A 
ATOM     24  C   UNL     1      -4.856  11.486  17.082  0.00  0.00    +0.000 A 
ATOM     25  C   UNL     1      -4.027  11.161  16.032  0.00  0.00    +0.000 A 
ATOM     26  O   UNL     1      -2.730  11.120  16.440  0.00  0.00    +0.000 OA
ENDBRANCH  19  22
ENDBRANCH  16  20
ENDBRANCH   1  16
TORSDOF 5
ENDMDL
MODEL 2
REMARK VINA RESULT:      -7.4      3.600      9.208
REMARK  Name = 
REMARK  5 active torsions:
REMARK  status: ('A' for Active; 'I' for Inactive)
REMARK    1  A    between atoms: C_2  and  C_21
REMARK    2  A    between atoms: N_3  and  C_4
REMARK    3  A    between atoms: C_4  and  N_6
REMARK    4  A    between atoms: N_9  and  C_10
REMARK    5  A    between atoms: C_13  and  N_14
REMARK                            x       y       z     vdW  Elec       q    Type
REMARK                         _______ _______ _______ _____ _____    ______ ____
ROOT
ATOM      1  N   UNL     1       5.152   5.611  17.855  0.00  0.00    +0.000 N 
ATOM      2  C   UNL     1       4.928   7.021  17.496  0.00  0.00    +0.000 C 
ATOM      3  C   UNL     1       3.436   7.374  17.451  0.00  0.00    +0.000 C 
ATOM      4  N   UNL     1       2.806   6.994  18.726  0.00  0.00    +0.000 N 
ATOM      5  C   UNL     1       2.979   5.574  19.090  0.00  0.00    +0.000 C 
ATOM      6  C   UNL     1       4.486   5.206  19.105  0.00  0.00    +0.000 C 
ENDROOT
BRANCH   4   7
ATOM      7  C   UNL     1       2.010   7.866  19.433  0.00  0.00    +0.000 A 
ATOM      8  C   UNL     1       1.657   7.637  20.772  0.00  0.00    +0.000 A 
ATOM      9  C   UNL     1       0.887   8.557  21.498  0.00  0.00    +0.000 A 
ATOM     10  C   UNL     1       0.456   9.733  20.882  0.00  0.00    +0.000 A 
ATOM     11  C   UNL     1       0.778   9.986  19.550  0.00  0.00    +0.000 A 
ATOM     12  C   UNL     1       1.544   9.054  18.843  0.00  0.00    +0.000 A 
BRANCH  10  13
ATOM     13  N   UNL     1      -0.320  10.723  21.641  0.00  0.00    +0.000 N 
ATOM     14  O   UNL     1      -1.114  11.435  21.012  0.00  0.00    +0.000 OA
ATOM     15  O   UNL     1      -0.132  10.789  22.865  0.00  0.00    +0.000 OA
ENDBRANCH  10  13
ENDBRANCH   4   7
BRANCH   1  16
ATOM     16  C   UNL     1       6.197   4.918  17.279  0.00  0.00    +0.000 C 
ATOM     17  S   UNL     1       7.689   4.674  17.997  0.00  0.00    +0.000 S 
BRANCH  16  20
ATOM     18  O   UNL     1       7.577   5.618  14.836  0.00  0.00    +0.000 OA
ATOM     19  C   UNL     1       6.681   4.778  14.862  0.00  0.00    +0.000 C 
ATOM     20  N   UNL     1       5.986   4.419  16.011  0.00  0.00    +0.000 N 
ATOM     21  H   UNL     1       5.099   3.959  15.860  0.00  0.00    +0.000 HD
BRANCH  19  22
ATOM     22  C   UNL     1       6.262   4.109  13.652  0.00  0.00    +0.000 A 
ATOM     23  C   UNL     1       4.988   3.768  13.241  0.00  0.00    +0.000 A 
ATOM     24  C   UNL     1       5.119   3.137  11.985  0.00  0.00    +0.000 A 
ATOM     25  C   UNL     1       6.467   3.133  11.702  0.00  0.00    +0.000 A 
ATOM     26  O   UNL     1       7.170   3.720  12.708  0.00  0.00    +0.000 OA
ENDBRANCH  19  22
ENDBRANCH  16  20
ENDBRANCH   1  16
TORSDOF 5
ENDMDL
MODEL 3
REMARK VINA RESULT:      -7.2      3.545      9.166
REMARK  Name = 
REMARK  5 active torsions:
REMARK  status: ('A' for Active; 'I' for Inactive)
REMARK    1  A    between atoms: C_2  and  C_21
REMARK    2  A    between atoms: N_3  and  C_4
REMARK    3  A    between atoms: C_4  and  N_6
REMARK    4  A    between atoms: N_9  and  C_10
REMARK    5  A    between atoms: C_13  and  N_14
REMARK                            x       y       z     vdW  Elec       q    Type
REMARK                         _______ _______ _______ _____ _____    ______ ____
ROOT
ATOM      1  N   UNL     1       5.106   5.656  17.830  0.00  0.00    +0.000 N 
ATOM      2  C   UNL     1       4.832   7.033  17.386  0.00  0.00    +0.000 C 
ATOM      3  C   UNL     1       3.332   7.353  17.391  0.00  0.00    +0.000 C 
ATOM      4  N   UNL     1       2.773   7.050  18.720  0.00  0.00    +0.000 N 
ATOM      5  C   UNL     1       2.996   5.663  19.171  0.00  0.00    +0.000 C 
ATOM      6  C   UNL     1       4.510   5.328  19.137  0.00  0.00    +0.000 C 
ENDROOT
BRANCH   4   7
ATOM      7  C   UNL     1       1.992   7.954  19.403  0.00  0.00    +0.000 A 
ATOM      8  C   UNL     1       1.482   9.111  18.793  0.00  0.00    +0.000 A 
ATOM      9  C   UNL     1       0.646  10.001  19.483  0.00  0.00    +0.000 A 
ATOM     10  C   UNL     1       0.307   9.738  20.812  0.00  0.00    +0.000 A 
ATOM     11  C   UNL     1       0.807   8.605  21.453  0.00  0.00    +0.000 A 
ATOM     12  C   UNL     1       1.641   7.732  20.746  0.00  0.00    +0.000 A 
BRANCH  10  13
ATOM     13  N   UNL     1      -0.595  10.641  21.537  0.00  0.00    +0.000 N 
ATOM     14  O   UNL     1      -0.748  10.450  22.751  0.00  0.00    +0.000 OA
ATOM     15  O   UNL     1      -1.155  11.540  20.890  0.00  0.00    +0.000 OA
ENDBRANCH  10  13
ENDBRANCH   4   7
BRANCH   1  16
ATOM     16  C   UNL     1       6.137   4.945  17.252  0.00  0.00    +0.000 C 
ATOM     17  S   UNL     1       7.625   4.673  17.968  0.00  0.00    +0.000 S 
BRANCH  16  20
ATOM     18  O   UNL     1       7.575   5.568  14.821  0.00  0.00    +0.000 OA
ATOM     19  C   UNL     1       6.639   4.773  14.841  0.00  0.00    +0.000 C 
ATOM     20  N   UNL     1       5.916   4.452  15.984  0.00  0.00    +0.000 N 
ATOM     21  H   UNL     1       5.009   4.034  15.825  0.00  0.00    +0.000 HD
BRANCH  19  22
ATOM     22  C   UNL     1       6.201   4.120  13.629  0.00  0.00    +0.000 A 
ATOM     23  C   UNL     1       6.956   3.635  12.578  0.00  0.00    +0.000 A 
ATOM     24  C   UNL     1       6.051   3.084  11.645  0.00  0.00    +0.000 A 
ATOM     25  C   UNL     1       4.797   3.262  12.184  0.00  0.00    +0.000 A 
ATOM     26  O   UNL     1       4.876   3.890  13.388  0.00  0.00    +0.000 OA
ENDBRANCH  19  22
ENDBRANCH  16  20
ENDBRANCH   1  16
TORSDOF 5
ENDMDL
MODEL 4
REMARK VINA RESULT:      -7.1      2.331      2.988
REMARK  Name = 
REMARK  5 active torsions:
REMARK  status: ('A' for Active; 'I' for Inactive)
REMARK    1  A    between atoms: C_2  and  C_21
REMARK    2  A    between atoms: N_3  and  C_4
REMARK    3  A    between atoms: C_4  and  N_6
REMARK    4  A    between atoms: N_9  and  C_10
REMARK    5  A    between atoms: C_13  and  N_14
REMARK                            x       y       z     vdW  Elec       q    Type
REMARK                         _______ _______ _______ _____ _____    ______ ____
ROOT
ATOM      1  N   UNL     1       0.262  10.369  19.245  0.00  0.00    +0.000 N 
ATOM      2  C   UNL     1       0.812   9.692  18.059  0.00  0.00    +0.000 C 
ATOM      3  C   UNL     1       2.124   8.959  18.370  0.00  0.00    +0.000 C 
ATOM      4  N   UNL     1       1.918   8.053  19.512  0.00  0.00    +0.000 N 
ATOM      5  C   UNL     1       1.407   8.714  20.728  0.00  0.00    +0.000 C 
ATOM      6  C   UNL     1       0.096   9.481  20.408  0.00  0.00    +0.000 C 
ENDROOT
BRANCH   4   7
ATOM      7  C   UNL     1       2.307   6.734  19.472  0.00  0.00    +0.000 A 
ATOM      8  C   UNL     1       3.124   6.227  18.449  0.00  0.00    +0.000 A 
ATOM      9  C   UNL     1       3.556   4.893  18.444  0.00  0.00    +0.000 A 
ATOM     10  C   UNL     1       3.169   4.039  19.479  0.00  0.00    +0.000 A 
ATOM     11  C   UNL     1       2.347   4.506  20.503  0.00  0.00    +0.000 A 
ATOM     12  C   UNL     1       1.926   5.839  20.487  0.00  0.00    +0.000 A 
BRANCH  10  13
ATOM     13  N   UNL     1       3.643   2.649  19.506  0.00  0.00    +0.000 N 
ATOM     14  O   UNL     1       2.901   1.779  19.032  0.00  0.00    +0.000 OA
ATOM     15  O   UNL     1       4.757   2.429  20.006  0.00  0.00    +0.000 OA
ENDBRANCH  10  13
ENDBRANCH   4   7
BRANCH   1  16
ATOM     16  C   UNL     1      -0.383  11.580  19.101  0.00  0.00    +0.000 C 
ATOM     17  S   UNL     1       0.388  13.057  18.946  0.00  0.00    +0.000 S 
BRANCH  16  20
ATOM     18  O   UNL     1      -2.186  11.483  16.841  0.00  0.00    +0.000 OA
ATOM     19  C   UNL     1      -2.592  11.498  18.000  0.00  0.00    +0.000 C 
ATOM     20  N   UNL     1      -1.762  11.554  19.114  0.00  0.00    +0.000 N 
ATOM     21  H   UNL     1      -2.201  11.859  19.972  0.00  0.00    +0.000 HD
BRANCH  19  22
ATOM     22  C   UNL     1      -4.008  11.486  18.286  0.00  0.00    +0.000 A 
ATOM     23  C   UNL     1      -5.041  10.931  17.554  0.00  0.00    +0.000 A 
ATOM     24  C   UNL     1      -6.231  11.189  18.267  0.00  0.00    +0.000 A 
ATOM     25  C   UNL     1      -5.855  11.883  19.394  0.00  0.00    +0.000 A 
ATOM     26  O   UNL     1      -4.507  12.070  19.416  0.00  0.00    +0.000 OA
ENDBRANCH  19  22
ENDBRANCH  16  20
ENDBRANCH   1  16
TORSDOF 5
ENDMDL
MODEL 5
REMARK VINA RESULT:      -6.9      2.394      3.114
REMARK  Name = 
REMARK  5 active torsions:
REMARK  status: ('A' for Active; 'I' for Inactive)
REMARK    1  A    between atoms: C_2  and  C_21
REMARK    2  A    between atoms: N_3  and  C_4
REMARK    3  A    between atoms: C_4  and  N_6
REMARK    4  A    between atoms: N_9  and  C_10
REMARK    5  A    between atoms: C_13  and  N_14
REMARK                            x       y       z     vdW  Elec       q    Type
REMARK                         _______ _______ _______ _____ _____    ______ ____
ROOT
ATOM      1  N   UNL     1       0.242  10.315  19.424  0.00  0.00    +0.000 N 
ATOM      2  C   UNL     1       0.743   9.715  18.176  0.00  0.00    +0.000 C 
ATOM      3  C   UNL     1       2.059   8.955  18.390  0.00  0.00    +0.000 C 
ATOM      4  N   UNL     1       1.886   7.975  19.476  0.00  0.00    +0.000 N 
ATOM      5  C   UNL     1       1.424   8.557  20.752  0.00  0.00    +0.000 C 
ATOM      6  C   UNL     1       0.110   9.352  20.531  0.00  0.00    +0.000 C 
ENDROOT
BRANCH   4   7
ATOM      7  C   UNL     1       2.262   6.660  19.335  0.00  0.00    +0.000 A 
ATOM      8  C   UNL     1       2.066   5.714  20.354  0.00  0.00    +0.000 A 
ATOM      9  C   UNL     1       2.407   4.364  20.181  0.00  0.00    +0.000 A 
ATOM     10  C   UNL     1       2.955   3.941  18.968  0.00  0.00    +0.000 A 
ATOM     11  C   UNL     1       3.174   4.856  17.940  0.00  0.00    +0.000 A 
ATOM     12  C   UNL     1       2.829   6.198  18.134  0.00  0.00    +0.000 A 
BRANCH  10  13
ATOM     13  N   UNL     1       3.283   2.525  18.760  0.00  0.00    +0.000 N 
ATOM     14  O   UNL     1       2.769   1.952  17.791  0.00  0.00    +0.000 OA
ATOM     15  O   UNL     1       4.054   1.986  19.569  0.00  0.00    +0.000 OA
ENDBRANCH  10  13
ENDBRANCH   4   7
BRANCH   1  16
ATOM     16  C   UNL     1      -0.397  11.536  19.384  0.00  0.00    +0.000 C 
ATOM     17  S   UNL     1       0.378  13.019  19.428  0.00  0.00    +0.000 S 
BRANCH  16  20
ATOM     18  O   UNL     1      -2.092  11.651  17.043  0.00  0.00    +0.000 OA
ATOM     19  C   UNL     1      -2.552  11.563  18.178  0.00  0.00    +0.000 C 
ATOM     20  N   UNL     1      -1.775  11.515  19.330  0.00  0.00    +0.000 N 
ATOM     21  H   UNL     1      -2.254  11.743  20.191  0.00  0.00    +0.000 HD
BRANCH  19  22
ATOM     22  C   UNL     1      -3.980  11.530  18.395  0.00  0.00    +0.000 A 
ATOM     23  C   UNL     1      -4.958  10.881  17.666  0.00  0.00    +0.000 A 
ATOM     24  C   UNL     1      -6.190  11.162  18.295  0.00  0.00    +0.000 A 
ATOM     25  C   UNL     1      -5.891  11.963  19.373  0.00  0.00    +0.000 A 
ATOM     26  O   UNL     1      -4.552  12.194  19.443  0.00  0.00    +0.000 OA
ENDBRANCH  19  22
ENDBRANCH  16  20
ENDBRANCH   1  16
TORSDOF 5
ENDMDL
MODEL 6
REMARK VINA RESULT:      -6.9      3.562      9.052
REMARK  Name = 
REMARK  5 active torsions:
REMARK  status: ('A' for Active; 'I' for Inactive)
REMARK    1  A    between atoms: C_2  and  C_21
REMARK    2  A    between atoms: N_3  and  C_4
REMARK    3  A    between atoms: C_4  and  N_6
REMARK    4  A    between atoms: N_9  and  C_10
REMARK    5  A    between atoms: C_13  and  N_14
REMARK                            x       y       z     vdW  Elec       q    Type
REMARK                         _______ _______ _______ _____ _____    ______ ____
ROOT
ATOM      1  N   UNL     1       2.850   4.964  18.221  0.00  0.00    +0.000 N 
ATOM      2  C   UNL     1       1.991   4.860  19.412  0.00  0.00    +0.000 C 
ATOM      3  C   UNL     1       2.295   5.959  20.439  0.00  0.00    +0.000 C 
ATOM      4  N   UNL     1       2.220   7.275  19.783  0.00  0.00    +0.000 N 
ATOM      5  C   UNL     1       3.104   7.420  18.610  0.00  0.00    +0.000 C 
ATOM      6  C   UNL     1       2.819   6.292  17.584  0.00  0.00    +0.000 C 
ENDROOT
BRANCH   4   7
ATOM      7  C   UNL     1       1.489   8.312  20.315  0.00  0.00    +0.000 A 
ATOM      8  C   UNL     1       1.062   9.400  19.539  0.00  0.00    +0.000 A 
ATOM      9  C   UNL     1       0.275  10.427  20.079  0.00  0.00    +0.000 A 
ATOM     10  C   UNL     1      -0.100  10.374  21.423  0.00  0.00    +0.000 A 
ATOM     11  C   UNL     1       0.318   9.314  22.227  0.00  0.00    +0.000 A 
ATOM     12  C   UNL     1       1.104   8.302  21.668  0.00  0.00    +0.000 A 
BRANCH  10  13
ATOM     13  N   UNL     1      -0.953  11.424  21.995  0.00  0.00    +0.000 N 
ATOM     14  O   UNL     1      -1.891  11.842  21.303  0.00  0.00    +0.000 OA
ATOM     15  O   UNL     1      -0.682  11.832  23.134  0.00  0.00    +0.000 OA
ENDBRANCH  10  13
ENDBRANCH   4   7
BRANCH   1  16
ATOM     16  C   UNL     1       3.283   3.816  17.590  0.00  0.00    +0.000 C 
ATOM     17  S   UNL     1       2.892   2.261  18.069  0.00  0.00    +0.000 S 
BRANCH  16  20
ATOM     18  O   UNL     1       6.116   4.401  17.589  0.00  0.00    +0.000 OA
ATOM     19  C   UNL     1       5.479   4.254  16.549  0.00  0.00    +0.000 C 
ATOM     20  N   UNL     1       4.117   3.981  16.504  0.00  0.00    +0.000 N 
ATOM     21  H   UNL     1       3.660   4.177  15.624  0.00  0.00    +0.000 HD
BRANCH  19  22
ATOM     22  C   UNL     1       6.125   4.386  15.264  0.00  0.00    +0.000 A 
ATOM     23  C   UNL     1       5.795   3.799  14.057  0.00  0.00    +0.000 A 
ATOM     24  C   UNL     1       6.736   4.256  13.110  0.00  0.00    +0.000 A 
ATOM     25  C   UNL     1       7.583   5.099  13.793  0.00  0.00    +0.000 A 
ATOM     26  O   UNL     1       7.222   5.184  15.102  0.00  0.00    +0.000 OA
ENDBRANCH  19  22
ENDBRANCH  16  20
ENDBRANCH   1  16
TORSDOF 5
ENDMDL
MODEL 7
REMARK VINA RESULT:      -6.9      3.555      9.131
REMARK  Name = 
REMARK  5 active torsions:
REMARK  status: ('A' for Active; 'I' for Inactive)
REMARK    1  A    between atoms: C_2  and  C_21
REMARK    2  A    between atoms: N_3  and  C_4
REMARK    3  A    between atoms: C_4  and  N_6
REMARK    4  A    between atoms: N_9  and  C_10
REMARK    5  A    between atoms: C_13  and  N_14
REMARK                            x       y       z     vdW  Elec       q    Type
REMARK                         _______ _______ _______ _____ _____    ______ ____
ROOT
ATOM      1  N   UNL     1       3.442   4.972  19.229  0.00  0.00    +0.000 N 
ATOM      2  C   UNL     1       3.646   6.288  18.600  0.00  0.00    +0.000 C 
ATOM      3  C   UNL     1       2.339   7.085  18.496  0.00  0.00    +0.000 C 
ATOM      4  N   UNL     1       1.712   7.170  19.825  0.00  0.00    +0.000 N 
ATOM      5  C   UNL     1       1.457   5.862  20.461  0.00  0.00    +0.000 C 
ATOM      6  C   UNL     1       2.771   5.041  20.539  0.00  0.00    +0.000 C 
ENDROOT
BRANCH   4   7
ATOM      7  C   UNL     1       1.280   8.366  20.351  0.00  0.00    +0.000 A 
ATOM      8  C   UNL     1       1.118   9.514  19.559  0.00  0.00    +0.000 A 
ATOM      9  C   UNL     1       0.630  10.715  20.094  0.00  0.00    +0.000 A 
ATOM     10  C   UNL     1       0.292  10.779  21.447  0.00  0.00    +0.000 A 
ATOM     11  C   UNL     1       0.452   9.662  22.265  0.00  0.00    +0.000 A 
ATOM     12  C   UNL     1       0.943   8.475  21.711  0.00  0.00    +0.000 A 
BRANCH  10  13
ATOM     13  N   UNL     1      -0.255  12.019  22.014  0.00  0.00    +0.000 N 
ATOM     14  O   UNL     1      -0.351  13.000  21.265  0.00  0.00    +0.000 OA
ATOM     15  O   UNL     1      -0.584  12.011  23.210  0.00  0.00    +0.000 OA
ENDBRANCH  10  13
ENDBRANCH   4   7
BRANCH   1  16
ATOM     16  C   UNL     1       4.175   3.887  18.795  0.00  0.00    +0.000 C 
ATOM     17  S   UNL     1       4.442   2.498  19.690  0.00  0.00    +0.000 S 
BRANCH  16  20
ATOM     18  O   UNL     1       6.923   4.483  18.119  0.00  0.00    +0.000 OA
ATOM     19  C   UNL     1       6.073   4.263  17.260  0.00  0.00    +0.000 C 
ATOM     20  N   UNL     1       4.740   3.983  17.541  0.00  0.00    +0.000 N 
ATOM     21  H   UNL     1       4.094   4.117  16.775  0.00  0.00    +0.000 HD
BRANCH  19  22
ATOM     22  C   UNL     1       6.412   4.311  15.857  0.00  0.00    +0.000 A 
ATOM     23  C   UNL     1       5.791   3.693  14.789  0.00  0.00    +0.000 A 
ATOM     24  C   UNL     1       6.507   4.065  13.630  0.00  0.00    +0.000 A 
ATOM     25  C   UNL     1       7.520   4.890  14.060  0.00  0.00    +0.000 A 
ATOM     26  O   UNL     1       7.473   5.047  15.410  0.00  0.00    +0.000 OA
ENDBRANCH  19  22
ENDBRANCH  16  20
ENDBRANCH   1  16
TORSDOF 5
ENDMDL
MODEL 8
REMARK VINA RESULT:      -6.9      2.287      2.724
REMARK  Name = 
REMARK  5 active torsions:
REMARK  status: ('A' for Active; 'I' for Inactive)
REMARK    1  A    between atoms: C_2  and  C_21
REMARK    2  A    between atoms: N_3  and  C_4
REMARK    3  A    between atoms: C_4  and  N_6
REMARK    4  A    between atoms: N_9  and  C_10
REMARK    5  A    between atoms: C_13  and  N_14
REMARK                            x       y       z     vdW  Elec       q    Type
REMARK                         _______ _______ _______ _____ _____    ______ ____
ROOT
ATOM      1  N   UNL     1       0.880  10.012  18.916  0.00  0.00    +0.000 N 
ATOM      2  C   UNL     1       1.395   9.292  17.739  0.00  0.00    +0.000 C 
ATOM      3  C   UNL     1       2.655   8.480  18.067  0.00  0.00    +0.000 C 
ATOM      4  N   UNL     1       2.383   7.597  19.214  0.00  0.00    +0.000 N 
ATOM      5  C   UNL     1       1.905   8.299  20.421  0.00  0.00    +0.000 C 
ATOM      6  C   UNL     1       0.649   9.145  20.084  0.00  0.00    +0.000 C 
ENDROOT
BRANCH   4   7
ATOM      7  C   UNL     1       2.688   6.256  19.187  0.00  0.00    +0.000 A 
ATOM      8  C   UNL     1       3.358   5.664  18.104  0.00  0.00    +0.000 A 
ATOM      9  C   UNL     1       3.709   4.306  18.108  0.00  0.00    +0.000 A 
ATOM     10  C   UNL     1       3.388   3.515  19.212  0.00  0.00    +0.000 A 
ATOM     11  C   UNL     1       2.711   4.067  20.299  0.00  0.00    +0.000 A 
ATOM     12  C   UNL     1       2.368   5.423  20.273  0.00  0.00    +0.000 A 
BRANCH  10  13
ATOM     13  N   UNL     1       3.780   2.100  19.246  0.00  0.00    +0.000 N 
ATOM     14  O   UNL     1       4.692   1.774  20.017  0.00  0.00    +0.000 OA
ATOM     15  O   UNL     1       3.176   1.315  18.498  0.00  0.00    +0.000 OA
ENDBRANCH  10  13
ENDBRANCH   4   7
BRANCH   1  16
ATOM     16  C   UNL     1       0.314  11.260  18.757  0.00  0.00    +0.000 C 
ATOM     17  S   UNL     1       1.065  12.703  19.152  0.00  0.00    +0.000 S 
BRANCH  16  20
ATOM     18  O   UNL     1      -2.134  11.827  20.190  0.00  0.00    +0.000 OA
ATOM     19  C   UNL     1      -2.123  11.587  18.986  0.00  0.00    +0.000 C 
ATOM     20  N   UNL     1      -0.972  11.300  18.261  0.00  0.00    +0.000 N 
ATOM     21  H   UNL     1      -1.117  10.836  17.375  0.00  0.00    +0.000 HD
BRANCH  19  22
ATOM     22  C   UNL     1      -3.352  11.560  18.228  0.00  0.00    +0.000 A 
ATOM     23  C   UNL     1      -4.645  11.794  18.655  0.00  0.00    +0.000 A 
ATOM     24  C   UNL     1      -5.481  11.651  17.526  0.00  0.00    +0.000 A 
ATOM     25  C   UNL     1      -4.647  11.341  16.475  0.00  0.00    +0.000 A 
ATOM     26  O   UNL     1      -3.353  11.282  16.890  0.00  0.00    +0.000 OA
ENDBRANCH  19  22
ENDBRANCH  16  20
ENDBRANCH   1  16
TORSDOF 5
ENDMDL
MODEL 9
REMARK VINA RESULT:      -6.8      3.331      4.555
REMARK  Name = 
REMARK  5 active torsions:
REMARK  status: ('A' for Active; 'I' for Inactive)
REMARK    1  A    between atoms: C_2  and  C_21
REMARK    2  A    between atoms: N_3  and  C_4
REMARK    3  A    between atoms: C_4  and  N_6
REMARK    4  A    between atoms: N_9  and  C_10
REMARK    5  A    between atoms: C_13  and  N_14
REMARK                            x       y       z     vdW  Elec       q    Type
REMARK                         _______ _______ _______ _____ _____    ______ ____
ROOT
ATOM      1  N   UNL     1       0.469  10.039  18.956  0.00  0.00    +0.000 N 
ATOM      2  C   UNL     1       1.093   9.305  17.842  0.00  0.00    +0.000 C 
ATOM      3  C   UNL     1       2.407   8.632  18.258  0.00  0.00    +0.000 C 
ATOM      4  N   UNL     1       2.170   7.792  19.445  0.00  0.00    +0.000 N 
ATOM      5  C   UNL     1       1.585   8.513  20.592  0.00  0.00    +0.000 C 
ATOM      6  C   UNL     1       0.272   9.221  20.165  0.00  0.00    +0.000 C 
ENDROOT
BRANCH   4   7
ATOM      7  C   UNL     1       2.595   6.485  19.507  0.00  0.00    +0.000 A 
ATOM      8  C   UNL     1       2.049   5.565  20.416  0.00  0.00    +0.000 A 
ATOM      9  C   UNL     1       2.454   4.222  20.437  0.00  0.00    +0.000 A 
ATOM     10  C   UNL     1       3.422   3.780  19.534  0.00  0.00    +0.000 A 
ATOM     11  C   UNL     1       3.994   4.670  18.627  0.00  0.00    +0.000 A 
ATOM     12  C   UNL     1       3.579   6.005  18.625  0.00  0.00    +0.000 A 
BRANCH  10  13
ATOM     13  N   UNL     1       3.830   2.369  19.520  0.00  0.00    +0.000 N 
ATOM     14  O   UNL     1       4.729   2.022  20.297  0.00  0.00    +0.000 OA
ATOM     15  O   UNL     1       3.251   1.609  18.729  0.00  0.00    +0.000 OA
ENDBRANCH  10  13
ENDBRANCH   4   7
BRANCH   1  16
ATOM     16  C   UNL     1      -0.199  11.219  18.707  0.00  0.00    +0.000 C 
ATOM     17  S   UNL     1      -1.864  11.390  18.710  0.00  0.00    +0.000 S 
BRANCH  16  20
ATOM     18  O   UNL     1       1.508  12.731  20.487  0.00  0.00    +0.000 OA
ATOM     19  C   UNL     1       1.391  13.014  19.297  0.00  0.00    +0.000 C 
ATOM     20  N   UNL     1       0.576  12.321  18.410  0.00  0.00    +0.000 N 
ATOM     21  H   UNL     1       0.334  12.814  17.561  0.00  0.00    +0.000 HD
BRANCH  19  22
ATOM     22  C   UNL     1       2.098  14.140  18.735  0.00  0.00    +0.000 A 
ATOM     23  C   UNL     1       3.341  14.177  18.131  0.00  0.00    +0.000 A 
ATOM     24  C   UNL     1       3.570  15.516  17.749  0.00  0.00    +0.000 A 
ATOM     25  C   UNL     1       2.452  16.218  18.139  0.00  0.00    +0.000 A 
ATOM     26  O   UNL     1       1.552  15.393  18.739  0.00  0.00    +0.000 OA
ENDBRANCH  19  22
ENDBRANCH  16  20
ENDBRANCH   1  16
TORSDOF 5
ENDMDL
