MODEL 1
REMARK VINA RESULT:      -7.9      0.000      0.000
REMARK  Name = 
REMARK  5 active torsions:
REMARK  status: ('A' for Active; 'I' for Inactive)
REMARK    1  A    between atoms: C_1  and  S_2
REMARK    2  A    between atoms: S_2  and  N_5
REMARK    3  A    between atoms: N_8  and  C_9
REMARK    4  A    between atoms: C_14  and  N_15
REMARK    5  A    between atoms: C_16  and  C_18
REMARK                            x       y       z     vdW  Elec       q    Type
REMARK                         _______ _______ _______ _____ _____    ______ ____
ROOT
ATOM      1  C   UNL     1       3.444   4.178  19.473  0.00  0.00    +0.000 A 
ATOM      2  C   UNL     1       3.573   2.939  20.140  0.00  0.00    +0.000 A 
ATOM      3  C   UNL     1       2.726   2.537  21.181  0.00  0.00    +0.000 A 
ATOM      4  C   UNL     1       1.715   3.376  21.609  0.00  0.00    +0.000 A 
ATOM      5  C   UNL     1       1.575   4.623  21.014  0.00  0.00    +0.000 A 
ATOM      6  C   UNL     1       2.423   5.031  19.965  0.00  0.00    +0.000 A 
ENDROOT
BRANCH   1  10
ATOM      7  N   UNL     1       6.201   5.867  16.641  0.00  0.00    +0.000 NA
ATOM      8  C   UNL     1       4.734   5.756  16.360  0.00  0.00    +0.000 C 
ATOM      9  C   UNL     1       4.056   4.553  17.043  0.00  0.00    +0.000 C 
ATOM     10  N   UNL     1       4.366   4.503  18.480  0.00  0.00    +0.000 N 
ATOM     11  C   UNL     1       5.813   4.589  18.789  0.00  0.00    +0.000 C 
ATOM     12  C   UNL     1       6.423   5.845  18.132  0.00  0.00    +0.000 C 
BRANCH   7  14
ATOM     13  C   UNL     1       6.199   3.682  14.995  0.00  0.00    +0.000 C 
ATOM     14  S   UNL     1       7.271   4.871  15.775  0.00  0.00    +0.000 S 
ATOM     15  O   UNL     1       8.093   4.167  16.729  0.00  0.00    +0.000 OA
ATOM     16  O   UNL     1       7.865   5.687  14.739  0.00  0.00    +0.000 OA
ENDBRANCH   7  14
ENDBRANCH   1  10
BRANCH   6  17
ATOM     17  N   UNL     1       2.156   6.287  19.377  0.00  0.00    +0.000 N 
ATOM     18  C   UNL     1       1.778   7.399  20.115  0.00  0.00    +0.000 C 
ATOM     19  O   UNL     1       1.606   7.399  21.331  0.00  0.00    +0.000 OA
ATOM     20  H   UNL     1       2.525   6.457  18.451  0.00  0.00    +0.000 HD
BRANCH  18  21
ATOM     21  C   UNL     1       1.674   8.616  19.332  0.00  0.00    +0.000 A 
ATOM     22  C   UNL     1       2.133   8.907  18.060  0.00  0.00    +0.000 A 
ATOM     23  C   UNL     1       1.787  10.253  17.802  0.00  0.00    +0.000 A 
ATOM     24  C   UNL     1       1.129  10.701  18.923  0.00  0.00    +0.000 A 
ATOM     25  O   UNL     1       1.035   9.713  19.850  0.00  0.00    +0.000 OA
ENDBRANCH  18  21
ENDBRANCH   6  17
TORSDOF 4
ENDMDL
MODEL 2
REMARK VINA RESULT:      -7.9      0.940      1.667
REMARK  Name = 
REMARK  5 active torsions:
REMARK  status: ('A' for Active; 'I' for Inactive)
REMARK    1  A    between atoms: C_1  and  S_2
REMARK    2  A    between atoms: S_2  and  N_5
REMARK    3  A    between atoms: N_8  and  C_9
REMARK    4  A    between atoms: C_14  and  N_15
REMARK    5  A    between atoms: C_16  and  C_18
REMARK                            x       y       z     vdW  Elec       q    Type
REMARK                         _______ _______ _______ _____ _____    ______ ____
ROOT
ATOM      1  C   UNL     1       3.168   4.007  19.348  0.00  0.00    +0.000 A 
ATOM      2  C   UNL     1       3.221   2.720  19.930  0.00  0.00    +0.000 A 
ATOM      3  C   UNL     1       2.239   2.233  20.802  0.00  0.00    +0.000 A 
ATOM      4  C   UNL     1       1.161   3.030  21.141  0.00  0.00    +0.000 A 
ATOM      5  C   UNL     1       1.088   4.319  20.628  0.00  0.00    +0.000 A 
ATOM      6  C   UNL     1       2.073   4.813  19.749  0.00  0.00    +0.000 A 
ENDROOT
BRANCH   1  10
ATOM      7  N   UNL     1       6.614   4.558  16.838  0.00  0.00    +0.000 NA
ATOM      8  C   UNL     1       6.692   4.633  18.332  0.00  0.00    +0.000 C 
ATOM      9  C   UNL     1       5.404   5.148  19.000  0.00  0.00    +0.000 C 
ATOM     10  N   UNL     1       4.220   4.414  18.528  0.00  0.00    +0.000 N 
ATOM     11  C   UNL     1       4.102   4.340  17.053  0.00  0.00    +0.000 C 
ATOM     12  C   UNL     1       5.397   3.758  16.445  0.00  0.00    +0.000 C 
BRANCH   7  14
ATOM     13  C   UNL     1       7.537   7.118  17.110  0.00  0.00    +0.000 C 
ATOM     14  S   UNL     1       6.812   5.987  15.941  0.00  0.00    +0.000 S 
ATOM     15  O   UNL     1       5.501   6.484  15.600  0.00  0.00    +0.000 OA
ATOM     16  O   UNL     1       7.794   5.712  14.916  0.00  0.00    +0.000 OA
ENDBRANCH   7  14
ENDBRANCH   1  10
BRANCH   6  17
ATOM     17  N   UNL     1       1.872   6.109  19.226  0.00  0.00    +0.000 N 
ATOM     18  C   UNL     1       1.808   7.242  20.024  0.00  0.00    +0.000 C 
ATOM     19  O   UNL     1       1.884   7.232  21.250  0.00  0.00    +0.000 OA
ATOM     20  H   UNL     1       2.069   6.252  18.245  0.00  0.00    +0.000 HD
BRANCH  18  21
ATOM     21  C   UNL     1       1.721   8.483  19.278  0.00  0.00    +0.000 A 
ATOM     22  C   UNL     1       2.209   8.813  18.026  0.00  0.00    +0.000 A 
ATOM     23  C   UNL     1       1.869  10.166  17.802  0.00  0.00    +0.000 A 
ATOM     24  C   UNL     1       1.184  10.579  18.921  0.00  0.00    +0.000 A 
ATOM     25  O   UNL     1       1.070   9.564  19.814  0.00  0.00    +0.000 OA
ENDBRANCH  18  21
ENDBRANCH   6  17
TORSDOF 4
ENDMDL
MODEL 3
REMARK VINA RESULT:      -7.9      1.284      1.807
REMARK  Name = 
REMARK  5 active torsions:
REMARK  status: ('A' for Active; 'I' for Inactive)
REMARK    1  A    between atoms: C_1  and  S_2
REMARK    2  A    between atoms: S_2  and  N_5
REMARK    3  A    between atoms: N_8  and  C_9
REMARK    4  A    between atoms: C_14  and  N_15
REMARK    5  A    between atoms: C_16  and  C_18
REMARK                            x       y       z     vdW  Elec       q    Type
REMARK                         _______ _______ _______ _____ _____    ______ ____
ROOT
ATOM      1  C   UNL     1       3.941   3.940  19.652  0.00  0.00    +0.000 A 
ATOM      2  C   UNL     1       3.981   2.607  20.120  0.00  0.00    +0.000 A 
ATOM      3  C   UNL     1       3.127   2.118  21.117  0.00  0.00    +0.000 A 
ATOM      4  C   UNL     1       2.198   2.960  21.701  0.00  0.00    +0.000 A 
ATOM      5  C   UNL     1       2.149   4.290  21.305  0.00  0.00    +0.000 A 
ATOM      6  C   UNL     1       3.006   4.786  20.302  0.00  0.00    +0.000 A 
ENDROOT
BRANCH   1  10
ATOM      7  N   UNL     1       7.037   4.480  16.720  0.00  0.00    +0.000 NA
ATOM      8  C   UNL     1       7.282   4.666  18.186  0.00  0.00    +0.000 C 
ATOM      9  C   UNL     1       6.052   5.163  18.967  0.00  0.00    +0.000 C 
ATOM     10  N   UNL     1       4.866   4.339  18.689  0.00  0.00    +0.000 N 
ATOM     11  C   UNL     1       4.584   4.154  17.246  0.00  0.00    +0.000 C 
ATOM     12  C   UNL     1       5.831   3.596  16.528  0.00  0.00    +0.000 C 
BRANCH   7  14
ATOM     13  C   UNL     1       5.320   6.230  15.505  0.00  0.00    +0.000 C 
ATOM     14  S   UNL     1       7.048   5.850  15.715  0.00  0.00    +0.000 S 
ATOM     15  O   UNL     1       7.573   5.454  14.429  0.00  0.00    +0.000 OA
ATOM     16  O   UNL     1       7.656   6.924  16.467  0.00  0.00    +0.000 OA
ENDBRANCH   7  14
ENDBRANCH   1  10
BRANCH   6  17
ATOM     17  N   UNL     1       2.832   6.134  19.920  0.00  0.00    +0.000 N 
ATOM     18  C   UNL     1       2.188   6.509  18.749  0.00  0.00    +0.000 C 
ATOM     19  O   UNL     1       1.740   5.719  17.922  0.00  0.00    +0.000 OA
ATOM     20  H   UNL     1       2.915   6.838  20.641  0.00  0.00    +0.000 HD
BRANCH  18  21
ATOM     21  C   UNL     1       2.007   7.941  18.610  0.00  0.00    +0.000 A 
ATOM     22  C   UNL     1       2.370   8.796  17.585  0.00  0.00    +0.000 A 
ATOM     23  C   UNL     1       1.985  10.095  17.984  0.00  0.00    +0.000 A 
ATOM     24  C   UNL     1       1.399   9.958  19.220  0.00  0.00    +0.000 A 
ATOM     25  O   UNL     1       1.388   8.655  19.603  0.00  0.00    +0.000 OA
ENDBRANCH  18  21
ENDBRANCH   6  17
TORSDOF 4
ENDMDL
MODEL 4
REMARK VINA RESULT:      -7.8      0.957      1.455
REMARK  Name = 
REMARK  5 active torsions:
REMARK  status: ('A' for Active; 'I' for Inactive)
REMARK    1  A    between atoms: C_1  and  S_2
REMARK    2  A    between atoms: S_2  and  N_5
REMARK    3  A    between atoms: N_8  and  C_9
REMARK    4  A    between atoms: C_14  and  N_15
REMARK    5  A    between atoms: C_16  and  C_18
REMARK                            x       y       z     vdW  Elec       q    Type
REMARK                         _______ _______ _______ _____ _____    ______ ____
ROOT
ATOM      1  C   UNL     1       3.441   4.061  19.526  0.00  0.00    +0.000 A 
ATOM      2  C   UNL     1       3.539   2.822  20.200  0.00  0.00    +0.000 A 
ATOM      3  C   UNL     1       2.647   2.423  21.204  0.00  0.00    +0.000 A 
ATOM      4  C   UNL     1       1.618   3.265  21.586  0.00  0.00    +0.000 A 
ATOM      5  C   UNL     1       1.506   4.511  20.982  0.00  0.00    +0.000 A 
ATOM      6  C   UNL     1       2.401   4.916  19.971  0.00  0.00    +0.000 A 
ENDROOT
BRANCH   1  10
ATOM      7  N   UNL     1       6.602   4.343  16.628  0.00  0.00    +0.000 NA
ATOM      8  C   UNL     1       6.848   4.499  18.097  0.00  0.00    +0.000 C 
ATOM      9  C   UNL     1       5.657   5.098  18.869  0.00  0.00    +0.000 C 
ATOM     10  N   UNL     1       4.407   4.382  18.574  0.00  0.00    +0.000 N 
ATOM     11  C   UNL     1       4.124   4.230  17.128  0.00  0.00    +0.000 C 
ATOM     12  C   UNL     1       5.325   3.569  16.418  0.00  0.00    +0.000 C 
BRANCH   7  14
ATOM     13  C   UNL     1       7.287   5.041  14.073  0.00  0.00    +0.000 C 
ATOM     14  S   UNL     1       6.743   5.712  15.631  0.00  0.00    +0.000 S 
ATOM     15  O   UNL     1       7.808   6.535  16.153  0.00  0.00    +0.000 OA
ATOM     16  O   UNL     1       5.411   6.245  15.450  0.00  0.00    +0.000 OA
ENDBRANCH   7  14
ENDBRANCH   1  10
BRANCH   6  17
ATOM     17  N   UNL     1       2.162   6.171  19.370  0.00  0.00    +0.000 N 
ATOM     18  C   UNL     1       1.796   7.296  20.095  0.00  0.00    +0.000 C 
ATOM     19  O   UNL     1       1.612   7.309  21.309  0.00  0.00    +0.000 OA
ATOM     20  H   UNL     1       2.543   6.326  18.447  0.00  0.00    +0.000 HD
BRANCH  18  21
ATOM     21  C   UNL     1       1.721   8.508  19.301  0.00  0.00    +0.000 A 
ATOM     22  C   UNL     1       2.209   8.784  18.036  0.00  0.00    +0.000 A 
ATOM     23  C   UNL     1       1.883  10.130  17.760  0.00  0.00    +0.000 A 
ATOM     24  C   UNL     1       1.207  10.595  18.864  0.00  0.00    +0.000 A 
ATOM     25  O   UNL     1       1.084   9.616  19.797  0.00  0.00    +0.000 OA
ENDBRANCH  18  21
ENDBRANCH   6  17
TORSDOF 4
ENDMDL
MODEL 5
REMARK VINA RESULT:      -7.7      1.067      1.177
REMARK  Name = 
REMARK  5 active torsions:
REMARK  status: ('A' for Active; 'I' for Inactive)
REMARK    1  A    between atoms: C_1  and  S_2
REMARK    2  A    between atoms: S_2  and  N_5
REMARK    3  A    between atoms: N_8  and  C_9
REMARK    4  A    between atoms: C_14  and  N_15
REMARK    5  A    between atoms: C_16  and  C_18
REMARK                            x       y       z     vdW  Elec       q    Type
REMARK                         _______ _______ _______ _____ _____    ______ ____
ROOT
ATOM      1  C   UNL     1       3.644   4.075  19.581  0.00  0.00    +0.000 A 
ATOM      2  C   UNL     1       3.647   2.742  20.051  0.00  0.00    +0.000 A 
ATOM      3  C   UNL     1       2.861   2.305  21.125  0.00  0.00    +0.000 A 
ATOM      4  C   UNL     1       2.042   3.201  21.787  0.00  0.00    +0.000 A 
ATOM      5  C   UNL     1       2.036   4.531  21.389  0.00  0.00    +0.000 A 
ATOM      6  C   UNL     1       2.824   4.975  20.308  0.00  0.00    +0.000 A 
ENDROOT
BRANCH   1  10
ATOM      7  N   UNL     1       6.118   5.822  16.531  0.00  0.00    +0.000 NA
ATOM      8  C   UNL     1       4.666   5.527  16.312  0.00  0.00    +0.000 C 
ATOM      9  C   UNL     1       4.146   4.317  17.109  0.00  0.00    +0.000 C 
ATOM     10  N   UNL     1       4.498   4.417  18.534  0.00  0.00    +0.000 N 
ATOM     11  C   UNL     1       5.933   4.687  18.785  0.00  0.00    +0.000 C 
ATOM     12  C   UNL     1       6.381   5.945  18.012  0.00  0.00    +0.000 C 
BRANCH   7  14
ATOM     13  C   UNL     1       6.288   3.665  14.856  0.00  0.00    +0.000 C 
ATOM     14  S   UNL     1       7.271   4.883  15.708  0.00  0.00    +0.000 S 
ATOM     15  O   UNL     1       8.070   4.195  16.694  0.00  0.00    +0.000 OA
ATOM     16  O   UNL     1       7.885   5.738  14.717  0.00  0.00    +0.000 OA
ENDBRANCH   7  14
ENDBRANCH   1  10
BRANCH   6  17
ATOM     17  N   UNL     1       2.695   6.331  19.936  0.00  0.00    +0.000 N 
ATOM     18  C   UNL     1       2.047   6.736  18.778  0.00  0.00    +0.000 C 
ATOM     19  O   UNL     1       1.556   5.970  17.954  0.00  0.00    +0.000 OA
ATOM     20  H   UNL     1       2.816   7.027  20.660  0.00  0.00    +0.000 HD
BRANCH  18  21
ATOM     21  C   UNL     1       1.920   8.175  18.650  0.00  0.00    +0.000 A 
ATOM     22  C   UNL     1       1.357   9.107  19.504  0.00  0.00    +0.000 A 
ATOM     23  C   UNL     1       1.474  10.363  18.869  0.00  0.00    +0.000 A 
ATOM     24  C   UNL     1       2.110  10.129  17.672  0.00  0.00    +0.000 A 
ATOM     25  O   UNL     1       2.404   8.811  17.535  0.00  0.00    +0.000 OA
ENDBRANCH  18  21
ENDBRANCH   6  17
TORSDOF 4
ENDMDL
MODEL 6
REMARK VINA RESULT:      -7.6      0.828      1.375
REMARK  Name = 
REMARK  5 active torsions:
REMARK  status: ('A' for Active; 'I' for Inactive)
REMARK    1  A    between atoms: C_1  and  S_2
REMARK    2  A    between atoms: S_2  and  N_5
REMARK    3  A    between atoms: N_8  and  C_9
REMARK    4  A    between atoms: C_14  and  N_15
REMARK    5  A    between atoms: C_16  and  C_18
REMARK                            x       y       z     vdW  Elec       q    Type
REMARK                         _______ _______ _______ _____ _____    ______ ____
ROOT
ATOM      1  C   UNL     1       3.081   3.956  19.261  0.00  0.00    +0.000 A 
ATOM      2  C   UNL     1       3.195   2.669  19.835  0.00  0.00    +0.000 A 
ATOM      3  C   UNL     1       2.293   2.170  20.784  0.00  0.00    +0.000 A 
ATOM      4  C   UNL     1       1.238   2.955  21.210  0.00  0.00    +0.000 A 
ATOM      5  C   UNL     1       1.108   4.243  20.707  0.00  0.00    +0.000 A 
ATOM      6  C   UNL     1       2.013   4.749  19.751  0.00  0.00    +0.000 A 
ENDROOT
BRANCH   1  10
ATOM      7  N   UNL     1       5.549   5.607  16.153  0.00  0.00    +0.000 NA
ATOM      8  C   UNL     1       4.813   4.312  15.988  0.00  0.00    +0.000 C 
ATOM      9  C   UNL     1       4.627   3.528  17.300  0.00  0.00    +0.000 C 
ATOM     10  N   UNL     1       4.058   4.374  18.360  0.00  0.00    +0.000 N 
ATOM     11  C   UNL     1       4.778   5.653  18.563  0.00  0.00    +0.000 C 
ATOM     12  C   UNL     1       4.878   6.424  17.229  0.00  0.00    +0.000 C 
BRANCH   7  14
ATOM     13  C   UNL     1       7.627   7.039  17.208  0.00  0.00    +0.000 C 
ATOM     14  S   UNL     1       7.243   5.568  16.280  0.00  0.00    +0.000 S 
ATOM     15  O   UNL     1       7.791   5.727  14.954  0.00  0.00    +0.000 OA
ATOM     16  O   UNL     1       7.582   4.422  17.094  0.00  0.00    +0.000 OA
ENDBRANCH   7  14
ENDBRANCH   1  10
BRANCH   6  17
ATOM     17  N   UNL     1       1.756   6.043  19.249  0.00  0.00    +0.000 N 
ATOM     18  C   UNL     1       1.842   7.186  20.030  0.00  0.00    +0.000 C 
ATOM     19  O   UNL     1       2.113   7.188  21.228  0.00  0.00    +0.000 OA
ATOM     20  H   UNL     1       1.796   6.171  18.246  0.00  0.00    +0.000 HD
BRANCH  18  21
ATOM     21  C   UNL     1       1.661   8.420  19.289  0.00  0.00    +0.000 A 
ATOM     22  C   UNL     1       2.146   8.803  18.051  0.00  0.00    +0.000 A 
ATOM     23  C   UNL     1       1.690  10.121  17.828  0.00  0.00    +0.000 A 
ATOM     24  C   UNL     1       0.946  10.462  18.932  0.00  0.00    +0.000 A 
ATOM     25  O   UNL     1       0.903   9.433  19.817  0.00  0.00    +0.000 OA
ENDBRANCH  18  21
ENDBRANCH   6  17
TORSDOF 4
ENDMDL
MODEL 7
REMARK VINA RESULT:      -7.5      1.480      1.907
REMARK  Name = 
REMARK  5 active torsions:
REMARK  status: ('A' for Active; 'I' for Inactive)
REMARK    1  A    between atoms: C_1  and  S_2
REMARK    2  A    between atoms: S_2  and  N_5
REMARK    3  A    between atoms: N_8  and  C_9
REMARK    4  A    between atoms: C_14  and  N_15
REMARK    5  A    between atoms: C_16  and  C_18
REMARK                            x       y       z     vdW  Elec       q    Type
REMARK                         _______ _______ _______ _____ _____    ______ ____
ROOT
ATOM      1  C   UNL     1       3.812   3.908  19.514  0.00  0.00    +0.000 A 
ATOM      2  C   UNL     1       3.814   2.590  20.024  0.00  0.00    +0.000 A 
ATOM      3  C   UNL     1       3.038   2.190  21.120  0.00  0.00    +0.000 A 
ATOM      4  C   UNL     1       2.232   3.110  21.764  0.00  0.00    +0.000 A 
ATOM      5  C   UNL     1       2.228   4.428  21.327  0.00  0.00    +0.000 A 
ATOM      6  C   UNL     1       3.006   4.834  20.224  0.00  0.00    +0.000 A 
ENDROOT
BRANCH   1  10
ATOM      7  N   UNL     1       6.740   4.216  16.383  0.00  0.00    +0.000 NA
ATOM      8  C   UNL     1       6.999   4.712  17.772  0.00  0.00    +0.000 C 
ATOM      9  C   UNL     1       5.738   5.208  18.504  0.00  0.00    +0.000 C 
ATOM     10  N   UNL     1       4.655   4.214  18.448  0.00  0.00    +0.000 N 
ATOM     11  C   UNL     1       4.360   3.719  17.083  0.00  0.00    +0.000 C 
ATOM     12  C   UNL     1       5.647   3.178  16.424  0.00  0.00    +0.000 C 
BRANCH   7  14
ATOM     13  C   UNL     1       5.663   4.460  13.881  0.00  0.00    +0.000 C 
ATOM     14  S   UNL     1       6.557   5.355  15.135  0.00  0.00    +0.000 S 
ATOM     15  O   UNL     1       7.868   5.657  14.613  0.00  0.00    +0.000 OA
ATOM     16  O   UNL     1       5.697   6.402  15.638  0.00  0.00    +0.000 OA
ENDBRANCH   7  14
ENDBRANCH   1  10
BRANCH   6  17
ATOM     17  N   UNL     1       2.880   6.179  19.812  0.00  0.00    +0.000 N 
ATOM     18  C   UNL     1       2.186   6.557  18.672  0.00  0.00    +0.000 C 
ATOM     19  O   UNL     1       1.646   5.771  17.897  0.00  0.00    +0.000 OA
ATOM     20  H   UNL     1       3.045   6.896  20.506  0.00  0.00    +0.000 HD
BRANCH  18  21
ATOM     21  C   UNL     1       2.074   7.993  18.501  0.00  0.00    +0.000 A 
ATOM     22  C   UNL     1       1.414   8.939  19.265  0.00  0.00    +0.000 A 
ATOM     23  C   UNL     1       1.604  10.183  18.623  0.00  0.00    +0.000 A 
ATOM     24  C   UNL     1       2.376   9.928  17.514  0.00  0.00    +0.000 A 
ATOM     25  O   UNL     1       2.685   8.608  17.439  0.00  0.00    +0.000 OA
ENDBRANCH  18  21
ENDBRANCH   6  17
TORSDOF 4
ENDMDL
MODEL 8
REMARK VINA RESULT:      -7.5      1.198      1.205
REMARK  Name = 
REMARK  5 active torsions:
REMARK  status: ('A' for Active; 'I' for Inactive)
REMARK    1  A    between atoms: C_1  and  S_2
REMARK    2  A    between atoms: S_2  and  N_5
REMARK    3  A    between atoms: N_8  and  C_9
REMARK    4  A    between atoms: C_14  and  N_15
REMARK    5  A    between atoms: C_16  and  C_18
REMARK                            x       y       z     vdW  Elec       q    Type
REMARK                         _______ _______ _______ _____ _____    ______ ____
ROOT
ATOM      1  C   UNL     1       3.679   3.976  19.612  0.00  0.00    +0.000 A 
ATOM      2  C   UNL     1       3.752   2.638  20.062  0.00  0.00    +0.000 A 
ATOM      3  C   UNL     1       3.026   2.159  21.160  0.00  0.00    +0.000 A 
ATOM      4  C   UNL     1       2.200   3.014  21.866  0.00  0.00    +0.000 A 
ATOM      5  C   UNL     1       2.127   4.348  21.488  0.00  0.00    +0.000 A 
ATOM      6  C   UNL     1       2.855   4.835  20.383  0.00  0.00    +0.000 A 
ENDROOT
BRANCH   1  10
ATOM      7  N   UNL     1       5.603   5.643  16.148  0.00  0.00    +0.000 NA
ATOM      8  C   UNL     1       4.645   4.496  16.057  0.00  0.00    +0.000 C 
ATOM      9  C   UNL     1       4.638   3.586  17.299  0.00  0.00    +0.000 C 
ATOM     10  N   UNL     1       4.478   4.364  18.537  0.00  0.00    +0.000 N 
ATOM     11  C   UNL     1       5.426   5.494  18.668  0.00  0.00    +0.000 C 
ATOM     12  C   UNL     1       5.343   6.405  17.424  0.00  0.00    +0.000 C 
BRANCH   7  14
ATOM     13  C   UNL     1       7.294   4.943  14.115  0.00  0.00    +0.000 C 
ATOM     14  S   UNL     1       7.250   5.352  15.848  0.00  0.00    +0.000 S 
ATOM     15  O   UNL     1       7.636   4.176  16.590  0.00  0.00    +0.000 OA
ATOM     16  O   UNL     1       7.943   6.608  16.031  0.00  0.00    +0.000 OA
ENDBRANCH   7  14
ENDBRANCH   1  10
BRANCH   6  17
ATOM     17  N   UNL     1       2.661   6.189  20.035  0.00  0.00    +0.000 N 
ATOM     18  C   UNL     1       2.067   6.584  18.845  0.00  0.00    +0.000 C 
ATOM     19  O   UNL     1       1.686   5.810  17.970  0.00  0.00    +0.000 OA
ATOM     20  H   UNL     1       2.685   6.871  20.781  0.00  0.00    +0.000 HD
BRANCH  18  21
ATOM     21  C   UNL     1       1.851   8.015  18.741  0.00  0.00    +0.000 A 
ATOM     22  C   UNL     1       2.174   8.900  17.728  0.00  0.00    +0.000 A 
ATOM     23  C   UNL     1       1.767  10.181  18.164  0.00  0.00    +0.000 A 
ATOM     24  C   UNL     1       1.210  10.003  19.408  0.00  0.00    +0.000 A 
ATOM     25  O   UNL     1       1.236   8.692  19.762  0.00  0.00    +0.000 OA
ENDBRANCH  18  21
ENDBRANCH   6  17
TORSDOF 4
ENDMDL
MODEL 9
REMARK VINA RESULT:      -7.3      0.969      1.142
REMARK  Name = 
REMARK  5 active torsions:
REMARK  status: ('A' for Active; 'I' for Inactive)
REMARK    1  A    between atoms: C_1  and  S_2
REMARK    2  A    between atoms: S_2  and  N_5
REMARK    3  A    between atoms: N_8  and  C_9
REMARK    4  A    between atoms: C_14  and  N_15
REMARK    5  A    between atoms: C_16  and  C_18
REMARK                            x       y       z     vdW  Elec       q    Type
REMARK                         _______ _______ _______ _____ _____    ______ ____
ROOT
ATOM      1  C   UNL     1       3.317   4.045  19.491  0.00  0.00    +0.000 A 
ATOM      2  C   UNL     1       3.499   2.794  20.123  0.00  0.00    +0.000 A 
ATOM      3  C   UNL     1       2.693   2.343  21.176  0.00  0.00    +0.000 A 
ATOM      4  C   UNL     1       1.672   3.143  21.654  0.00  0.00    +0.000 A 
ATOM      5  C   UNL     1       1.481   4.399  21.094  0.00  0.00    +0.000 A 
ATOM      6  C   UNL     1       2.288   4.857  20.032  0.00  0.00    +0.000 A 
ENDROOT
BRANCH   1  10
ATOM      7  N   UNL     1       5.500   5.623  16.142  0.00  0.00    +0.000 NA
ATOM      8  C   UNL     1       4.629   4.410  16.029  0.00  0.00    +0.000 C 
ATOM      9  C   UNL     1       4.543   3.580  17.323  0.00  0.00    +0.000 C 
ATOM     10  N   UNL     1       4.202   4.419  18.482  0.00  0.00    +0.000 N 
ATOM     11  C   UNL     1       5.061   5.617  18.633  0.00  0.00    +0.000 C 
ATOM     12  C   UNL     1       5.058   6.442  17.329  0.00  0.00    +0.000 C 
BRANCH   7  14
ATOM     13  C   UNL     1       7.453   5.042  14.317  0.00  0.00    +0.000 C 
ATOM     14  S   UNL     1       7.184   5.426  16.035  0.00  0.00    +0.000 S 
ATOM     15  O   UNL     1       7.546   4.263  16.810  0.00  0.00    +0.000 OA
ATOM     16  O   UNL     1       7.780   6.716  16.305  0.00  0.00    +0.000 OA
ENDBRANCH   7  14
ENDBRANCH   1  10
BRANCH   6  17
ATOM     17  N   UNL     1       1.970   6.119  19.485  0.00  0.00    +0.000 N 
ATOM     18  C   UNL     1       1.782   7.253  20.262  0.00  0.00    +0.000 C 
ATOM     19  O   UNL     1       1.838   7.269  21.489  0.00  0.00    +0.000 OA
ATOM     20  H   UNL     1       2.169   6.265  18.504  0.00  0.00    +0.000 HD
BRANCH  18  21
ATOM     21  C   UNL     1       1.587   8.467  19.493  0.00  0.00    +0.000 A 
ATOM     22  C   UNL     1       0.829   9.591  19.768  0.00  0.00    +0.000 A 
ATOM     23  C   UNL     1       0.972  10.457  18.661  0.00  0.00    +0.000 A 
ATOM     24  C   UNL     1       1.815   9.820  17.782  0.00  0.00    +0.000 A 
ATOM     25  O   UNL     1       2.212   8.621  18.282  0.00  0.00    +0.000 OA
ENDBRANCH  18  21
ENDBRANCH   6  17
TORSDOF 4
ENDMDL
