MODEL 1
REMARK VINA RESULT:      -6.7      0.000      0.000
REMARK  Name = 
REMARK  6 active torsions:
REMARK  status: ('A' for Active; 'I' for Inactive)
REMARK    1  A    between atoms: C_1  and  O_2
REMARK    2  A    between atoms: O_2  and  C_3
REMARK    3  A    between atoms: C_3  and  C_4
REMARK    4  A    between atoms: C_4  and  O_5
REMARK    5  A    between atoms: O_5  and  C_6
REMARK    6  A    between atoms: C_10  and  N_11
REMARK                            x       y       z     vdW  Elec       q    Type
REMARK                         _______ _______ _______ _____ _____    ______ ____
ROOT
ATOM      1  C   UNL     1       6.176   4.414  16.549  0.00  0.00    +0.000 A 
ATOM      2  C   UNL     1       7.090   4.596  17.579  0.00  0.00    +0.000 A 
ATOM      3  N   UNL     1       6.750   4.768  18.874  0.00  0.00    +0.000 NA
ATOM      4  C   UNL     1       5.422   4.724  19.149  0.00  0.00    +0.000 A 
ATOM      5  C   UNL     1       4.395   4.518  18.217  0.00  0.00    +0.000 A 
ATOM      6  C   UNL     1       4.820   4.370  16.889  0.00  0.00    +0.000 A 
ENDROOT
BRANCH   5   7
ATOM      7  N   UNL     1       3.067   4.442  18.616  0.00  0.00    +0.000 N 
ATOM      8  C   UNL     1       2.035   3.789  17.811  0.00  0.00    +0.000 C 
ATOM      9  C   UNL     1       1.549   2.509  18.481  0.00  0.00    +0.000 C 
ATOM     10  C   UNL     1       1.047   2.609  19.925  0.00  0.00    +0.000 C 
ATOM     11  N   UNL     1       0.654   3.935  20.410  0.00  0.00    +0.000 NA
ATOM     12  C   UNL     1       1.843   4.735  20.773  0.00  0.00    +0.000 C 
ATOM     13  C   UNL     1       2.556   5.421  19.590  0.00  0.00    +0.000 C 
ATOM     14  H   UNL     1       0.106   3.799  21.261  0.00  0.00    +0.000 HD
ENDBRANCH   5   7
BRANCH   1  15
ATOM     15  O   UNL     1       6.694   4.230  15.300  0.00  0.00    +0.000 OA
BRANCH  15  16
ATOM     16  C   UNL     1       5.764   4.272  14.213  0.00  0.00    +0.000 C 
BRANCH  16  17
ATOM     17  C   UNL     1       6.464   3.774  12.947  0.00  0.00    +0.000 C 
BRANCH  17  19
ATOM     18  C   UNL     1       5.732   2.032  11.537  0.00  0.00    +0.000 C 
ATOM     19  O   UNL     1       5.491   3.361  11.985  0.00  0.00    +0.000 OA
ENDBRANCH  17  19
ENDBRANCH  16  17
ENDBRANCH  15  16
ENDBRANCH   1  15
TORSDOF 5
ENDMDL
MODEL 2
REMARK VINA RESULT:      -6.6      0.964      1.024
REMARK  Name = 
REMARK  6 active torsions:
REMARK  status: ('A' for Active; 'I' for Inactive)
REMARK    1  A    between atoms: C_1  and  O_2
REMARK    2  A    between atoms: O_2  and  C_3
REMARK    3  A    between atoms: C_3  and  C_4
REMARK    4  A    between atoms: C_4  and  O_5
REMARK    5  A    between atoms: O_5  and  C_6
REMARK    6  A    between atoms: C_10  and  N_11
REMARK                            x       y       z     vdW  Elec       q    Type
REMARK                         _______ _______ _______ _____ _____    ______ ____
ROOT
ATOM      1  C   UNL     1       6.056   5.636  16.761  0.00  0.00    +0.000 A 
ATOM      2  C   UNL     1       7.043   5.270  17.666  0.00  0.00    +0.000 A 
ATOM      3  N   UNL     1       6.801   4.850  18.926  0.00  0.00    +0.000 NA
ATOM      4  C   UNL     1       5.494   4.766  19.282  0.00  0.00    +0.000 A 
ATOM      5  C   UNL     1       4.397   5.074  18.463  0.00  0.00    +0.000 A 
ATOM      6  C   UNL     1       4.725   5.525  17.177  0.00  0.00    +0.000 A 
ENDROOT
BRANCH   5   7
ATOM      7  N   UNL     1       3.095   4.906  18.914  0.00  0.00    +0.000 N 
ATOM      8  C   UNL     1       1.950   4.811  18.008  0.00  0.00    +0.000 C 
ATOM      9  C   UNL     1       1.360   3.405  18.019  0.00  0.00    +0.000 C 
ATOM     10  C   UNL     1       0.957   2.814  19.374  0.00  0.00    +0.000 C 
ATOM     11  N   UNL     1       0.747   3.751  20.481  0.00  0.00    +0.000 NA
ATOM     12  C   UNL     1       2.039   4.180  21.058  0.00  0.00    +0.000 C 
ATOM     13  C   UNL     1       2.756   5.308  20.289  0.00  0.00    +0.000 C 
ATOM     14  H   UNL     1       0.237   3.252  21.212  0.00  0.00    +0.000 HD
ENDBRANCH   5   7
BRANCH   1  15
ATOM     15  O   UNL     1       6.477   6.014  15.519  0.00  0.00    +0.000 OA
BRANCH  15  16
ATOM     16  C   UNL     1       7.060   4.991  14.706  0.00  0.00    +0.000 C 
BRANCH  16  17
ATOM     17  C   UNL     1       5.940   4.118  14.135  0.00  0.00    +0.000 C 
BRANCH  17  19
ATOM     18  C   UNL     1       5.393   3.250  12.013  0.00  0.00    +0.000 C 
ATOM     19  O   UNL     1       6.415   3.407  12.991  0.00  0.00    +0.000 OA
ENDBRANCH  17  19
ENDBRANCH  16  17
ENDBRANCH  15  16
ENDBRANCH   1  15
TORSDOF 5
ENDMDL
MODEL 3
REMARK VINA RESULT:      -6.4      2.912      4.510
REMARK  Name = 
REMARK  6 active torsions:
REMARK  status: ('A' for Active; 'I' for Inactive)
REMARK    1  A    between atoms: C_1  and  O_2
REMARK    2  A    between atoms: O_2  and  C_3
REMARK    3  A    between atoms: C_3  and  C_4
REMARK    4  A    between atoms: C_4  and  O_5
REMARK    5  A    between atoms: O_5  and  C_6
REMARK    6  A    between atoms: C_10  and  N_11
REMARK                            x       y       z     vdW  Elec       q    Type
REMARK                         _______ _______ _______ _____ _____    ______ ____
ROOT
ATOM      1  C   UNL     1       5.853   6.427  17.036  0.00  0.00    +0.000 A 
ATOM      2  C   UNL     1       6.342   5.325  16.348  0.00  0.00    +0.000 A 
ATOM      3  N   UNL     1       5.749   4.112  16.337  0.00  0.00    +0.000 NA
ATOM      4  C   UNL     1       4.585   4.015  17.029  0.00  0.00    +0.000 A 
ATOM      5  C   UNL     1       3.963   5.051  17.740  0.00  0.00    +0.000 A 
ATOM      6  C   UNL     1       4.648   6.275  17.727  0.00  0.00    +0.000 A 
ENDROOT
BRANCH   5   7
ATOM      7  N   UNL     1       2.744   4.855  18.375  0.00  0.00    +0.000 N 
ATOM      8  C   UNL     1       1.609   4.199  17.725  0.00  0.00    +0.000 C 
ATOM      9  C   UNL     1       1.328   2.841  18.358  0.00  0.00    +0.000 C 
ATOM     10  C   UNL     1       1.112   2.794  19.873  0.00  0.00    +0.000 C 
ATOM     11  N   UNL     1       0.754   4.048  20.541  0.00  0.00    +0.000 NA
ATOM     12  C   UNL     1       1.949   4.896  20.742  0.00  0.00    +0.000 C 
ATOM     13  C   UNL     1       2.383   5.718  19.512  0.00  0.00    +0.000 C 
ATOM     14  H   UNL     1       0.389   3.810  21.465  0.00  0.00    +0.000 HD
ENDBRANCH   5   7
BRANCH   1  15
ATOM     15  O   UNL     1       6.568   7.585  16.919  0.00  0.00    +0.000 OA
BRANCH  15  16
ATOM     16  C   UNL     1       7.793   7.653  17.656  0.00  0.00    +0.000 C 
BRANCH  16  17
ATOM     17  C   UNL     1       8.167   9.124  17.853  0.00  0.00    +0.000 C 
BRANCH  17  19
ATOM     18  C   UNL     1       9.418  10.600  19.198  0.00  0.00    +0.000 C 
ATOM     19  O   UNL     1       8.913   9.276  19.061  0.00  0.00    +0.000 OA
ENDBRANCH  17  19
ENDBRANCH  16  17
ENDBRANCH  15  16
ENDBRANCH   1  15
TORSDOF 5
ENDMDL
MODEL 4
REMARK VINA RESULT:      -6.3      1.200      1.618
REMARK  Name = 
REMARK  6 active torsions:
REMARK  status: ('A' for Active; 'I' for Inactive)
REMARK    1  A    between atoms: C_1  and  O_2
REMARK    2  A    between atoms: O_2  and  C_3
REMARK    3  A    between atoms: C_3  and  C_4
REMARK    4  A    between atoms: C_4  and  O_5
REMARK    5  A    between atoms: O_5  and  C_6
REMARK    6  A    between atoms: C_10  and  N_11
REMARK                            x       y       z     vdW  Elec       q    Type
REMARK                         _______ _______ _______ _____ _____    ______ ____
ROOT
ATOM      1  C   UNL     1       6.807   4.702  16.899  0.00  0.00    +0.000 A 
ATOM      2  C   UNL     1       7.336   5.452  17.942  0.00  0.00    +0.000 A 
ATOM      3  N   UNL     1       6.743   5.603  19.146  0.00  0.00    +0.000 NA
ATOM      4  C   UNL     1       5.573   4.938  19.317  0.00  0.00    +0.000 A 
ATOM      5  C   UNL     1       4.941   4.124  18.365  0.00  0.00    +0.000 A 
ATOM      6  C   UNL     1       5.602   4.034  17.131  0.00  0.00    +0.000 A 
ENDROOT
BRANCH   5   7
ATOM      7  N   UNL     1       3.766   3.450  18.663  0.00  0.00    +0.000 N 
ATOM      8  C   UNL     1       3.670   2.465  19.741  0.00  0.00    +0.000 C 
ATOM      9  C   UNL     1       2.800   2.985  20.880  0.00  0.00    +0.000 C 
ATOM     10  C   UNL     1       1.388   3.465  20.534  0.00  0.00    +0.000 C 
ATOM     11  N   UNL     1       0.810   3.001  19.269  0.00  0.00    +0.000 NA
ATOM     12  C   UNL     1       1.347   3.778  18.131  0.00  0.00    +0.000 C 
ATOM     13  C   UNL     1       2.730   3.323  17.623  0.00  0.00    +0.000 C 
ATOM     14  H   UNL     1      -0.195   3.175  19.310  0.00  0.00    +0.000 HD
ENDBRANCH   5   7
BRANCH   1  15
ATOM     15  O   UNL     1       7.552   4.638  15.757  0.00  0.00    +0.000 OA
BRANCH  15  16
ATOM     16  C   UNL     1       6.884   4.991  14.542  0.00  0.00    +0.000 C 
BRANCH  16  17
ATOM     17  C   UNL     1       6.275   3.728  13.929  0.00  0.00    +0.000 C 
BRANCH  17  19
ATOM     18  C   UNL     1       5.447   2.979  11.854  0.00  0.00    +0.000 C 
ATOM     19  O   UNL     1       6.450   3.745  12.511  0.00  0.00    +0.000 OA
ENDBRANCH  17  19
ENDBRANCH  16  17
ENDBRANCH  15  16
ENDBRANCH   1  15
TORSDOF 5
ENDMDL
MODEL 5
REMARK VINA RESULT:      -6.3      1.461      1.934
REMARK  Name = 
REMARK  6 active torsions:
REMARK  status: ('A' for Active; 'I' for Inactive)
REMARK    1  A    between atoms: C_1  and  O_2
REMARK    2  A    between atoms: O_2  and  C_3
REMARK    3  A    between atoms: C_3  and  C_4
REMARK    4  A    between atoms: C_4  and  O_5
REMARK    5  A    between atoms: O_5  and  C_6
REMARK    6  A    between atoms: C_10  and  N_11
REMARK                            x       y       z     vdW  Elec       q    Type
REMARK                         _______ _______ _______ _____ _____    ______ ____
ROOT
ATOM      1  C   UNL     1       5.830   4.535  14.931  0.00  0.00    +0.000 A 
ATOM      2  C   UNL     1       7.124   4.689  15.411  0.00  0.00    +0.000 A 
ATOM      3  N   UNL     1       7.449   4.722  16.721  0.00  0.00    +0.000 NA
ATOM      4  C   UNL     1       6.421   4.561  17.591  0.00  0.00    +0.000 A 
ATOM      5  C   UNL     1       5.075   4.367  17.247  0.00  0.00    +0.000 A 
ATOM      6  C   UNL     1       4.809   4.367  15.870  0.00  0.00    +0.000 A 
ENDROOT
BRANCH   5   7
ATOM      7  N   UNL     1       4.107   4.163  18.221  0.00  0.00    +0.000 N 
ATOM      8  C   UNL     1       2.934   5.025  18.365  0.00  0.00    +0.000 C 
ATOM      9  C   UNL     1       1.659   4.282  17.980  0.00  0.00    +0.000 C 
ATOM     10  C   UNL     1       1.372   2.952  18.683  0.00  0.00    +0.000 C 
ATOM     11  N   UNL     1       2.065   2.697  19.949  0.00  0.00    +0.000 NA
ATOM     12  C   UNL     1       3.457   2.263  19.707  0.00  0.00    +0.000 C 
ATOM     13  C   UNL     1       4.460   3.402  19.432  0.00  0.00    +0.000 C 
ATOM     14  H   UNL     1       1.581   1.926  20.413  0.00  0.00    +0.000 HD
ENDBRANCH   5   7
BRANCH   1  15
ATOM     15  O   UNL     1       5.684   4.499  13.574  0.00  0.00    +0.000 OA
BRANCH  15  16
ATOM     16  C   UNL     1       6.460   3.521  12.876  0.00  0.00    +0.000 C 
BRANCH  16  17
ATOM     17  C   UNL     1       5.579   2.860  11.814  0.00  0.00    +0.000 C 
BRANCH  17  19
ATOM     18  C   UNL     1       3.574   3.291  10.652  0.00  0.00    +0.000 C 
ATOM     19  O   UNL     1       4.247   3.369  11.904  0.00  0.00    +0.000 OA
ENDBRANCH  17  19
ENDBRANCH  16  17
ENDBRANCH  15  16
ENDBRANCH   1  15
TORSDOF 5
ENDMDL
MODEL 6
REMARK VINA RESULT:      -6.3      1.291      1.407
REMARK  Name = 
REMARK  6 active torsions:
REMARK  status: ('A' for Active; 'I' for Inactive)
REMARK    1  A    between atoms: C_1  and  O_2
REMARK    2  A    between atoms: O_2  and  C_3
REMARK    3  A    between atoms: C_3  and  C_4
REMARK    4  A    between atoms: C_4  and  O_5
REMARK    5  A    between atoms: O_5  and  C_6
REMARK    6  A    between atoms: C_10  and  N_11
REMARK                            x       y       z     vdW  Elec       q    Type
REMARK                         _______ _______ _______ _____ _____    ______ ____
ROOT
ATOM      1  C   UNL     1       5.654   4.954  16.672  0.00  0.00    +0.000 A 
ATOM      2  C   UNL     1       5.763   6.338  16.656  0.00  0.00    +0.000 A 
ATOM      3  N   UNL     1       4.859   7.177  17.205  0.00  0.00    +0.000 NA
ATOM      4  C   UNL     1       3.808   6.590  17.829  0.00  0.00    +0.000 A 
ATOM      5  C   UNL     1       3.587   5.210  17.947  0.00  0.00    +0.000 A 
ATOM      6  C   UNL     1       4.553   4.400  17.333  0.00  0.00    +0.000 A 
ENDROOT
BRANCH   5   7
ATOM      7  N   UNL     1       2.499   4.714  18.652  0.00  0.00    +0.000 N 
ATOM      8  C   UNL     1       1.428   3.945  18.017  0.00  0.00    +0.000 C 
ATOM      9  C   UNL     1       1.457   2.490  18.472  0.00  0.00    +0.000 C 
ATOM     10  C   UNL     1       1.423   2.216  19.978  0.00  0.00    +0.000 C 
ATOM     11  N   UNL     1       0.932   3.289  20.847  0.00  0.00    +0.000 NA
ATOM     12  C   UNL     1       1.978   4.311  21.062  0.00  0.00    +0.000 C 
ATOM     13  C   UNL     1       2.124   5.347  19.928  0.00  0.00    +0.000 C 
ATOM     14  H   UNL     1       0.719   2.874  21.756  0.00  0.00    +0.000 HD
ENDBRANCH   5   7
BRANCH   1  15
ATOM     15  O   UNL     1       6.672   4.255  16.090  0.00  0.00    +0.000 OA
BRANCH  15  16
ATOM     16  C   UNL     1       6.977   4.588  14.732  0.00  0.00    +0.000 C 
BRANCH  16  17
ATOM     17  C   UNL     1       5.919   3.962  13.821  0.00  0.00    +0.000 C 
BRANCH  17  19
ATOM     18  C   UNL     1       5.722   2.695  11.844  0.00  0.00    +0.000 C 
ATOM     19  O   UNL     1       6.491   3.664  12.547  0.00  0.00    +0.000 OA
ENDBRANCH  17  19
ENDBRANCH  16  17
ENDBRANCH  15  16
ENDBRANCH   1  15
TORSDOF 5
ENDMDL
MODEL 7
REMARK VINA RESULT:      -6.2      3.089      4.433
REMARK  Name = 
REMARK  6 active torsions:
REMARK  status: ('A' for Active; 'I' for Inactive)
REMARK    1  A    between atoms: C_1  and  O_2
REMARK    2  A    between atoms: O_2  and  C_3
REMARK    3  A    between atoms: C_3  and  C_4
REMARK    4  A    between atoms: C_4  and  O_5
REMARK    5  A    between atoms: O_5  and  C_6
REMARK    6  A    between atoms: C_10  and  N_11
REMARK                            x       y       z     vdW  Elec       q    Type
REMARK                         _______ _______ _______ _____ _____    ______ ____
ROOT
ATOM      1  C   UNL     1       6.104   6.438  17.692  0.00  0.00    +0.000 A 
ATOM      2  C   UNL     1       7.017   5.460  18.062  0.00  0.00    +0.000 A 
ATOM      3  N   UNL     1       6.691   4.322  18.711  0.00  0.00    +0.000 NA
ATOM      4  C   UNL     1       5.371   4.148  18.974  0.00  0.00    +0.000 A 
ATOM      5  C   UNL     1       4.340   5.036  18.633  0.00  0.00    +0.000 A 
ATOM      6  C   UNL     1       4.756   6.206  17.982  0.00  0.00    +0.000 A 
ENDROOT
BRANCH   5   7
ATOM      7  N   UNL     1       3.013   4.735  18.908  0.00  0.00    +0.000 N 
ATOM      8  C   UNL     1       2.060   4.339  17.871  0.00  0.00    +0.000 C 
ATOM      9  C   UNL     1       1.662   2.875  18.026  0.00  0.00    +0.000 C 
ATOM     10  C   UNL     1       1.115   2.427  19.384  0.00  0.00    +0.000 C 
ATOM     11  N   UNL     1       0.601   3.467  20.280  0.00  0.00    +0.000 NA
ATOM     12  C   UNL     1       1.710   4.167  20.962  0.00  0.00    +0.000 C 
ATOM     13  C   UNL     1       2.397   5.272  20.133  0.00  0.00    +0.000 C 
ATOM     14  H   UNL     1       0.043   3.004  20.999  0.00  0.00    +0.000 HD
ENDBRANCH   5   7
BRANCH   1  15
ATOM     15  O   UNL     1       6.603   7.516  17.019  0.00  0.00    +0.000 OA
BRANCH  15  16
ATOM     16  C   UNL     1       7.934   7.917  17.358  0.00  0.00    +0.000 C 
BRANCH  16  17
ATOM     17  C   UNL     1       7.895   9.348  17.900  0.00  0.00    +0.000 C 
BRANCH  17  19
ATOM     18  C   UNL     1       9.562  10.792  18.729  0.00  0.00    +0.000 C 
ATOM     19  O   UNL     1       8.926   9.527  18.872  0.00  0.00    +0.000 OA
ENDBRANCH  17  19
ENDBRANCH  16  17
ENDBRANCH  15  16
ENDBRANCH   1  15
TORSDOF 5
ENDMDL
MODEL 8
REMARK VINA RESULT:      -6.2      1.392      1.952
REMARK  Name = 
REMARK  6 active torsions:
REMARK  status: ('A' for Active; 'I' for Inactive)
REMARK    1  A    between atoms: C_1  and  O_2
REMARK    2  A    between atoms: O_2  and  C_3
REMARK    3  A    between atoms: C_3  and  C_4
REMARK    4  A    between atoms: C_4  and  O_5
REMARK    5  A    between atoms: O_5  and  C_6
REMARK    6  A    between atoms: C_10  and  N_11
REMARK                            x       y       z     vdW  Elec       q    Type
REMARK                         _______ _______ _______ _____ _____    ______ ____
ROOT
ATOM      1  C   UNL     1       5.715   4.471  15.430  0.00  0.00    +0.000 A 
ATOM      2  C   UNL     1       7.054   4.664  15.745  0.00  0.00    +0.000 A 
ATOM      3  N   UNL     1       7.529   4.776  17.005  0.00  0.00    +0.000 NA
ATOM      4  C   UNL     1       6.612   4.655  17.997  0.00  0.00    +0.000 A 
ATOM      5  C   UNL     1       5.238   4.428  17.825  0.00  0.00    +0.000 A 
ATOM      6  C   UNL     1       4.813   4.347  16.491  0.00  0.00    +0.000 A 
ENDROOT
BRANCH   5   7
ATOM      7  N   UNL     1       4.394   4.271  18.915  0.00  0.00    +0.000 N 
ATOM      8  C   UNL     1       3.889   5.402  19.696  0.00  0.00    +0.000 C 
ATOM      9  C   UNL     1       2.390   5.583  19.487  0.00  0.00    +0.000 C 
ATOM     10  C   UNL     1       1.485   4.374  19.744  0.00  0.00    +0.000 C 
ATOM     11  N   UNL     1       2.027   3.292  20.571  0.00  0.00    +0.000 NA
ATOM     12  C   UNL     1       2.939   2.436  19.784  0.00  0.00    +0.000 C 
ATOM     13  C   UNL     1       4.373   2.980  19.624  0.00  0.00    +0.000 C 
ATOM     14  H   UNL     1       1.241   2.710  20.867  0.00  0.00    +0.000 HD
ENDBRANCH   5   7
BRANCH   1  15
ATOM     15  O   UNL     1       5.412   4.356  14.104  0.00  0.00    +0.000 OA
BRANCH  15  16
ATOM     16  C   UNL     1       6.414   3.764  13.271  0.00  0.00    +0.000 C 
BRANCH  16  17
ATOM     17  C   UNL     1       5.728   3.080  12.086  0.00  0.00    +0.000 C 
BRANCH  17  19
ATOM     18  C   UNL     1       6.245   0.975  11.163  0.00  0.00    +0.000 C 
ATOM     19  O   UNL     1       6.683   2.316  11.349  0.00  0.00    +0.000 OA
ENDBRANCH  17  19
ENDBRANCH  16  17
ENDBRANCH  15  16
ENDBRANCH   1  15
TORSDOF 5
ENDMDL
MODEL 9
REMARK VINA RESULT:      -6.1      1.376      2.030
REMARK  Name = 
REMARK  6 active torsions:
REMARK  status: ('A' for Active; 'I' for Inactive)
REMARK    1  A    between atoms: C_1  and  O_2
REMARK    2  A    between atoms: O_2  and  C_3
REMARK    3  A    between atoms: C_3  and  C_4
REMARK    4  A    between atoms: C_4  and  O_5
REMARK    5  A    between atoms: O_5  and  C_6
REMARK    6  A    between atoms: C_10  and  N_11
REMARK                            x       y       z     vdW  Elec       q    Type
REMARK                         _______ _______ _______ _____ _____    ______ ____
ROOT
ATOM      1  C   UNL     1       5.657   4.466  15.352  0.00  0.00    +0.000 A 
ATOM      2  C   UNL     1       6.951   4.747  15.772  0.00  0.00    +0.000 A 
ATOM      3  N   UNL     1       7.341   4.774  17.064  0.00  0.00    +0.000 NA
ATOM      4  C   UNL     1       6.385   4.473  17.978  0.00  0.00    +0.000 A 
ATOM      5  C   UNL     1       5.051   4.142  17.696  0.00  0.00    +0.000 A 
ATOM      6  C   UNL     1       4.712   4.156  16.335  0.00  0.00    +0.000 A 
ENDROOT
BRANCH   5   7
ATOM      7  N   UNL     1       4.165   3.802  18.709  0.00  0.00    +0.000 N 
ATOM      8  C   UNL     1       3.977   4.623  19.905  0.00  0.00    +0.000 C 
ATOM      9  C   UNL     1       2.596   5.270  19.912  0.00  0.00    +0.000 C 
ATOM     10  C   UNL     1       1.381   4.351  19.759  0.00  0.00    +0.000 C 
ATOM     11  N   UNL     1       1.571   2.928  20.054  0.00  0.00    +0.000 NA
ATOM     12  C   UNL     1       2.228   2.240  18.922  0.00  0.00    +0.000 C 
ATOM     13  C   UNL     1       3.761   2.394  18.862  0.00  0.00    +0.000 C 
ATOM     14  H   UNL     1       0.645   2.512  20.168  0.00  0.00    +0.000 HD
ENDBRANCH   5   7
BRANCH   1  15
ATOM     15  O   UNL     1       5.442   4.457  14.004  0.00  0.00    +0.000 OA
BRANCH  15  16
ATOM     16  C   UNL     1       6.392   3.738  13.213  0.00  0.00    +0.000 C 
BRANCH  16  17
ATOM     17  C   UNL     1       5.656   3.059  12.056  0.00  0.00    +0.000 C 
BRANCH  17  19
ATOM     18  C   UNL     1       3.658   3.214  10.817  0.00  0.00    +0.000 C 
ATOM     19  O   UNL     1       4.274   3.418  12.083  0.00  0.00    +0.000 OA
ENDBRANCH  17  19
ENDBRANCH  16  17
ENDBRANCH  15  16
ENDBRANCH   1  15
TORSDOF 5
ENDMDL
