MODEL 1
REMARK VINA RESULT:      -7.8      0.000      0.000
REMARK  Name = 
REMARK  7 active torsions:
REMARK  status: ('A' for Active; 'I' for Inactive)
REMARK    1  A    between atoms: C_1  and  C_2
REMARK    2  A    between atoms: C_2  and  C_3
REMARK    3  A    between atoms: C_3  and  C_4
REMARK    4  A    between atoms: C_4  and  N_5
REMARK    5  A    between atoms: C_9  and  S_10
REMARK    6  A    between atoms: S_10  and  C_11
REMARK    7  A    between atoms: C_11  and  C_12
REMARK                            x       y       z     vdW  Elec       q    Type
REMARK                         _______ _______ _______ _____ _____    ______ ____
ROOT
ATOM      1  N   UNL     1       7.425   6.300  18.282  0.00  0.00    +0.000 N 
ATOM      2  C   UNL     1       6.798   5.729  19.358  0.00  0.00    +0.000 A 
ATOM      3  N   UNL     1       6.010   4.744  18.996  0.00  0.00    +0.000 NA
ATOM      4  C   UNL     1       6.134   4.666  17.622  0.00  0.00    +0.000 A 
ATOM      5  C   UNL     1       5.552   3.841  16.650  0.00  0.00    +0.000 A 
ATOM      6  N   UNL     1       5.906   4.004  15.347  0.00  0.00    +0.000 NA
ATOM      7  C   UNL     1       6.818   4.959  15.044  0.00  0.00    +0.000 A 
ATOM      8  N   UNL     1       7.208   5.065  13.723  0.00  0.00    +0.000 N 
ATOM      9  N   UNL     1       7.395   5.831  15.890  0.00  0.00    +0.000 NA
ATOM     10  C   UNL     1       7.023   5.624  17.162  0.00  0.00    +0.000 A 
ATOM     11  H   UNL     1       6.513   4.674  13.099  0.00  0.00    +0.000 HD
ATOM     12  H   UNL     1       7.561   5.987  13.519  0.00  0.00    +0.000 HD
ENDROOT
BRANCH   1  13
ATOM     13  C   UNL     1       8.336   7.424  18.345  0.00  0.00    +0.000 C 
BRANCH  13  14
ATOM     14  C   UNL     1       7.704   8.709  17.818  0.00  0.00    +0.000 C 
BRANCH  14  16
ATOM     15  C   UNL     1       9.225  10.012  19.339  0.00  0.00    +0.000 C 
ATOM     16  C   UNL     1       8.655   9.897  17.935  0.00  0.00    +0.000 C 
ENDBRANCH  14  16
ENDBRANCH  13  14
ENDBRANCH   1  13
BRANCH   5  17
ATOM     17  S   UNL     1       4.273   2.727  17.197  0.00  0.00    +0.000 S 
BRANCH  17  18
ATOM     18  C   UNL     1       2.717   3.674  17.024  0.00  0.00    +0.000 C 
BRANCH  18  19
ATOM     19  C   UNL     1       2.292   4.319  18.339  0.00  0.00    +0.000 A 
ATOM     20  C   UNL     1       2.656   5.634  18.632  0.00  0.00    +0.000 A 
ATOM     21  C   UNL     1       2.288   6.250  19.840  0.00  0.00    +0.000 A 
ATOM     22  C   UNL     1       1.563   5.536  20.792  0.00  0.00    +0.000 A 
ATOM     23  C   UNL     1       1.195   4.226  20.537  0.00  0.00    +0.000 A 
ATOM     24  C   UNL     1       1.551   3.629  19.314  0.00  0.00    +0.000 A 
ATOM     25  F   UNL     1       1.131   2.375  19.104  0.00  0.00    +0.000 F 
ENDBRANCH  18  19
ENDBRANCH  17  18
ENDBRANCH   5  17
TORSDOF 6
ENDMDL
MODEL 2
REMARK VINA RESULT:      -7.5      1.006      1.445
REMARK  Name = 
REMARK  7 active torsions:
REMARK  status: ('A' for Active; 'I' for Inactive)
REMARK    1  A    between atoms: C_1  and  C_2
REMARK    2  A    between atoms: C_2  and  C_3
REMARK    3  A    between atoms: C_3  and  C_4
REMARK    4  A    between atoms: C_4  and  N_5
REMARK    5  A    between atoms: C_9  and  S_10
REMARK    6  A    between atoms: S_10  and  C_11
REMARK    7  A    between atoms: C_11  and  C_12
REMARK                            x       y       z     vdW  Elec       q    Type
REMARK                         _______ _______ _______ _____ _____    ______ ____
ROOT
ATOM      1  N   UNL     1       7.385   6.201  18.267  0.00  0.00    +0.000 N 
ATOM      2  C   UNL     1       6.732   5.574  19.294  0.00  0.00    +0.000 A 
ATOM      3  N   UNL     1       5.961   4.604  18.862  0.00  0.00    +0.000 NA
ATOM      4  C   UNL     1       6.125   4.594  17.490  0.00  0.00    +0.000 A 
ATOM      5  C   UNL     1       5.575   3.816  16.462  0.00  0.00    +0.000 A 
ATOM      6  N   UNL     1       5.964   4.046  15.180  0.00  0.00    +0.000 NA
ATOM      7  C   UNL     1       6.878   5.020  14.950  0.00  0.00    +0.000 A 
ATOM      8  N   UNL     1       7.304   5.193  13.647  0.00  0.00    +0.000 N 
ATOM      9  N   UNL     1       7.425   5.851  15.854  0.00  0.00    +0.000 NA
ATOM     10  C   UNL     1       7.019   5.580  17.103  0.00  0.00    +0.000 A 
ATOM     11  H   UNL     1       6.630   4.830  12.986  0.00  0.00    +0.000 HD
ATOM     12  H   UNL     1       7.656   6.126  13.499  0.00  0.00    +0.000 HD
ENDROOT
BRANCH   1  13
ATOM     13  C   UNL     1       8.286   7.325  18.411  0.00  0.00    +0.000 C 
BRANCH  13  14
ATOM     14  C   UNL     1       7.673   8.625  17.897  0.00  0.00    +0.000 C 
BRANCH  14  16
ATOM     15  C   UNL     1       9.142  10.077  19.333  0.00  0.00    +0.000 C 
ATOM     16  C   UNL     1       8.680   9.772  17.917  0.00  0.00    +0.000 C 
ENDBRANCH  14  16
ENDBRANCH  13  14
ENDBRANCH   1  13
BRANCH   5  17
ATOM     17  S   UNL     1       4.289   2.669  16.916  0.00  0.00    +0.000 S 
BRANCH  17  18
ATOM     18  C   UNL     1       2.799   3.703  17.156  0.00  0.00    +0.000 C 
BRANCH  18  19
ATOM     19  C   UNL     1       2.319   3.686  18.603  0.00  0.00    +0.000 A 
ATOM     20  C   UNL     1       2.148   2.477  19.278  0.00  0.00    +0.000 A 
ATOM     21  C   UNL     1       1.696   2.431  20.608  0.00  0.00    +0.000 A 
ATOM     22  C   UNL     1       1.382   3.612  21.277  0.00  0.00    +0.000 A 
ATOM     23  C   UNL     1       1.531   4.829  20.633  0.00  0.00    +0.000 A 
ATOM     24  C   UNL     1       2.006   4.861  19.309  0.00  0.00    +0.000 A 
ATOM     25  F   UNL     1       2.171   6.067  18.752  0.00  0.00    +0.000 F 
ENDBRANCH  18  19
ENDBRANCH  17  18
ENDBRANCH   5  17
TORSDOF 6
ENDMDL
MODEL 3
REMARK VINA RESULT:      -7.4      1.121      1.498
REMARK  Name = 
REMARK  7 active torsions:
REMARK  status: ('A' for Active; 'I' for Inactive)
REMARK    1  A    between atoms: C_1  and  C_2
REMARK    2  A    between atoms: C_2  and  C_3
REMARK    3  A    between atoms: C_3  and  C_4
REMARK    4  A    between atoms: C_4  and  N_5
REMARK    5  A    between atoms: C_9  and  S_10
REMARK    6  A    between atoms: S_10  and  C_11
REMARK    7  A    between atoms: C_11  and  C_12
REMARK                            x       y       z     vdW  Elec       q    Type
REMARK                         _______ _______ _______ _____ _____    ______ ____
ROOT
ATOM      1  N   UNL     1       7.425   6.262  18.434  0.00  0.00    +0.000 N 
ATOM      2  C   UNL     1       6.806   5.682  19.509  0.00  0.00    +0.000 A 
ATOM      3  N   UNL     1       5.998   4.716  19.143  0.00  0.00    +0.000 NA
ATOM      4  C   UNL     1       6.099   4.659  17.766  0.00  0.00    +0.000 A 
ATOM      5  C   UNL     1       5.488   3.861  16.789  0.00  0.00    +0.000 A 
ATOM      6  N   UNL     1       5.825   4.042  15.484  0.00  0.00    +0.000 NA
ATOM      7  C   UNL     1       6.746   4.988  15.183  0.00  0.00    +0.000 A 
ATOM      8  N   UNL     1       7.117   5.111  13.858  0.00  0.00    +0.000 N 
ATOM      9  N   UNL     1       7.350   5.836  16.034  0.00  0.00    +0.000 NA
ATOM     10  C   UNL     1       6.995   5.612  17.308  0.00  0.00    +0.000 A 
ATOM     11  H   UNL     1       6.407   4.742  13.239  0.00  0.00    +0.000 HD
ATOM     12  H   UNL     1       7.481   6.031  13.664  0.00  0.00    +0.000 HD
ENDROOT
BRANCH   1  13
ATOM     13  C   UNL     1       8.354   7.371  18.502  0.00  0.00    +0.000 C 
BRANCH  13  14
ATOM     14  C   UNL     1       7.929   8.534  17.610  0.00  0.00    +0.000 C 
BRANCH  14  16
ATOM     15  C   UNL     1       9.522  10.402  18.157  0.00  0.00    +0.000 C 
ATOM     16  C   UNL     1       8.103   9.878  18.312  0.00  0.00    +0.000 C 
ENDBRANCH  14  16
ENDBRANCH  13  14
ENDBRANCH   1  13
BRANCH   5  17
ATOM     17  S   UNL     1       4.201   2.756  17.337  0.00  0.00    +0.000 S 
BRANCH  17  18
ATOM     18  C   UNL     1       2.651   3.708  17.144  0.00  0.00    +0.000 C 
BRANCH  18  19
ATOM     19  C   UNL     1       2.351   4.566  18.369  0.00  0.00    +0.000 A 
ATOM     20  C   UNL     1       1.674   4.024  19.463  0.00  0.00    +0.000 A 
ATOM     21  C   UNL     1       1.374   4.793  20.600  0.00  0.00    +0.000 A 
ATOM     22  C   UNL     1       1.732   6.139  20.643  0.00  0.00    +0.000 A 
ATOM     23  C   UNL     1       2.396   6.710  19.570  0.00  0.00    +0.000 A 
ATOM     24  C   UNL     1       2.710   5.922  18.448  0.00  0.00    +0.000 A 
ATOM     25  F   UNL     1       3.390   6.516  17.460  0.00  0.00    +0.000 F 
ENDBRANCH  18  19
ENDBRANCH  17  18
ENDBRANCH   5  17
TORSDOF 6
ENDMDL
MODEL 4
REMARK VINA RESULT:      -7.1      3.557      6.981
REMARK  Name = 
REMARK  7 active torsions:
REMARK  status: ('A' for Active; 'I' for Inactive)
REMARK    1  A    between atoms: C_1  and  C_2
REMARK    2  A    between atoms: C_2  and  C_3
REMARK    3  A    between atoms: C_3  and  C_4
REMARK    4  A    between atoms: C_4  and  N_5
REMARK    5  A    between atoms: C_9  and  S_10
REMARK    6  A    between atoms: S_10  and  C_11
REMARK    7  A    between atoms: C_11  and  C_12
REMARK                            x       y       z     vdW  Elec       q    Type
REMARK                         _______ _______ _______ _____ _____    ______ ____
ROOT
ATOM      1  N   UNL     1       3.313   4.069  20.317  0.00  0.00    +0.000 N 
ATOM      2  C   UNL     1       4.285   3.104  20.355  0.00  0.00    +0.000 A 
ATOM      3  N   UNL     1       5.244   3.346  19.493  0.00  0.00    +0.000 NA
ATOM      4  C   UNL     1       4.885   4.525  18.870  0.00  0.00    +0.000 A 
ATOM      5  C   UNL     1       5.474   5.296  17.859  0.00  0.00    +0.000 A 
ATOM      6  N   UNL     1       4.867   6.449  17.469  0.00  0.00    +0.000 NA
ATOM      7  C   UNL     1       3.714   6.807  18.083  0.00  0.00    +0.000 A 
ATOM      8  N   UNL     1       3.148   8.013  17.713  0.00  0.00    +0.000 N 
ATOM      9  N   UNL     1       3.043   6.117  19.022  0.00  0.00    +0.000 NA
ATOM     10  C   UNL     1       3.686   4.996  19.381  0.00  0.00    +0.000 A 
ATOM     11  H   UNL     1       3.456   8.299  16.793  0.00  0.00    +0.000 HD
ATOM     12  H   UNL     1       2.159   8.026  17.906  0.00  0.00    +0.000 HD
ENDROOT
BRANCH   1  13
ATOM     13  C   UNL     1       2.111   4.077  21.125  0.00  0.00    +0.000 C 
BRANCH  13  14
ATOM     14  C   UNL     1       1.325   2.775  21.002  0.00  0.00    +0.000 C 
BRANCH  14  16
ATOM     15  C   UNL     1       1.230   2.305  18.532  0.00  0.00    +0.000 C 
ATOM     16  C   UNL     1       0.447   2.761  19.753  0.00  0.00    +0.000 C 
ENDBRANCH  14  16
ENDBRANCH  13  14
ENDBRANCH   1  13
BRANCH   5  17
ATOM     17  S   UNL     1       6.917   4.618  17.063  0.00  0.00    +0.000 S 
BRANCH  17  18
ATOM     18  C   UNL     1       7.162   5.652  15.573  0.00  0.00    +0.000 C 
BRANCH  18  19
ATOM     19  C   UNL     1       6.803   4.903  14.293  0.00  0.00    +0.000 A 
ATOM     20  C   UNL     1       5.654   4.114  14.234  0.00  0.00    +0.000 A 
ATOM     21  C   UNL     1       5.304   3.405  13.072  0.00  0.00    +0.000 A 
ATOM     22  C   UNL     1       6.129   3.458  11.951  0.00  0.00    +0.000 A 
ATOM     23  C   UNL     1       7.283   4.224  11.980  0.00  0.00    +0.000 A 
ATOM     24  C   UNL     1       7.608   4.947  13.142  0.00  0.00    +0.000 A 
ATOM     25  F   UNL     1       8.712   5.704  13.098  0.00  0.00    +0.000 F 
ENDBRANCH  18  19
ENDBRANCH  17  18
ENDBRANCH   5  17
TORSDOF 6
ENDMDL
MODEL 5
REMARK VINA RESULT:      -7.0      3.152      7.289
REMARK  Name = 
REMARK  7 active torsions:
REMARK  status: ('A' for Active; 'I' for Inactive)
REMARK    1  A    between atoms: C_1  and  C_2
REMARK    2  A    between atoms: C_2  and  C_3
REMARK    3  A    between atoms: C_3  and  C_4
REMARK    4  A    between atoms: C_4  and  N_5
REMARK    5  A    between atoms: C_9  and  S_10
REMARK    6  A    between atoms: S_10  and  C_11
REMARK    7  A    between atoms: C_11  and  C_12
REMARK                            x       y       z     vdW  Elec       q    Type
REMARK                         _______ _______ _______ _____ _____    ______ ____
ROOT
ATOM      1  N   UNL     1       4.851   4.078  18.201  0.00  0.00    +0.000 N 
ATOM      2  C   UNL     1       4.950   4.719  19.408  0.00  0.00    +0.000 A 
ATOM      3  N   UNL     1       5.821   5.699  19.368  0.00  0.00    +0.000 NA
ATOM      4  C   UNL     1       6.307   5.702  18.075  0.00  0.00    +0.000 A 
ATOM      5  C   UNL     1       7.258   6.485  17.406  0.00  0.00    +0.000 A 
ATOM      6  N   UNL     1       7.505   6.244  16.091  0.00  0.00    +0.000 NA
ATOM      7  C   UNL     1       6.812   5.255  15.477  0.00  0.00    +0.000 A 
ATOM      8  N   UNL     1       7.035   5.071  14.126  0.00  0.00    +0.000 N 
ATOM      9  N   UNL     1       5.920   4.419  16.037  0.00  0.00    +0.000 NA
ATOM     10  C   UNL     1       5.703   4.701  17.330  0.00  0.00    +0.000 A 
ATOM     11  H   UNL     1       7.933   5.442  13.845  0.00  0.00    +0.000 HD
ATOM     12  H   UNL     1       6.801   4.132  13.842  0.00  0.00    +0.000 HD
ENDROOT
BRANCH   1  13
ATOM     13  C   UNL     1       3.998   2.940  17.927  0.00  0.00    +0.000 C 
BRANCH  13  14
ATOM     14  C   UNL     1       2.534   3.343  17.771  0.00  0.00    +0.000 C 
BRANCH  14  16
ATOM     15  C   UNL     1       0.447   2.401  18.813  0.00  0.00    +0.000 C 
ATOM     16  C   UNL     1       1.751   3.140  19.066  0.00  0.00    +0.000 C 
ENDBRANCH  14  16
ENDBRANCH  13  14
ENDBRANCH   1  13
BRANCH   5  17
ATOM     17  S   UNL     1       8.177   7.654  18.389  0.00  0.00    +0.000 S 
BRANCH  17  18
ATOM     18  C   UNL     1       7.810   9.285  17.646  0.00  0.00    +0.000 C 
BRANCH  18  19
ATOM     19  C   UNL     1       8.618  10.403  18.295  0.00  0.00    +0.000 A 
ATOM     20  C   UNL     1       9.508  10.122  19.333  0.00  0.00    +0.000 A 
ATOM     21  C   UNL     1      10.257  11.134  19.958  0.00  0.00    +0.000 A 
ATOM     22  C   UNL     1      10.101  12.460  19.560  0.00  0.00    +0.000 A 
ATOM     23  C   UNL     1       9.219  12.774  18.540  0.00  0.00    +0.000 A 
ATOM     24  C   UNL     1       8.493  11.748  17.908  0.00  0.00    +0.000 A 
ATOM     25  F   UNL     1       7.688  12.106  16.899  0.00  0.00    +0.000 F 
ENDBRANCH  18  19
ENDBRANCH  17  18
ENDBRANCH   5  17
TORSDOF 6
ENDMDL
MODEL 6
REMARK VINA RESULT:      -7.0      2.040      4.603
REMARK  Name = 
REMARK  7 active torsions:
REMARK  status: ('A' for Active; 'I' for Inactive)
REMARK    1  A    between atoms: C_1  and  C_2
REMARK    2  A    between atoms: C_2  and  C_3
REMARK    3  A    between atoms: C_3  and  C_4
REMARK    4  A    between atoms: C_4  and  N_5
REMARK    5  A    between atoms: C_9  and  S_10
REMARK    6  A    between atoms: S_10  and  C_11
REMARK    7  A    between atoms: C_11  and  C_12
REMARK                            x       y       z     vdW  Elec       q    Type
REMARK                         _______ _______ _______ _____ _____    ______ ____
ROOT
ATOM      1  N   UNL     1       6.437   4.427  14.916  0.00  0.00    +0.000 N 
ATOM      2  C   UNL     1       5.598   3.451  15.384  0.00  0.00    +0.000 A 
ATOM      3  N   UNL     1       5.295   3.633  16.647  0.00  0.00    +0.000 NA
ATOM      4  C   UNL     1       5.962   4.784  17.018  0.00  0.00    +0.000 A 
ATOM      5  C   UNL     1       6.058   5.494  18.224  0.00  0.00    +0.000 A 
ATOM      6  N   UNL     1       6.798   6.634  18.262  0.00  0.00    +0.000 NA
ATOM      7  C   UNL     1       7.410   7.041  17.124  0.00  0.00    +0.000 A 
ATOM      8  N   UNL     1       8.105   8.234  17.171  0.00  0.00    +0.000 N 
ATOM      9  N   UNL     1       7.423   6.410  15.936  0.00  0.00    +0.000 NA
ATOM     10  C   UNL     1       6.672   5.299  15.945  0.00  0.00    +0.000 A 
ATOM     11  H   UNL     1       8.374   8.468  18.118  0.00  0.00    +0.000 HD
ATOM     12  H   UNL     1       8.814   8.273  16.455  0.00  0.00    +0.000 HD
ENDROOT
BRANCH   1  13
ATOM     13  C   UNL     1       6.975   4.495  13.573  0.00  0.00    +0.000 C 
BRANCH  13  14
ATOM     14  C   UNL     1       6.313   3.488  12.637  0.00  0.00    +0.000 C 
BRANCH  14  16
ATOM     15  C   UNL     1       4.265   2.966  11.271  0.00  0.00    +0.000 C 
ATOM     16  C   UNL     1       5.028   4.043  12.027  0.00  0.00    +0.000 C 
ENDBRANCH  14  16
ENDBRANCH  13  14
ENDBRANCH   1  13
BRANCH   5  17
ATOM     17  S   UNL     1       5.304   4.753  19.659  0.00  0.00    +0.000 S 
BRANCH  17  18
ATOM     18  C   UNL     1       3.637   5.502  19.754  0.00  0.00    +0.000 C 
BRANCH  18  19
ATOM     19  C   UNL     1       2.535   4.448  19.717  0.00  0.00    +0.000 A 
ATOM     20  C   UNL     1       2.089   3.850  20.896  0.00  0.00    +0.000 A 
ATOM     21  C   UNL     1       1.083   2.869  20.891  0.00  0.00    +0.000 A 
ATOM     22  C   UNL     1       0.524   2.452  19.685  0.00  0.00    +0.000 A 
ATOM     23  C   UNL     1       0.952   3.018  18.496  0.00  0.00    +0.000 A 
ATOM     24  C   UNL     1       1.943   4.016  18.518  0.00  0.00    +0.000 A 
ATOM     25  F   UNL     1       2.286   4.558  17.342  0.00  0.00    +0.000 F 
ENDBRANCH  18  19
ENDBRANCH  17  18
ENDBRANCH   5  17
TORSDOF 6
ENDMDL
MODEL 7
REMARK VINA RESULT:      -6.9      2.120      4.658
REMARK  Name = 
REMARK  7 active torsions:
REMARK  status: ('A' for Active; 'I' for Inactive)
REMARK    1  A    between atoms: C_1  and  C_2
REMARK    2  A    between atoms: C_2  and  C_3
REMARK    3  A    between atoms: C_3  and  C_4
REMARK    4  A    between atoms: C_4  and  N_5
REMARK    5  A    between atoms: C_9  and  S_10
REMARK    6  A    between atoms: S_10  and  C_11
REMARK    7  A    between atoms: C_11  and  C_12
REMARK                            x       y       z     vdW  Elec       q    Type
REMARK                         _______ _______ _______ _____ _____    ______ ____
ROOT
ATOM      1  N   UNL     1       6.427   4.400  14.908  0.00  0.00    +0.000 N 
ATOM      2  C   UNL     1       5.592   3.424  15.385  0.00  0.00    +0.000 A 
ATOM      3  N   UNL     1       5.303   3.605  16.652  0.00  0.00    +0.000 NA
ATOM      4  C   UNL     1       5.976   4.755  17.016  0.00  0.00    +0.000 A 
ATOM      5  C   UNL     1       6.086   5.463  18.221  0.00  0.00    +0.000 A 
ATOM      6  N   UNL     1       6.828   6.603  18.252  0.00  0.00    +0.000 NA
ATOM      7  C   UNL     1       7.428   7.010  17.107  0.00  0.00    +0.000 A 
ATOM      8  N   UNL     1       8.125   8.203  17.148  0.00  0.00    +0.000 N 
ATOM      9  N   UNL     1       7.426   6.381  15.919  0.00  0.00    +0.000 NA
ATOM     10  C   UNL     1       6.674   5.270  15.936  0.00  0.00    +0.000 A 
ATOM     11  H   UNL     1       8.405   8.436  18.092  0.00  0.00    +0.000 HD
ATOM     12  H   UNL     1       8.825   8.241  16.424  0.00  0.00    +0.000 HD
ENDROOT
BRANCH   1  13
ATOM     13  C   UNL     1       6.948   4.469  13.559  0.00  0.00    +0.000 C 
BRANCH  13  14
ATOM     14  C   UNL     1       6.139   3.617  12.585  0.00  0.00    +0.000 C 
BRANCH  14  16
ATOM     15  C   UNL     1       6.401   1.530  11.205  0.00  0.00    +0.000 C 
ATOM     16  C   UNL     1       7.041   2.843  11.628  0.00  0.00    +0.000 C 
ENDBRANCH  14  16
ENDBRANCH  13  14
ENDBRANCH   1  13
BRANCH   5  17
ATOM     17  S   UNL     1       5.348   4.722  19.664  0.00  0.00    +0.000 S 
BRANCH  17  18
ATOM     18  C   UNL     1       3.679   5.463  19.772  0.00  0.00    +0.000 C 
BRANCH  18  19
ATOM     19  C   UNL     1       2.579   4.420  19.597  0.00  0.00    +0.000 A 
ATOM     20  C   UNL     1       2.153   4.049  18.321  0.00  0.00    +0.000 A 
ATOM     21  C   UNL     1       1.134   3.100  18.130  0.00  0.00    +0.000 A 
ATOM     22  C   UNL     1       0.506   2.523  19.232  0.00  0.00    +0.000 A 
ATOM     23  C   UNL     1       0.899   2.877  20.512  0.00  0.00    +0.000 A 
ATOM     24  C   UNL     1       1.935   3.812  20.688  0.00  0.00    +0.000 A 
ATOM     25  F   UNL     1       2.302   4.083  21.947  0.00  0.00    +0.000 F 
ENDBRANCH  18  19
ENDBRANCH  17  18
ENDBRANCH   5  17
TORSDOF 6
ENDMDL
MODEL 8
REMARK VINA RESULT:      -6.9      3.667      8.133
REMARK  Name = 
REMARK  7 active torsions:
REMARK  status: ('A' for Active; 'I' for Inactive)
REMARK    1  A    between atoms: C_1  and  C_2
REMARK    2  A    between atoms: C_2  and  C_3
REMARK    3  A    between atoms: C_3  and  C_4
REMARK    4  A    between atoms: C_4  and  N_5
REMARK    5  A    between atoms: C_9  and  S_10
REMARK    6  A    between atoms: S_10  and  C_11
REMARK    7  A    between atoms: C_11  and  C_12
REMARK                            x       y       z     vdW  Elec       q    Type
REMARK                         _______ _______ _______ _____ _____    ______ ____
ROOT
ATOM      1  N   UNL     1       5.555   5.149  16.989  0.00  0.00    +0.000 N 
ATOM      2  C   UNL     1       5.341   6.135  16.063  0.00  0.00    +0.000 A 
ATOM      3  N   UNL     1       6.105   7.180  16.278  0.00  0.00    +0.000 NA
ATOM      4  C   UNL     1       6.856   6.857  17.392  0.00  0.00    +0.000 A 
ATOM      5  C   UNL     1       7.834   7.545  18.124  0.00  0.00    +0.000 A 
ATOM      6  N   UNL     1       8.416   6.929  19.188  0.00  0.00    +0.000 NA
ATOM      7  C   UNL     1       8.028   5.668  19.492  0.00  0.00    +0.000 A 
ATOM      8  N   UNL     1       8.677   5.041  20.539  0.00  0.00    +0.000 N 
ATOM      9  N   UNL     1       7.069   4.944  18.889  0.00  0.00    +0.000 NA
ATOM     10  C   UNL     1       6.532   5.587  17.842  0.00  0.00    +0.000 A 
ATOM     11  H   UNL     1       9.097   5.712  21.169  0.00  0.00    +0.000 HD
ATOM     12  H   UNL     1       8.108   4.310  20.937  0.00  0.00    +0.000 HD
ENDROOT
BRANCH   1  13
ATOM     13  C   UNL     1       4.852   3.883  17.040  0.00  0.00    +0.000 C 
BRANCH  13  14
ATOM     14  C   UNL     1       3.691   3.910  18.030  0.00  0.00    +0.000 C 
BRANCH  14  16
ATOM     15  C   UNL     1       1.292   3.258  18.414  0.00  0.00    +0.000 C 
ATOM     16  C   UNL     1       2.381   3.477  17.377  0.00  0.00    +0.000 C 
ENDBRANCH  14  16
ENDBRANCH  13  14
ENDBRANCH   1  13
BRANCH   5  17
ATOM     17  S   UNL     1       8.134   9.243  17.675  0.00  0.00    +0.000 S 
BRANCH  17  18
ATOM     18  C   UNL     1       9.071   9.943  19.082  0.00  0.00    +0.000 C 
BRANCH  18  19
ATOM     19  C   UNL     1       9.663  11.309  18.751  0.00  0.00    +0.000 A 
ATOM     20  C   UNL     1      10.478  11.474  17.630  0.00  0.00    +0.000 A 
ATOM     21  C   UNL     1      11.045  12.718  17.307  0.00  0.00    +0.000 A 
ATOM     22  C   UNL     1      10.820  13.820  18.129  0.00  0.00    +0.000 A 
ATOM     23  C   UNL     1      10.024  13.688  19.254  0.00  0.00    +0.000 A 
ATOM     24  C   UNL     1       9.444  12.442  19.553  0.00  0.00    +0.000 A 
ATOM     25  F   UNL     1       8.648  12.384  20.629  0.00  0.00    +0.000 F 
ENDBRANCH  18  19
ENDBRANCH  17  18
ENDBRANCH   5  17
TORSDOF 6
ENDMDL
MODEL 9
REMARK VINA RESULT:      -6.9      3.822      8.158
REMARK  Name = 
REMARK  7 active torsions:
REMARK  status: ('A' for Active; 'I' for Inactive)
REMARK    1  A    between atoms: C_1  and  C_2
REMARK    2  A    between atoms: C_2  and  C_3
REMARK    3  A    between atoms: C_3  and  C_4
REMARK    4  A    between atoms: C_4  and  N_5
REMARK    5  A    between atoms: C_9  and  S_10
REMARK    6  A    between atoms: S_10  and  C_11
REMARK    7  A    between atoms: C_11  and  C_12
REMARK                            x       y       z     vdW  Elec       q    Type
REMARK                         _______ _______ _______ _____ _____    ______ ____
ROOT
ATOM      1  N   UNL     1       5.330   5.113  17.149  0.00  0.00    +0.000 N 
ATOM      2  C   UNL     1       5.052   6.094  16.235  0.00  0.00    +0.000 A 
ATOM      3  N   UNL     1       5.833   7.138  16.389  0.00  0.00    +0.000 NA
ATOM      4  C   UNL     1       6.661   6.820  17.447  0.00  0.00    +0.000 A 
ATOM      5  C   UNL     1       7.691   7.509  18.103  0.00  0.00    +0.000 A 
ATOM      6  N   UNL     1       8.347   6.898  19.126  0.00  0.00    +0.000 NA
ATOM      7  C   UNL     1       7.978   5.640  19.466  0.00  0.00    +0.000 A 
ATOM      8  N   UNL     1       8.700   5.018  20.466  0.00  0.00    +0.000 N 
ATOM      9  N   UNL     1       6.976   4.915  18.937  0.00  0.00    +0.000 NA
ATOM     10  C   UNL     1       6.367   5.553  17.927  0.00  0.00    +0.000 A 
ATOM     11  H   UNL     1       9.165   5.691  21.060  0.00  0.00    +0.000 HD
ATOM     12  H   UNL     1       8.159   4.291  20.909  0.00  0.00    +0.000 HD
ENDROOT
BRANCH   1  13
ATOM     13  C   UNL     1       4.630   3.850  17.259  0.00  0.00    +0.000 C 
BRANCH  13  14
ATOM     14  C   UNL     1       3.553   3.881  18.340  0.00  0.00    +0.000 C 
BRANCH  14  16
ATOM     15  C   UNL     1       1.141   3.274  18.719  0.00  0.00    +0.000 C 
ATOM     16  C   UNL     1       2.150   3.852  17.739  0.00  0.00    +0.000 C 
ENDBRANCH  14  16
ENDBRANCH  13  14
ENDBRANCH   1  13
BRANCH   5  17
ATOM     17  S   UNL     1       7.962   9.204  17.623  0.00  0.00    +0.000 S 
BRANCH  17  18
ATOM     18  C   UNL     1       9.108   9.872  18.883  0.00  0.00    +0.000 C 
BRANCH  18  19
ATOM     19  C   UNL     1       9.582  11.279  18.535  0.00  0.00    +0.000 A 
ATOM     20  C   UNL     1       8.686  12.221  18.027  0.00  0.00    +0.000 A 
ATOM     21  C   UNL     1       9.096  13.522  17.687  0.00  0.00    +0.000 A 
ATOM     22  C   UNL     1      10.432  13.889  17.832  0.00  0.00    +0.000 A 
ATOM     23  C   UNL     1      11.349  12.975  18.324  0.00  0.00    +0.000 A 
ATOM     24  C   UNL     1      10.919  11.684  18.681  0.00  0.00    +0.000 A 
ATOM     25  F   UNL     1      11.840  10.857  19.193  0.00  0.00    +0.000 F 
ENDBRANCH  18  19
ENDBRANCH  17  18
ENDBRANCH   5  17
TORSDOF 6
ENDMDL
