MODEL 1
REMARK VINA RESULT:      -7.9      0.000      0.000
REMARK  Name = 
REMARK  6 active torsions:
REMARK  status: ('A' for Active; 'I' for Inactive)
REMARK    1  A    between atoms: C_1  and  O_2
REMARK    2  A    between atoms: O_2  and  C_3
REMARK    3  A    between atoms: C_6  and  N_7
REMARK    4  A    between atoms: C_11  and  C_13
REMARK    5  A    between atoms: C_21  and  C_22
REMARK    6  A    between atoms: C_30  and  C_31
REMARK                            x       y       z     vdW  Elec       q    Type
REMARK                         _______ _______ _______ _____ _____    ______ ____
ROOT
ATOM      1  N   UNL     1       2.022   8.355  19.086  0.00  0.00    +0.000 N 
ATOM      2  C   UNL     1       2.742   9.377  18.326  0.00  0.00    +0.000 C 
ATOM      3  C   UNL     1       1.726  10.432  17.864  0.00  0.00    +0.000 C 
ATOM      4  N   UNL     1       1.079  11.099  19.009  0.00  0.00    +0.000 N 
ATOM      5  C   UNL     1       1.544  12.341  19.437  0.00  0.00    +0.000 C 
ATOM      6  O   UNL     1       1.595  12.684  20.607  0.00  0.00    +0.000 OA
ATOM      7  C   UNL     1       0.356  10.105  19.915  0.00  0.00    +0.000 C 
ATOM      8  C   UNL     1       1.297   8.871  20.295  0.00  0.00    +0.000 C 
ENDROOT
BRANCH   5   9
ATOM      9  C   UNL     1       1.956  13.352  18.314  0.00  0.00    +0.000 C 
ATOM     10  C   UNL     1       3.458  13.667  18.270  0.00  0.00    +0.000 C 
ATOM     11  C   UNL     1       3.988  14.739  19.202  0.00  0.00    +0.000 C 
ATOM     12  S   UNL     1       3.102  16.270  19.179  0.00  0.00    +0.000 S 
ATOM     13  O   UNL     1       3.251  16.879  20.490  0.00  0.00    +0.000 OA
ATOM     14  O   UNL     1       3.495  16.996  17.986  0.00  0.00    +0.000 OA
ATOM     15  C   UNL     1       1.397  15.841  19.005  0.00  0.00    +0.000 C 
ATOM     16  C   UNL     1       1.083  14.612  18.170  0.00  0.00    +0.000 C 
ENDBRANCH   5   9
BRANCH   1  20
ATOM     17  C   UNL     1       3.328   4.347  18.608  0.00  0.00    +0.000 A 
ATOM     18  C   UNL     1       2.459   4.689  19.642  0.00  0.00    +0.000 A 
ATOM     19  C   UNL     1       1.995   6.009  19.780  0.00  0.00    +0.000 A 
ATOM     20  C   UNL     1       2.372   7.028  18.896  0.00  0.00    +0.000 A 
ATOM     21  C   UNL     1       3.257   6.667  17.875  0.00  0.00    +0.000 A 
ATOM     22  C   UNL     1       3.768   5.346  17.734  0.00  0.00    +0.000 A 
BRANCH  22  23
ATOM     23  C   UNL     1       4.775   5.105  16.637  0.00  0.00    +0.000 C 
ATOM     24  F   UNL     1       4.504   4.091  15.770  0.00  0.00    +0.000 F 
ATOM     25  F   UNL     1       4.947   6.213  15.858  0.00  0.00    +0.000 F 
ATOM     26  F   UNL     1       6.015   4.826  17.139  0.00  0.00    +0.000 F 
ENDBRANCH  22  23
BRANCH  17  28
ATOM     27  C   UNL     1       2.908   2.099  17.972  0.00  0.00    +0.000 C 
ATOM     28  O   UNL     1       3.828   3.083  18.441  0.00  0.00    +0.000 OA
ENDBRANCH  17  28
ENDBRANCH   1  20
BRANCH   7  29
ATOM     29  C   UNL     1      -0.581  10.716  20.974  0.00  0.00    +0.000 A 
ATOM     30  C   UNL     1      -0.452  10.349  22.335  0.00  0.00    +0.000 A 
ATOM     31  C   UNL     1      -1.270  10.862  23.348  0.00  0.00    +0.000 A 
ATOM     32  C   UNL     1      -2.203  11.844  23.049  0.00  0.00    +0.000 A 
ATOM     33  C   UNL     1      -2.306  12.292  21.734  0.00  0.00    +0.000 A 
ATOM     34  C   UNL     1      -1.518  11.729  20.705  0.00  0.00    +0.000 A 
ENDBRANCH   7  29
TORSDOF 5
ENDMDL
MODEL 2
REMARK VINA RESULT:      -7.9      0.460      1.134
REMARK  Name = 
REMARK  6 active torsions:
REMARK  status: ('A' for Active; 'I' for Inactive)
REMARK    1  A    between atoms: C_1  and  O_2
REMARK    2  A    between atoms: O_2  and  C_3
REMARK    3  A    between atoms: C_6  and  N_7
REMARK    4  A    between atoms: C_11  and  C_13
REMARK    5  A    between atoms: C_21  and  C_22
REMARK    6  A    between atoms: C_30  and  C_31
REMARK                            x       y       z     vdW  Elec       q    Type
REMARK                         _______ _______ _______ _____ _____    ______ ____
ROOT
ATOM      1  N   UNL     1       1.958   8.384  19.238  0.00  0.00    +0.000 N 
ATOM      2  C   UNL     1       2.684   9.373  18.440  0.00  0.00    +0.000 C 
ATOM      3  C   UNL     1       1.679  10.430  17.960  0.00  0.00    +0.000 C 
ATOM      4  N   UNL     1       1.057  11.139  19.093  0.00  0.00    +0.000 N 
ATOM      5  C   UNL     1       1.546  12.386  19.479  0.00  0.00    +0.000 C 
ATOM      6  O   UNL     1       1.616  12.762  20.638  0.00  0.00    +0.000 OA
ATOM      7  C   UNL     1       0.330  10.183  20.037  0.00  0.00    +0.000 C 
ATOM      8  C   UNL     1       1.257   8.946  20.440  0.00  0.00    +0.000 C 
ENDROOT
BRANCH   5   9
ATOM      9  C   UNL     1       1.958  13.357  18.322  0.00  0.00    +0.000 C 
ATOM     10  C   UNL     1       3.460  13.674  18.270  0.00  0.00    +0.000 C 
ATOM     11  C   UNL     1       3.985  14.780  19.166  0.00  0.00    +0.000 C 
ATOM     12  S   UNL     1       3.095  16.307  19.086  0.00  0.00    +0.000 S 
ATOM     13  O   UNL     1       3.239  16.962  20.375  0.00  0.00    +0.000 OA
ATOM     14  O   UNL     1       3.489  16.991  17.869  0.00  0.00    +0.000 OA
ATOM     15  C   UNL     1       1.391  15.868  18.922  0.00  0.00    +0.000 C 
ATOM     16  C   UNL     1       1.083  14.609  18.131  0.00  0.00    +0.000 C 
ENDBRANCH   5   9
BRANCH   1  20
ATOM     17  C   UNL     1       3.198   4.344  18.860  0.00  0.00    +0.000 A 
ATOM     18  C   UNL     1       2.352   4.731  19.898  0.00  0.00    +0.000 A 
ATOM     19  C   UNL     1       1.911   6.061  20.004  0.00  0.00    +0.000 A 
ATOM     20  C   UNL     1       2.286   7.047  19.082  0.00  0.00    +0.000 A 
ATOM     21  C   UNL     1       3.147   6.643  18.057  0.00  0.00    +0.000 A 
ATOM     22  C   UNL     1       3.636   5.310  17.948  0.00  0.00    +0.000 A 
BRANCH  22  23
ATOM     23  C   UNL     1       4.620   5.020  16.841  0.00  0.00    +0.000 C 
ATOM     24  F   UNL     1       5.874   4.651  17.218  0.00  0.00    +0.000 F 
ATOM     25  F   UNL     1       4.176   4.021  16.022  0.00  0.00    +0.000 F 
ATOM     26  F   UNL     1       4.795   6.101  16.023  0.00  0.00    +0.000 F 
ENDBRANCH  22  23
BRANCH  17  28
ATOM     27  C   UNL     1       4.355   2.525  19.854  0.00  0.00    +0.000 C 
ATOM     28  O   UNL     1       3.676   3.069  18.723  0.00  0.00    +0.000 OA
ENDBRANCH  17  28
ENDBRANCH   1  20
BRANCH   7  29
ATOM     29  C   UNL     1      -0.583  10.839  21.089  0.00  0.00    +0.000 A 
ATOM     30  C   UNL     1      -1.569  11.773  20.691  0.00  0.00    +0.000 A 
ATOM     31  C   UNL     1      -2.430  12.410  21.594  0.00  0.00    +0.000 A 
ATOM     32  C   UNL     1      -2.399  12.064  22.937  0.00  0.00    +0.000 A 
ATOM     33  C   UNL     1      -1.497  11.089  23.356  0.00  0.00    +0.000 A 
ATOM     34  C   UNL     1      -0.591  10.492  22.451  0.00  0.00    +0.000 A 
ENDBRANCH   7  29
TORSDOF 5
ENDMDL
MODEL 3
REMARK VINA RESULT:      -7.8      1.843      2.280
REMARK  Name = 
REMARK  6 active torsions:
REMARK  status: ('A' for Active; 'I' for Inactive)
REMARK    1  A    between atoms: C_1  and  O_2
REMARK    2  A    between atoms: O_2  and  C_3
REMARK    3  A    between atoms: C_6  and  N_7
REMARK    4  A    between atoms: C_11  and  C_13
REMARK    5  A    between atoms: C_21  and  C_22
REMARK    6  A    between atoms: C_30  and  C_31
REMARK                            x       y       z     vdW  Elec       q    Type
REMARK                         _______ _______ _______ _____ _____    ______ ____
ROOT
ATOM      1  N   UNL     1       2.169   8.049  18.893  0.00  0.00    +0.000 N 
ATOM      2  C   UNL     1       2.843   9.090  18.117  0.00  0.00    +0.000 C 
ATOM      3  C   UNL     1       1.802  10.155  17.741  0.00  0.00    +0.000 C 
ATOM      4  N   UNL     1       1.224  10.792  18.938  0.00  0.00    +0.000 N 
ATOM      5  C   UNL     1       1.713  12.025  19.368  0.00  0.00    +0.000 C 
ATOM      6  O   UNL     1       1.832  12.340  20.541  0.00  0.00    +0.000 OA
ATOM      7  C   UNL     1       0.555   9.776  19.861  0.00  0.00    +0.000 C 
ATOM      8  C   UNL     1       1.517   8.535  20.154  0.00  0.00    +0.000 C 
ENDROOT
BRANCH   5   9
ATOM      9  C   UNL     1       2.058  13.063  18.248  0.00  0.00    +0.000 C 
ATOM     10  C   UNL     1       3.515  13.545  18.261  0.00  0.00    +0.000 C 
ATOM     11  C   UNL     1       3.881  14.680  19.198  0.00  0.00    +0.000 C 
ATOM     12  S   UNL     1       2.831  16.101  19.113  0.00  0.00    +0.000 S 
ATOM     13  O   UNL     1       2.854  16.737  20.420  0.00  0.00    +0.000 OA
ATOM     14  O   UNL     1       3.192  16.854  17.927  0.00  0.00    +0.000 OA
ATOM     15  C   UNL     1       1.194  15.481  18.874  0.00  0.00    +0.000 C 
ATOM     16  C   UNL     1       1.057  14.215  18.046  0.00  0.00    +0.000 C 
ENDBRANCH   5   9
BRANCH   1  20
ATOM     17  C   UNL     1       2.993   3.984  17.999  0.00  0.00    +0.000 A 
ATOM     18  C   UNL     1       3.704   5.006  17.371  0.00  0.00    +0.000 A 
ATOM     19  C   UNL     1       3.458   6.352  17.693  0.00  0.00    +0.000 A 
ATOM     20  C   UNL     1       2.507   6.728  18.650  0.00  0.00    +0.000 A 
ATOM     21  C   UNL     1       1.794   5.689  19.257  0.00  0.00    +0.000 A 
ATOM     22  C   UNL     1       1.999   4.320  18.924  0.00  0.00    +0.000 A 
BRANCH  22  23
ATOM     23  C   UNL     1       1.111   3.302  19.595  0.00  0.00    +0.000 C 
ATOM     24  F   UNL     1       1.729   2.366  20.367  0.00  0.00    +0.000 F 
ATOM     25  F   UNL     1       0.190   3.896  20.410  0.00  0.00    +0.000 F 
ATOM     26  F   UNL     1       0.378   2.591  18.687  0.00  0.00    +0.000 F 
ENDBRANCH  22  23
BRANCH  17  28
ATOM     27  C   UNL     1       4.192   1.985  18.449  0.00  0.00    +0.000 C 
ATOM     28  O   UNL     1       3.176   2.659  17.708  0.00  0.00    +0.000 OA
ENDBRANCH  17  28
ENDBRANCH   1  20
BRANCH   7  29
ATOM     29  C   UNL     1      -0.317  10.360  20.988  0.00  0.00    +0.000 A 
ATOM     30  C   UNL     1      -0.171   9.892  22.316  0.00  0.00    +0.000 A 
ATOM     31  C   UNL     1      -0.933  10.376  23.386  0.00  0.00    +0.000 A 
ATOM     32  C   UNL     1      -1.819  11.424  23.184  0.00  0.00    +0.000 A 
ATOM     33  C   UNL     1      -1.933  11.967  21.907  0.00  0.00    +0.000 A 
ATOM     34  C   UNL     1      -1.205  11.437  20.818  0.00  0.00    +0.000 A 
ENDBRANCH   7  29
TORSDOF 5
ENDMDL
MODEL 4
REMARK VINA RESULT:      -7.8      2.008      2.560
REMARK  Name = 
REMARK  6 active torsions:
REMARK  status: ('A' for Active; 'I' for Inactive)
REMARK    1  A    between atoms: C_1  and  O_2
REMARK    2  A    between atoms: O_2  and  C_3
REMARK    3  A    between atoms: C_6  and  N_7
REMARK    4  A    between atoms: C_11  and  C_13
REMARK    5  A    between atoms: C_21  and  C_22
REMARK    6  A    between atoms: C_30  and  C_31
REMARK                            x       y       z     vdW  Elec       q    Type
REMARK                         _______ _______ _______ _____ _____    ______ ____
ROOT
ATOM      1  N   UNL     1       1.884   7.925  19.235  0.00  0.00    +0.000 N 
ATOM      2  C   UNL     1       2.632   8.871  18.407  0.00  0.00    +0.000 C 
ATOM      3  C   UNL     1       1.668   9.976  17.954  0.00  0.00    +0.000 C 
ATOM      4  N   UNL     1       1.122  10.722  19.103  0.00  0.00    +0.000 N 
ATOM      5  C   UNL     1       1.688  11.943  19.465  0.00  0.00    +0.000 C 
ATOM      6  O   UNL     1       1.817  12.320  20.619  0.00  0.00    +0.000 OA
ATOM      7  C   UNL     1       0.379   9.809  20.077  0.00  0.00    +0.000 C 
ATOM      8  C   UNL     1       1.254   8.527  20.456  0.00  0.00    +0.000 C 
ENDROOT
BRANCH   5   9
ATOM      9  C   UNL     1       2.111  12.887  18.290  0.00  0.00    +0.000 C 
ATOM     10  C   UNL     1       3.577  13.342  18.342  0.00  0.00    +0.000 C 
ATOM     11  C   UNL     1       3.920  14.538  19.209  0.00  0.00    +0.000 C 
ATOM     12  S   UNL     1       2.908  15.967  18.964  0.00  0.00    +0.000 S 
ATOM     13  O   UNL     1       2.879  16.700  20.219  0.00  0.00    +0.000 OA
ATOM     14  O   UNL     1       3.344  16.621  17.745  0.00  0.00    +0.000 OA
ATOM     15  C   UNL     1       1.271  15.361  18.688  0.00  0.00    +0.000 C 
ATOM     16  C   UNL     1       1.147  14.039  17.952  0.00  0.00    +0.000 C 
ENDBRANCH   5   9
BRANCH   1  20
ATOM     17  C   UNL     1       2.403   3.737  18.788  0.00  0.00    +0.000 A 
ATOM     18  C   UNL     1       2.385   4.572  17.671  0.00  0.00    +0.000 A 
ATOM     19  C   UNL     1       2.250   5.963  17.820  0.00  0.00    +0.000 A 
ATOM     20  C   UNL     1       2.136   6.572  19.076  0.00  0.00    +0.000 A 
ATOM     21  C   UNL     1       2.141   5.716  20.182  0.00  0.00    +0.000 A 
ATOM     22  C   UNL     1       2.241   4.301  20.058  0.00  0.00    +0.000 A 
BRANCH  22  23
ATOM     23  C   UNL     1       2.157   3.485  21.323  0.00  0.00    +0.000 C 
ATOM     24  F   UNL     1       0.991   2.820  21.546  0.00  0.00    +0.000 F 
ATOM     25  F   UNL     1       3.135   2.533  21.375  0.00  0.00    +0.000 F 
ATOM     26  F   UNL     1       2.349   4.254  22.437  0.00  0.00    +0.000 F 
ENDBRANCH  22  23
BRANCH  17  28
ATOM     27  C   UNL     1       3.712   1.873  18.120  0.00  0.00    +0.000 C 
ATOM     28  O   UNL     1       2.509   2.376  18.700  0.00  0.00    +0.000 OA
ENDBRANCH  17  28
ENDBRANCH   1  20
BRANCH   7  29
ATOM     29  C   UNL     1      -0.463  10.516  21.155  0.00  0.00    +0.000 A 
ATOM     30  C   UNL     1      -1.355  11.553  20.793  0.00  0.00    +0.000 A 
ATOM     31  C   UNL     1      -2.148  12.241  21.720  0.00  0.00    +0.000 A 
ATOM     32  C   UNL     1      -2.146  11.851  23.051  0.00  0.00    +0.000 A 
ATOM     33  C   UNL     1      -1.342  10.780  23.434  0.00  0.00    +0.000 A 
ATOM     34  C   UNL     1      -0.500  10.128  22.505  0.00  0.00    +0.000 A 
ENDBRANCH   7  29
TORSDOF 5
ENDMDL
MODEL 5
REMARK VINA RESULT:      -7.6      0.777      1.038
REMARK  Name = 
REMARK  6 active torsions:
REMARK  status: ('A' for Active; 'I' for Inactive)
REMARK    1  A    between atoms: C_1  and  O_2
REMARK    2  A    between atoms: O_2  and  C_3
REMARK    3  A    between atoms: C_6  and  N_7
REMARK    4  A    between atoms: C_11  and  C_13
REMARK    5  A    between atoms: C_21  and  C_22
REMARK    6  A    between atoms: C_30  and  C_31
REMARK                            x       y       z     vdW  Elec       q    Type
REMARK                         _______ _______ _______ _____ _____    ______ ____
ROOT
ATOM      1  N   UNL     1       2.240   8.125  18.612  0.00  0.00    +0.000 N 
ATOM      2  C   UNL     1       2.846   9.234  17.875  0.00  0.00    +0.000 C 
ATOM      3  C   UNL     1       1.761  10.291  17.625  0.00  0.00    +0.000 C 
ATOM      4  N   UNL     1       1.231  10.831  18.890  0.00  0.00    +0.000 N 
ATOM      5  C   UNL     1       1.711  12.046  19.376  0.00  0.00    +0.000 C 
ATOM      6  O   UNL     1       1.885  12.286  20.560  0.00  0.00    +0.000 OA
ATOM      7  C   UNL     1       0.637   9.737  19.775  0.00  0.00    +0.000 C 
ATOM      8  C   UNL     1       1.644   8.508  19.935  0.00  0.00    +0.000 C 
ENDROOT
BRANCH   5   9
ATOM      9  C   UNL     1       1.971  13.165  18.312  0.00  0.00    +0.000 C 
ATOM     10  C   UNL     1       3.415  13.684  18.281  0.00  0.00    +0.000 C 
ATOM     11  C   UNL     1       3.806  14.763  19.272  0.00  0.00    +0.000 C 
ATOM     12  S   UNL     1       2.721  16.158  19.340  0.00  0.00    +0.000 S 
ATOM     13  O   UNL     1       2.801  16.706  20.684  0.00  0.00    +0.000 OA
ATOM     14  O   UNL     1       2.999  16.998  18.190  0.00  0.00    +0.000 OA
ATOM     15  C   UNL     1       1.088  15.513  19.147  0.00  0.00    +0.000 C 
ATOM     16  C   UNL     1       0.934  14.302  18.243  0.00  0.00    +0.000 C 
ENDBRANCH   5   9
BRANCH   1  20
ATOM     17  C   UNL     1       3.483   4.158  17.763  0.00  0.00    +0.000 A 
ATOM     18  C   UNL     1       2.212   4.407  18.278  0.00  0.00    +0.000 A 
ATOM     19  C   UNL     1       1.785   5.723  18.525  0.00  0.00    +0.000 A 
ATOM     20  C   UNL     1       2.599   6.833  18.264  0.00  0.00    +0.000 A 
ATOM     21  C   UNL     1       3.875   6.561  17.762  0.00  0.00    +0.000 A 
ATOM     22  C   UNL     1       4.345   5.236  17.536  0.00  0.00    +0.000 A 
BRANCH  22  23
ATOM     23  C   UNL     1       5.769   5.075  17.065  0.00  0.00    +0.000 C 
ATOM     24  F   UNL     1       6.433   6.213  16.724  0.00  0.00    +0.000 F 
ATOM     25  F   UNL     1       6.547   4.469  18.010  0.00  0.00    +0.000 F 
ATOM     26  F   UNL     1       5.851   4.269  15.964  0.00  0.00    +0.000 F 
ENDBRANCH  22  23
BRANCH  17  28
ATOM     27  C   UNL     1       3.516   1.877  18.420  0.00  0.00    +0.000 C 
ATOM     28  O   UNL     1       3.958   2.897  17.525  0.00  0.00    +0.000 OA
ENDBRANCH  17  28
ENDBRANCH   1  20
BRANCH   7  29
ATOM     29  C   UNL     1      -0.189  10.221  20.982  0.00  0.00    +0.000 A 
ATOM     30  C   UNL     1       0.078   9.713  22.275  0.00  0.00    +0.000 A 
ATOM     31  C   UNL     1      -0.636  10.105  23.414  0.00  0.00    +0.000 A 
ATOM     32  C   UNL     1      -1.596  11.102  23.317  0.00  0.00    +0.000 A 
ATOM     33  C   UNL     1      -1.831  11.686  22.075  0.00  0.00    +0.000 A 
ATOM     34  C   UNL     1      -1.150  11.245  20.918  0.00  0.00    +0.000 A 
ENDBRANCH   7  29
TORSDOF 5
ENDMDL
MODEL 6
REMARK VINA RESULT:      -7.5      1.508      2.090
REMARK  Name = 
REMARK  6 active torsions:
REMARK  status: ('A' for Active; 'I' for Inactive)
REMARK    1  A    between atoms: C_1  and  O_2
REMARK    2  A    between atoms: O_2  and  C_3
REMARK    3  A    between atoms: C_6  and  N_7
REMARK    4  A    between atoms: C_11  and  C_13
REMARK    5  A    between atoms: C_21  and  C_22
REMARK    6  A    between atoms: C_30  and  C_31
REMARK                            x       y       z     vdW  Elec       q    Type
REMARK                         _______ _______ _______ _____ _____    ______ ____
ROOT
ATOM      1  N   UNL     1       0.994   9.629  19.932  0.00  0.00    +0.000 N 
ATOM      2  C   UNL     1       1.696  10.660  19.167  0.00  0.00    +0.000 C 
ATOM      3  C   UNL     1       0.647  11.612  18.575  0.00  0.00    +0.000 C 
ATOM      4  N   UNL     1      -0.126  12.289  19.632  0.00  0.00    +0.000 N 
ATOM      5  C   UNL     1       0.220  13.583  20.018  0.00  0.00    +0.000 C 
ATOM      6  O   UNL     1       0.161  13.990  21.168  0.00  0.00    +0.000 OA
ATOM      7  C   UNL     1      -0.844  11.294  20.542  0.00  0.00    +0.000 C 
ATOM      8  C   UNL     1       0.150  10.154  21.056  0.00  0.00    +0.000 C 
ENDROOT
BRANCH   5   9
ATOM      9  C   UNL     1       0.642  14.560  18.871  0.00  0.00    +0.000 C 
ATOM     10  C   UNL     1       2.122  14.969  18.902  0.00  0.00    +0.000 C 
ATOM     11  C   UNL     1       2.524  16.118  19.806  0.00  0.00    +0.000 C 
ATOM     12  S   UNL     1       1.551  17.586  19.645  0.00  0.00    +0.000 S 
ATOM     13  O   UNL     1       1.577  18.267  20.929  0.00  0.00    +0.000 OA
ATOM     14  O   UNL     1       1.975  18.275  18.442  0.00  0.00    +0.000 OA
ATOM     15  C   UNL     1      -0.111  17.040  19.389  0.00  0.00    +0.000 C 
ATOM     16  C   UNL     1      -0.294  15.753  18.604  0.00  0.00    +0.000 C 
ENDBRANCH   5   9
BRANCH   1  20
ATOM     17  C   UNL     1       2.617   5.713  19.749  0.00  0.00    +0.000 A 
ATOM     18  C   UNL     1       1.764   6.078  20.790  0.00  0.00    +0.000 A 
ATOM     19  C   UNL     1       1.197   7.364  20.833  0.00  0.00    +0.000 A 
ATOM     20  C   UNL     1       1.448   8.323  19.844  0.00  0.00    +0.000 A 
ATOM     21  C   UNL     1       2.318   7.942  18.817  0.00  0.00    +0.000 A 
ATOM     22  C   UNL     1       2.934   6.659  18.769  0.00  0.00    +0.000 A 
BRANCH  22  23
ATOM     23  C   UNL     1       3.911   6.400  17.650  0.00  0.00    +0.000 C 
ATOM     24  F   UNL     1       3.707   5.278  16.907  0.00  0.00    +0.000 F 
ATOM     25  F   UNL     1       3.936   7.430  16.753  0.00  0.00    +0.000 F 
ATOM     26  F   UNL     1       5.194   6.297  18.110  0.00  0.00    +0.000 F 
ENDBRANCH  22  23
BRANCH  17  28
ATOM     27  C   UNL     1       2.362   3.389  19.338  0.00  0.00    +0.000 C 
ATOM     28  O   UNL     1       3.214   4.484  19.671  0.00  0.00    +0.000 OA
ENDBRANCH  17  28
ENDBRANCH   1  20
BRANCH   7  29
ATOM     29  C   UNL     1      -1.895  11.891  21.497  0.00  0.00    +0.000 A 
ATOM     30  C   UNL     1      -3.020  12.575  20.977  0.00  0.00    +0.000 A 
ATOM     31  C   UNL     1      -4.011  13.144  21.786  0.00  0.00    +0.000 A 
ATOM     32  C   UNL     1      -3.962  12.971  23.161  0.00  0.00    +0.000 A 
ATOM     33  C   UNL     1      -2.913  12.234  23.706  0.00  0.00    +0.000 A 
ATOM     34  C   UNL     1      -1.884  11.711  22.891  0.00  0.00    +0.000 A 
ENDBRANCH   7  29
TORSDOF 5
ENDMDL
MODEL 7
REMARK VINA RESULT:      -7.4      2.588      4.605
REMARK  Name = 
REMARK  6 active torsions:
REMARK  status: ('A' for Active; 'I' for Inactive)
REMARK    1  A    between atoms: C_1  and  O_2
REMARK    2  A    between atoms: O_2  and  C_3
REMARK    3  A    between atoms: C_6  and  N_7
REMARK    4  A    between atoms: C_11  and  C_13
REMARK    5  A    between atoms: C_21  and  C_22
REMARK    6  A    between atoms: C_30  and  C_31
REMARK                            x       y       z     vdW  Elec       q    Type
REMARK                         _______ _______ _______ _____ _____    ______ ____
ROOT
ATOM      1  N   UNL     1       1.072   8.969  20.299  0.00  0.00    +0.000 N 
ATOM      2  C   UNL     1      -0.169   9.058  21.070  0.00  0.00    +0.000 C 
ATOM      3  C   UNL     1      -0.044  10.240  22.041  0.00  0.00    +0.000 C 
ATOM      4  N   UNL     1       0.128  11.515  21.322  0.00  0.00    +0.000 N 
ATOM      5  C   UNL     1      -0.973  12.344  21.114  0.00  0.00    +0.000 C 
ATOM      6  O   UNL     1      -1.151  13.001  20.100  0.00  0.00    +0.000 OA
ATOM      7  C   UNL     1       1.363  11.503  20.422  0.00  0.00    +0.000 C 
ATOM      8  C   UNL     1       1.401  10.197  19.503  0.00  0.00    +0.000 C 
ENDROOT
BRANCH   5   9
ATOM      9  C   UNL     1      -1.986  12.462  22.302  0.00  0.00    +0.000 C 
ATOM     10  C   UNL     1      -3.432  12.744  21.872  0.00  0.00    +0.000 C 
ATOM     11  C   UNL     1      -3.828  14.184  21.605  0.00  0.00    +0.000 C 
ATOM     12  S   UNL     1      -3.397  15.336  22.876  0.00  0.00    +0.000 S 
ATOM     13  O   UNL     1      -3.203  16.629  22.242  0.00  0.00    +0.000 OA
ATOM     14  O   UNL     1      -4.350  15.187  23.959  0.00  0.00    +0.000 OA
ATOM     15  C   UNL     1      -1.818  14.821  23.481  0.00  0.00    +0.000 C 
ATOM     16  C   UNL     1      -1.546  13.328  23.497  0.00  0.00    +0.000 C 
ENDBRANCH   5   9
BRANCH   1  20
ATOM     17  C   UNL     1       2.908   5.205  19.615  0.00  0.00    +0.000 A 
ATOM     18  C   UNL     1       2.052   5.389  20.700  0.00  0.00    +0.000 A 
ATOM     19  C   UNL     1       1.414   6.624  20.907  0.00  0.00    +0.000 A 
ATOM     20  C   UNL     1       1.597   7.712  20.044  0.00  0.00    +0.000 A 
ATOM     21  C   UNL     1       2.471   7.512  18.971  0.00  0.00    +0.000 A 
ATOM     22  C   UNL     1       3.157   6.283  18.758  0.00  0.00    +0.000 A 
BRANCH  22  23
ATOM     23  C   UNL     1       4.130   6.221  17.608  0.00  0.00    +0.000 C 
ATOM     24  F   UNL     1       3.999   5.172  16.751  0.00  0.00    +0.000 F 
ATOM     25  F   UNL     1       4.059   7.340  16.827  0.00  0.00    +0.000 F 
ATOM     26  F   UNL     1       5.425   6.170  18.041  0.00  0.00    +0.000 F 
ENDBRANCH  22  23
BRANCH  17  28
ATOM     27  C   UNL     1       3.221   2.929  20.213  0.00  0.00    +0.000 C 
ATOM     28  O   UNL     1       3.572   4.032  19.378  0.00  0.00    +0.000 OA
ENDBRANCH  17  28
ENDBRANCH   1  20
BRANCH   7  29
ATOM     29  C   UNL     1       1.792  12.866  19.847  0.00  0.00    +0.000 A 
ATOM     30  C   UNL     1       2.147  13.924  20.717  0.00  0.00    +0.000 A 
ATOM     31  C   UNL     1       2.542  15.189  20.263  0.00  0.00    +0.000 A 
ATOM     32  C   UNL     1       2.686  15.419  18.903  0.00  0.00    +0.000 A 
ATOM     33  C   UNL     1       2.424  14.377  18.016  0.00  0.00    +0.000 A 
ATOM     34  C   UNL     1       1.969  13.120  18.476  0.00  0.00    +0.000 A 
ENDBRANCH   7  29
TORSDOF 5
ENDMDL
MODEL 8
REMARK VINA RESULT:      -7.3      1.481      2.013
REMARK  Name = 
REMARK  6 active torsions:
REMARK  status: ('A' for Active; 'I' for Inactive)
REMARK    1  A    between atoms: C_1  and  O_2
REMARK    2  A    between atoms: O_2  and  C_3
REMARK    3  A    between atoms: C_6  and  N_7
REMARK    4  A    between atoms: C_11  and  C_13
REMARK    5  A    between atoms: C_21  and  C_22
REMARK    6  A    between atoms: C_30  and  C_31
REMARK                            x       y       z     vdW  Elec       q    Type
REMARK                         _______ _______ _______ _____ _____    ______ ____
ROOT
ATOM      1  N   UNL     1       0.961   9.627  19.898  0.00  0.00    +0.000 N 
ATOM      2  C   UNL     1       1.661  10.665  19.142  0.00  0.00    +0.000 C 
ATOM      3  C   UNL     1       0.609  11.596  18.522  0.00  0.00    +0.000 C 
ATOM      4  N   UNL     1      -0.199  12.264  19.558  0.00  0.00    +0.000 N 
ATOM      5  C   UNL     1       0.116  13.567  19.945  0.00  0.00    +0.000 C 
ATOM      6  O   UNL     1       0.024  13.979  21.091  0.00  0.00    +0.000 OA
ATOM      7  C   UNL     1      -0.919  11.262  20.459  0.00  0.00    +0.000 C 
ATOM      8  C   UNL     1       0.083  10.142  21.001  0.00  0.00    +0.000 C 
ENDROOT
BRANCH   5   9
ATOM      9  C   UNL     1       0.545  14.545  18.801  0.00  0.00    +0.000 C 
ATOM     10  C   UNL     1       2.054  14.822  18.742  0.00  0.00    +0.000 C 
ATOM     11  C   UNL     1       2.617  15.898  19.651  0.00  0.00    +0.000 C 
ATOM     12  S   UNL     1       1.770  17.449  19.603  0.00  0.00    +0.000 S 
ATOM     13  O   UNL     1       1.942  18.079  20.902  0.00  0.00    +0.000 OA
ATOM     14  O   UNL     1       2.173  18.143  18.395  0.00  0.00    +0.000 OA
ATOM     15  C   UNL     1       0.053  17.060  19.447  0.00  0.00    +0.000 C 
ATOM     16  C   UNL     1      -0.296  15.824  18.638  0.00  0.00    +0.000 C 
ENDBRANCH   5   9
BRANCH   1  20
ATOM     17  C   UNL     1       2.657   5.739  19.767  0.00  0.00    +0.000 A 
ATOM     18  C   UNL     1       1.795   6.102  20.802  0.00  0.00    +0.000 A 
ATOM     19  C   UNL     1       1.204   7.376  20.827  0.00  0.00    +0.000 A 
ATOM     20  C   UNL     1       1.440   8.328  19.827  0.00  0.00    +0.000 A 
ATOM     21  C   UNL     1       2.319   7.951  18.807  0.00  0.00    +0.000 A 
ATOM     22  C   UNL     1       2.959   6.680  18.776  0.00  0.00    +0.000 A 
BRANCH  22  23
ATOM     23  C   UNL     1       3.944   6.424  17.663  0.00  0.00    +0.000 C 
ATOM     24  F   UNL     1       5.248   6.280  18.022  0.00  0.00    +0.000 F 
ATOM     25  F   UNL     1       3.631   5.293  16.963  0.00  0.00    +0.000 F 
ATOM     26  F   UNL     1       3.935   7.430  16.738  0.00  0.00    +0.000 F 
ENDBRANCH  22  23
BRANCH  17  28
ATOM     27  C   UNL     1       2.426   3.387  19.554  0.00  0.00    +0.000 C 
ATOM     28  O   UNL     1       3.278   4.521  19.706  0.00  0.00    +0.000 OA
ENDBRANCH  17  28
ENDBRANCH   1  20
BRANCH   7  29
ATOM     29  C   UNL     1      -2.001  11.845  21.387  0.00  0.00    +0.000 A 
ATOM     30  C   UNL     1      -1.873  11.725  22.791  0.00  0.00    +0.000 A 
ATOM     31  C   UNL     1      -2.820  12.228  23.692  0.00  0.00    +0.000 A 
ATOM     32  C   UNL     1      -3.900  12.959  23.220  0.00  0.00    +0.000 A 
ATOM     33  C   UNL     1      -4.019  13.169  21.849  0.00  0.00    +0.000 A 
ATOM     34  C   UNL     1      -3.092  12.610  20.939  0.00  0.00    +0.000 A 
ENDBRANCH   7  29
TORSDOF 5
ENDMDL
MODEL 9
REMARK VINA RESULT:      -7.3      3.105      5.249
REMARK  Name = 
REMARK  6 active torsions:
REMARK  status: ('A' for Active; 'I' for Inactive)
REMARK    1  A    between atoms: C_1  and  O_2
REMARK    2  A    between atoms: O_2  and  C_3
REMARK    3  A    between atoms: C_6  and  N_7
REMARK    4  A    between atoms: C_11  and  C_13
REMARK    5  A    between atoms: C_21  and  C_22
REMARK    6  A    between atoms: C_30  and  C_31
REMARK                            x       y       z     vdW  Elec       q    Type
REMARK                         _______ _______ _______ _____ _____    ______ ____
ROOT
ATOM      1  N   UNL     1       1.179   9.846  19.562  0.00  0.00    +0.000 N 
ATOM      2  C   UNL     1      -0.116   9.636  20.211  0.00  0.00    +0.000 C 
ATOM      3  C   UNL     1      -0.204  10.582  21.417  0.00  0.00    +0.000 C 
ATOM      4  N   UNL     1      -0.134  11.995  21.002  0.00  0.00    +0.000 N 
ATOM      5  C   UNL     1      -1.309  12.734  20.869  0.00  0.00    +0.000 C 
ATOM      6  O   UNL     1      -1.491  13.576  20.004  0.00  0.00    +0.000 OA
ATOM      7  C   UNL     1       1.155  12.306  20.244  0.00  0.00    +0.000 C 
ATOM      8  C   UNL     1       1.415  11.246  19.078  0.00  0.00    +0.000 C 
ENDROOT
BRANCH   5   9
ATOM      9  C   UNL     1      -2.411  12.484  21.952  0.00  0.00    +0.000 C 
ATOM     10  C   UNL     1      -3.845  12.736  21.463  0.00  0.00    +0.000 C 
ATOM     11  C   UNL     1      -4.368  14.159  21.494  0.00  0.00    +0.000 C 
ATOM     12  S   UNL     1      -4.151  15.013  23.027  0.00  0.00    +0.000 S 
ATOM     13  O   UNL     1      -4.047  16.431  22.724  0.00  0.00    +0.000 OA
ATOM     14  O   UNL     1      -5.159  14.535  23.953  0.00  0.00    +0.000 OA
ATOM     15  C   UNL     1      -2.575  14.506  23.646  0.00  0.00    +0.000 C 
ATOM     16  C   UNL     1      -2.151  13.079  23.348  0.00  0.00    +0.000 C 
ENDBRANCH   5   9
BRANCH   1  20
ATOM     17  C   UNL     1       3.058   6.342  18.080  0.00  0.00    +0.000 A 
ATOM     18  C   UNL     1       3.063   7.518  17.332  0.00  0.00    +0.000 A 
ATOM     19  C   UNL     1       2.473   8.690  17.837  0.00  0.00    +0.000 A 
ATOM     20  C   UNL     1       1.867   8.736  19.099  0.00  0.00    +0.000 A 
ATOM     21  C   UNL     1       1.859   7.542  19.827  0.00  0.00    +0.000 A 
ATOM     22  C   UNL     1       2.418   6.333  19.324  0.00  0.00    +0.000 A 
BRANCH  22  23
ATOM     23  C   UNL     1       2.277   5.095  20.176  0.00  0.00    +0.000 C 
ATOM     24  F   UNL     1       3.365   4.282  20.258  0.00  0.00    +0.000 F 
ATOM     25  F   UNL     1       1.956   5.406  21.467  0.00  0.00    +0.000 F 
ATOM     26  F   UNL     1       1.261   4.292  19.739  0.00  0.00    +0.000 F 
ENDBRANCH  22  23
BRANCH  17  28
ATOM     27  C   UNL     1       4.801   5.277  16.869  0.00  0.00    +0.000 C 
ATOM     28  O   UNL     1       3.597   5.168  17.628  0.00  0.00    +0.000 OA
ENDBRANCH  17  28
ENDBRANCH   1  20
BRANCH   7  29
ATOM     29  C   UNL     1       1.457  13.799  20.013  0.00  0.00    +0.000 A 
ATOM     30  C   UNL     1       1.733  14.647  21.112  0.00  0.00    +0.000 A 
ATOM     31  C   UNL     1       2.012  16.012  20.975  0.00  0.00    +0.000 A 
ATOM     32  C   UNL     1       2.117  16.571  19.709  0.00  0.00    +0.000 A 
ATOM     33  C   UNL     1       1.933  15.751  18.598  0.00  0.00    +0.000 A 
ATOM     34  C   UNL     1       1.593  14.387  18.743  0.00  0.00    +0.000 A 
ENDBRANCH   7  29
TORSDOF 5
ENDMDL
