MODEL 1
REMARK VINA RESULT:      -7.2      0.000      0.000
REMARK  Name = 
REMARK  8 active torsions:
REMARK  status: ('A' for Active; 'I' for Inactive)
REMARK    1  A    between atoms: C_1  and  C_2
REMARK    2  A    between atoms: C_2  and  O_3
REMARK    3  A    between atoms: O_3  and  C_4
REMARK    4  A    between atoms: C_10  and  O_11
REMARK    5  A    between atoms: O_11  and  C_12
REMARK    6  A    between atoms: C_17  and  O_18
REMARK    7  A    between atoms: O_18  and  C_19
REMARK    8  A    between atoms: C_19  and  C_20
REMARK                            x       y       z     vdW  Elec       q    Type
REMARK                         _______ _______ _______ _____ _____    ______ ____
ROOT
ATOM      1  C   UNL     1       0.507  10.131  21.803  0.00  0.00    +0.000 A 
ATOM      2  C   UNL     1       0.710  10.888  20.644  0.00  0.00    +0.000 A 
ATOM      3  C   UNL     1       1.208  10.286  19.482  0.00  0.00    +0.000 A 
ATOM      4  C   UNL     1       1.538   8.930  19.493  0.00  0.00    +0.000 A 
ATOM      5  C   UNL     1       2.105   8.283  18.296  0.00  0.00    +0.000 A 
ATOM      6  O   UNL     1       2.122   8.856  17.213  0.00  0.00    +0.000 OA
ATOM      7  C   UNL     1       2.651   6.912  18.491  0.00  0.00    +0.000 A 
ATOM      8  C   UNL     1       2.436   6.338  19.686  0.00  0.00    +0.000 A 
ATOM      9  O   UNL     1       1.721   6.861  20.735  0.00  0.00    +0.000 OA
ATOM     10  C   UNL     1       1.359   8.180  20.653  0.00  0.00    +0.000 A 
ATOM     11  C   UNL     1       0.824   8.771  21.800  0.00  0.00    +0.000 A 
ENDROOT
BRANCH   1  12
ATOM     12  O   UNL     1       0.021  10.611  22.991  0.00  0.00    +0.000 OA
BRANCH  12  14
ATOM     13  C   UNL     1      -1.318  12.605  23.071  0.00  0.00    +0.000 C 
ATOM     14  C   UNL     1      -1.323  11.090  22.978  0.00  0.00    +0.000 C 
ENDBRANCH  12  14
ENDBRANCH   1  12
BRANCH   7  15
ATOM     15  O   UNL     1       3.372   6.346  17.443  0.00  0.00    +0.000 OA
BRANCH  15  16
ATOM     16  C   UNL     1       4.718   6.110  17.623  0.00  0.00    +0.000 A 
ATOM     17  C   UNL     1       5.632   7.147  17.352  0.00  0.00    +0.000 A 
ATOM     18  C   UNL     1       7.002   6.949  17.501  0.00  0.00    +0.000 A 
ATOM     19  C   UNL     1       7.469   5.732  17.981  0.00  0.00    +0.000 A 
ATOM     20  C   UNL     1       6.565   4.725  18.320  0.00  0.00    +0.000 A 
ATOM     21  C   UNL     1       5.184   4.895  18.140  0.00  0.00    +0.000 A 
BRANCH  21  22
ATOM     22  O   UNL     1       4.455   3.820  18.570  0.00  0.00    +0.000 OA
BRANCH  22  23
ATOM     23  C   UNL     1       3.941   2.923  17.591  0.00  0.00    +0.000 C 
ATOM     24  C   UNL     1       2.423   3.016  17.636  0.00  0.00    +0.000 C 
ENDBRANCH  22  23
ENDBRANCH  21  22
ENDBRANCH  15  16
ENDBRANCH   7  15
TORSDOF 6
ENDMDL
MODEL 2
REMARK VINA RESULT:      -7.0      1.255      2.604
REMARK  Name = 
REMARK  8 active torsions:
REMARK  status: ('A' for Active; 'I' for Inactive)
REMARK    1  A    between atoms: C_1  and  C_2
REMARK    2  A    between atoms: C_2  and  O_3
REMARK    3  A    between atoms: O_3  and  C_4
REMARK    4  A    between atoms: C_10  and  O_11
REMARK    5  A    between atoms: O_11  and  C_12
REMARK    6  A    between atoms: C_17  and  O_18
REMARK    7  A    between atoms: O_18  and  C_19
REMARK    8  A    between atoms: C_19  and  C_20
REMARK                            x       y       z     vdW  Elec       q    Type
REMARK                         _______ _______ _______ _____ _____    ______ ____
ROOT
ATOM      1  C   UNL     1       0.265  10.881  21.613  0.00  0.00    +0.000 A 
ATOM      2  C   UNL     1       0.472  11.478  20.365  0.00  0.00    +0.000 A 
ATOM      3  C   UNL     1       0.978  10.730  19.296  0.00  0.00    +0.000 A 
ATOM      4  C   UNL     1       1.314   9.389  19.488  0.00  0.00    +0.000 A 
ATOM      5  C   UNL     1       1.890   8.592  18.390  0.00  0.00    +0.000 A 
ATOM      6  O   UNL     1       1.911   9.015  17.242  0.00  0.00    +0.000 OA
ATOM      7  C   UNL     1       2.441   7.261  18.769  0.00  0.00    +0.000 A 
ATOM      8  C   UNL     1       2.222   6.850  20.028  0.00  0.00    +0.000 A 
ATOM      9  O   UNL     1       1.499   7.504  20.996  0.00  0.00    +0.000 OA
ATOM     10  C   UNL     1       1.131   8.799  20.737  0.00  0.00    +0.000 A 
ATOM     11  C   UNL     1       0.588   9.534  21.792  0.00  0.00    +0.000 A 
ENDROOT
BRANCH   1  12
ATOM     12  O   UNL     1      -0.229  11.512  22.724  0.00  0.00    +0.000 OA
BRANCH  12  14
ATOM     13  C   UNL     1      -2.450  12.318  23.162  0.00  0.00    +0.000 C 
ATOM     14  C   UNL     1      -1.529  11.112  23.154  0.00  0.00    +0.000 C 
ENDBRANCH  12  14
ENDBRANCH   1  12
BRANCH   7  15
ATOM     15  O   UNL     1       3.170   6.564  17.809  0.00  0.00    +0.000 OA
BRANCH  15  16
ATOM     16  C   UNL     1       3.078   5.189  17.783  0.00  0.00    +0.000 A 
ATOM     17  C   UNL     1       1.807   4.590  17.883  0.00  0.00    +0.000 A 
ATOM     18  C   UNL     1       1.667   3.206  17.881  0.00  0.00    +0.000 A 
ATOM     19  C   UNL     1       2.789   2.405  17.717  0.00  0.00    +0.000 A 
ATOM     20  C   UNL     1       4.044   2.993  17.545  0.00  0.00    +0.000 A 
ATOM     21  C   UNL     1       4.207   4.385  17.583  0.00  0.00    +0.000 A 
BRANCH  21  22
ATOM     22  O   UNL     1       5.497   4.776  17.349  0.00  0.00    +0.000 OA
BRANCH  22  23
ATOM     23  C   UNL     1       5.786   5.434  16.120  0.00  0.00    +0.000 C 
ATOM     24  C   UNL     1       6.997   4.746  15.506  0.00  0.00    +0.000 C 
ENDBRANCH  22  23
ENDBRANCH  21  22
ENDBRANCH  15  16
ENDBRANCH   7  15
TORSDOF 6
ENDMDL
MODEL 3
REMARK VINA RESULT:      -6.9      1.115      2.714
REMARK  Name = 
REMARK  8 active torsions:
REMARK  status: ('A' for Active; 'I' for Inactive)
REMARK    1  A    between atoms: C_1  and  C_2
REMARK    2  A    between atoms: C_2  and  O_3
REMARK    3  A    between atoms: O_3  and  C_4
REMARK    4  A    between atoms: C_10  and  O_11
REMARK    5  A    between atoms: O_11  and  C_12
REMARK    6  A    between atoms: C_17  and  O_18
REMARK    7  A    between atoms: O_18  and  C_19
REMARK    8  A    between atoms: C_19  and  C_20
REMARK                            x       y       z     vdW  Elec       q    Type
REMARK                         _______ _______ _______ _____ _____    ______ ____
ROOT
ATOM      1  C   UNL     1       0.494  11.158  21.130  0.00  0.00    +0.000 A 
ATOM      2  C   UNL     1       0.834  11.603  19.848  0.00  0.00    +0.000 A 
ATOM      3  C   UNL     1       1.329  10.705  18.894  0.00  0.00    +0.000 A 
ATOM      4  C   UNL     1       1.519   9.366  19.238  0.00  0.00    +0.000 A 
ATOM      5  C   UNL     1       2.079   8.410  18.266  0.00  0.00    +0.000 A 
ATOM      6  O   UNL     1       2.212   8.710  17.086  0.00  0.00    +0.000 OA
ATOM      7  C   UNL     1       2.472   7.081  18.809  0.00  0.00    +0.000 A 
ATOM      8  C   UNL     1       2.138   6.823  20.083  0.00  0.00    +0.000 A 
ATOM      9  O   UNL     1       1.426   7.636  20.930  0.00  0.00    +0.000 OA
ATOM     10  C   UNL     1       1.203   8.926  20.522  0.00  0.00    +0.000 A 
ATOM     11  C   UNL     1       0.672   9.813  21.461  0.00  0.00    +0.000 A 
ENDROOT
BRANCH   1  12
ATOM     12  O   UNL     1      -0.002  11.942  22.138  0.00  0.00    +0.000 OA
BRANCH  12  14
ATOM     13  C   UNL     1      -2.375  12.306  22.242  0.00  0.00    +0.000 C 
ATOM     14  C   UNL     1      -1.204  11.491  22.759  0.00  0.00    +0.000 C 
ENDBRANCH  12  14
ENDBRANCH   1  12
BRANCH   7  15
ATOM     15  O   UNL     1       3.187   6.225  17.975  0.00  0.00    +0.000 OA
BRANCH  15  16
ATOM     16  C   UNL     1       3.088   4.866  18.186  0.00  0.00    +0.000 A 
ATOM     17  C   UNL     1       1.960   4.182  17.693  0.00  0.00    +0.000 A 
ATOM     18  C   UNL     1       1.808   2.814  17.899  0.00  0.00    +0.000 A 
ATOM     19  C   UNL     1       2.810   2.103  18.546  0.00  0.00    +0.000 A 
ATOM     20  C   UNL     1       3.964   2.763  18.974  0.00  0.00    +0.000 A 
ATOM     21  C   UNL     1       4.116   4.147  18.808  0.00  0.00    +0.000 A 
BRANCH  21  22
ATOM     22  O   UNL     1       5.328   4.606  19.245  0.00  0.00    +0.000 OA
BRANCH  22  23
ATOM     23  C   UNL     1       6.325   4.902  18.272  0.00  0.00    +0.000 C 
ATOM     24  C   UNL     1       7.337   5.834  18.922  0.00  0.00    +0.000 C 
ENDBRANCH  22  23
ENDBRANCH  21  22
ENDBRANCH  15  16
ENDBRANCH   7  15
TORSDOF 6
ENDMDL
MODEL 4
REMARK VINA RESULT:      -6.9      2.528      7.681
REMARK  Name = 
REMARK  8 active torsions:
REMARK  status: ('A' for Active; 'I' for Inactive)
REMARK    1  A    between atoms: C_1  and  C_2
REMARK    2  A    between atoms: C_2  and  O_3
REMARK    3  A    between atoms: O_3  and  C_4
REMARK    4  A    between atoms: C_10  and  O_11
REMARK    5  A    between atoms: O_11  and  C_12
REMARK    6  A    between atoms: C_17  and  O_18
REMARK    7  A    between atoms: O_18  and  C_19
REMARK    8  A    between atoms: C_19  and  C_20
REMARK                            x       y       z     vdW  Elec       q    Type
REMARK                         _______ _______ _______ _____ _____    ______ ____
ROOT
ATOM      1  C   UNL     1       2.881   4.933  19.595  0.00  0.00    +0.000 A 
ATOM      2  C   UNL     1       3.162   5.371  18.296  0.00  0.00    +0.000 A 
ATOM      3  C   UNL     1       2.864   6.683  17.910  0.00  0.00    +0.000 A 
ATOM      4  C   UNL     1       2.247   7.547  18.817  0.00  0.00    +0.000 A 
ATOM      5  C   UNL     1       1.883   8.919  18.421  0.00  0.00    +0.000 A 
ATOM      6  O   UNL     1       2.277   9.402  17.366  0.00  0.00    +0.000 OA
ATOM      7  C   UNL     1       1.012   9.664  19.372  0.00  0.00    +0.000 A 
ATOM      8  C   UNL     1       0.773   9.082  20.558  0.00  0.00    +0.000 A 
ATOM      9  O   UNL     1       1.288   7.892  21.012  0.00  0.00    +0.000 OA
ATOM     10  C   UNL     1       1.945   7.105  20.103  0.00  0.00    +0.000 A 
ATOM     11  C   UNL     1       2.280   5.809  20.500  0.00  0.00    +0.000 A 
ENDROOT
BRANCH   1  12
ATOM     12  O   UNL     1       3.135   3.678  20.082  0.00  0.00    +0.000 OA
BRANCH  12  14
ATOM     13  C   UNL     1       1.705   2.533  21.638  0.00  0.00    +0.000 C 
ATOM     14  C   UNL     1       2.016   2.797  20.176  0.00  0.00    +0.000 C 
ENDBRANCH  12  14
ENDBRANCH   1  12
BRANCH   7  15
ATOM     15  O   UNL     1       0.481  10.880  18.950  0.00  0.00    +0.000 OA
BRANCH  15  16
ATOM     16  C   UNL     1      -0.855  10.935  18.618  0.00  0.00    +0.000 A 
ATOM     17  C   UNL     1      -1.333  10.112  17.579  0.00  0.00    +0.000 A 
ATOM     18  C   UNL     1      -2.670  10.148  17.198  0.00  0.00    +0.000 A 
ATOM     19  C   UNL     1      -3.559  10.961  17.890  0.00  0.00    +0.000 A 
ATOM     20  C   UNL     1      -3.106  11.725  18.967  0.00  0.00    +0.000 A 
ATOM     21  C   UNL     1      -1.755  11.729  19.340  0.00  0.00    +0.000 A 
BRANCH  21  22
ATOM     22  O   UNL     1      -1.510  12.499  20.444  0.00  0.00    +0.000 OA
BRANCH  22  23
ATOM     23  C   UNL     1      -1.370  11.845  21.701  0.00  0.00    +0.000 C 
ATOM     24  C   UNL     1      -2.517  12.306  22.588  0.00  0.00    +0.000 C 
ENDBRANCH  22  23
ENDBRANCH  21  22
ENDBRANCH  15  16
ENDBRANCH   7  15
TORSDOF 6
ENDMDL
MODEL 5
REMARK VINA RESULT:      -6.7      2.721      7.505
REMARK  Name = 
REMARK  8 active torsions:
REMARK  status: ('A' for Active; 'I' for Inactive)
REMARK    1  A    between atoms: C_1  and  C_2
REMARK    2  A    between atoms: C_2  and  O_3
REMARK    3  A    between atoms: O_3  and  C_4
REMARK    4  A    between atoms: C_10  and  O_11
REMARK    5  A    between atoms: O_11  and  C_12
REMARK    6  A    between atoms: C_17  and  O_18
REMARK    7  A    between atoms: O_18  and  C_19
REMARK    8  A    between atoms: C_19  and  C_20
REMARK                            x       y       z     vdW  Elec       q    Type
REMARK                         _______ _______ _______ _____ _____    ______ ____
ROOT
ATOM      1  C   UNL     1       2.570   4.929  19.718  0.00  0.00    +0.000 A 
ATOM      2  C   UNL     1       2.874   5.277  18.397  0.00  0.00    +0.000 A 
ATOM      3  C   UNL     1       2.681   6.589  17.947  0.00  0.00    +0.000 A 
ATOM      4  C   UNL     1       2.146   7.545  18.812  0.00  0.00    +0.000 A 
ATOM      5  C   UNL     1       1.892   8.921  18.350  0.00  0.00    +0.000 A 
ATOM      6  O   UNL     1       2.315   9.316  17.271  0.00  0.00    +0.000 OA
ATOM      7  C   UNL     1       1.095   9.781  19.267  0.00  0.00    +0.000 A 
ATOM      8  C   UNL     1       0.820   9.281  20.482  0.00  0.00    +0.000 A 
ATOM      9  O   UNL     1       1.239   8.077  20.993  0.00  0.00    +0.000 OA
ATOM     10  C   UNL     1       1.821   7.194  20.121  0.00  0.00    +0.000 A 
ATOM     11  C   UNL     1       2.051   5.896  20.581  0.00  0.00    +0.000 A 
ENDROOT
BRANCH   1  12
ATOM     12  O   UNL     1       2.724   3.683  20.266  0.00  0.00    +0.000 OA
BRANCH  12  14
ATOM     13  C   UNL     1       1.341   2.180  19.000  0.00  0.00    +0.000 C 
ATOM     14  C   UNL     1       1.552   2.872  20.334  0.00  0.00    +0.000 C 
ENDBRANCH  12  14
ENDBRANCH   1  12
BRANCH   7  15
ATOM     15  O   UNL     1       0.662  11.015  18.787  0.00  0.00    +0.000 OA
BRANCH  15  16
ATOM     16  C   UNL     1      -0.623  11.420  19.078  0.00  0.00    +0.000 A 
ATOM     17  C   UNL     1      -0.827  12.332  20.132  0.00  0.00    +0.000 A 
ATOM     18  C   UNL     1      -2.108  12.754  20.473  0.00  0.00    +0.000 A 
ATOM     19  C   UNL     1      -3.195  12.317  19.727  0.00  0.00    +0.000 A 
ATOM     20  C   UNL     1      -2.993  11.470  18.635  0.00  0.00    +0.000 A 
ATOM     21  C   UNL     1      -1.712  11.006  18.301  0.00  0.00    +0.000 A 
BRANCH  21  22
ATOM     22  O   UNL     1      -1.706  10.225  17.177  0.00  0.00    +0.000 OA
BRANCH  22  23
ATOM     23  C   UNL     1      -2.957   9.890  16.586  0.00  0.00    +0.000 C 
ATOM     24  C   UNL     1      -2.861  10.205  15.101  0.00  0.00    +0.000 C 
ENDBRANCH  22  23
ENDBRANCH  21  22
ENDBRANCH  15  16
ENDBRANCH   7  15
TORSDOF 6
ENDMDL
MODEL 6
REMARK VINA RESULT:      -6.7      2.202      3.886
REMARK  Name = 
REMARK  8 active torsions:
REMARK  status: ('A' for Active; 'I' for Inactive)
REMARK    1  A    between atoms: C_1  and  C_2
REMARK    2  A    between atoms: C_2  and  O_3
REMARK    3  A    between atoms: O_3  and  C_4
REMARK    4  A    between atoms: C_10  and  O_11
REMARK    5  A    between atoms: O_11  and  C_12
REMARK    6  A    between atoms: C_17  and  O_18
REMARK    7  A    between atoms: O_18  and  C_19
REMARK    8  A    between atoms: C_19  and  C_20
REMARK                            x       y       z     vdW  Elec       q    Type
REMARK                         _______ _______ _______ _____ _____    ______ ____
ROOT
ATOM      1  C   UNL     1      -0.759  10.999  18.597  0.00  0.00    +0.000 A 
ATOM      2  C   UNL     1      -0.941  10.542  19.906  0.00  0.00    +0.000 A 
ATOM      3  C   UNL     1      -0.098   9.559  20.438  0.00  0.00    +0.000 A 
ATOM      4  C   UNL     1       0.907   9.006  19.643  0.00  0.00    +0.000 A 
ATOM      5  C   UNL     1       1.779   7.939  20.165  0.00  0.00    +0.000 A 
ATOM      6  O   UNL     1       1.780   7.644  21.354  0.00  0.00    +0.000 OA
ATOM      7  C   UNL     1       2.641   7.251  19.164  0.00  0.00    +0.000 A 
ATOM      8  C   UNL     1       2.659   7.766  17.924  0.00  0.00    +0.000 A 
ATOM      9  O   UNL     1       2.006   8.893  17.489  0.00  0.00    +0.000 OA
ATOM     10  C   UNL     1       1.075   9.443  18.331  0.00  0.00    +0.000 A 
ATOM     11  C   UNL     1       0.259  10.452  17.813  0.00  0.00    +0.000 A 
ENDROOT
BRANCH   1  12
ATOM     12  O   UNL     1      -1.517  11.957  17.977  0.00  0.00    +0.000 OA
BRANCH  12  14
ATOM     13  C   UNL     1      -2.858  11.086  16.183  0.00  0.00    +0.000 C 
ATOM     14  C   UNL     1      -2.845  11.580  17.618  0.00  0.00    +0.000 C 
ENDBRANCH  12  14
ENDBRANCH   1  12
BRANCH   7  15
ATOM     15  O   UNL     1       3.327   6.111  19.573  0.00  0.00    +0.000 OA
BRANCH  15  16
ATOM     16  C   UNL     1       3.051   4.916  18.945  0.00  0.00    +0.000 A 
ATOM     17  C   UNL     1       1.744   4.395  19.019  0.00  0.00    +0.000 A 
ATOM     18  C   UNL     1       1.423   3.182  18.416  0.00  0.00    +0.000 A 
ATOM     19  C   UNL     1       2.389   2.506  17.682  0.00  0.00    +0.000 A 
ATOM     20  C   UNL     1       3.666   3.052  17.544  0.00  0.00    +0.000 A 
ATOM     21  C   UNL     1       4.016   4.254  18.175  0.00  0.00    +0.000 A 
BRANCH  21  22
ATOM     22  O   UNL     1       5.292   4.655  17.888  0.00  0.00    +0.000 OA
BRANCH  22  23
ATOM     23  C   UNL     1       5.699   4.671  16.523  0.00  0.00    +0.000 C 
ATOM     24  C   UNL     1       5.265   6.004  15.932  0.00  0.00    +0.000 C 
ENDBRANCH  22  23
ENDBRANCH  21  22
ENDBRANCH  15  16
ENDBRANCH   7  15
TORSDOF 6
ENDMDL
MODEL 7
REMARK VINA RESULT:      -6.7      2.395      7.923
REMARK  Name = 
REMARK  8 active torsions:
REMARK  status: ('A' for Active; 'I' for Inactive)
REMARK    1  A    between atoms: C_1  and  C_2
REMARK    2  A    between atoms: C_2  and  O_3
REMARK    3  A    between atoms: O_3  and  C_4
REMARK    4  A    between atoms: C_10  and  O_11
REMARK    5  A    between atoms: O_11  and  C_12
REMARK    6  A    between atoms: C_17  and  O_18
REMARK    7  A    between atoms: O_18  and  C_19
REMARK    8  A    between atoms: C_19  and  C_20
REMARK                            x       y       z     vdW  Elec       q    Type
REMARK                         _______ _______ _______ _____ _____    ______ ____
ROOT
ATOM      1  C   UNL     1       3.223   5.298  19.076  0.00  0.00    +0.000 A 
ATOM      2  C   UNL     1       3.473   5.918  17.847  0.00  0.00    +0.000 A 
ATOM      3  C   UNL     1       3.059   7.236  17.621  0.00  0.00    +0.000 A 
ATOM      4  C   UNL     1       2.360   7.922  18.615  0.00  0.00    +0.000 A 
ATOM      5  C   UNL     1       1.875   9.295  18.385  0.00  0.00    +0.000 A 
ATOM      6  O   UNL     1       2.231   9.938  17.405  0.00  0.00    +0.000 OA
ATOM      7  C   UNL     1       0.933   9.834  19.404  0.00  0.00    +0.000 A 
ATOM      8  C   UNL     1       0.739   9.090  20.505  0.00  0.00    +0.000 A 
ATOM      9  O   UNL     1       1.356   7.904  20.818  0.00  0.00    +0.000 OA
ATOM     10  C   UNL     1       2.089   7.298  19.831  0.00  0.00    +0.000 A 
ATOM     11  C   UNL     1       2.537   5.998  20.072  0.00  0.00    +0.000 A 
ENDROOT
BRANCH   1  12
ATOM     12  O   UNL     1       3.586   4.020  19.410  0.00  0.00    +0.000 OA
BRANCH  12  14
ATOM     13  C   UNL     1       2.578   2.250  18.135  0.00  0.00    +0.000 C 
ATOM     14  C   UNL     1       3.806   3.121  18.325  0.00  0.00    +0.000 C 
ENDBRANCH  12  14
ENDBRANCH   1  12
BRANCH   7  15
ATOM     15  O   UNL     1       0.297  11.041  19.125  0.00  0.00    +0.000 OA
BRANCH  15  16
ATOM     16  C   UNL     1      -1.010  11.010  18.688  0.00  0.00    +0.000 A 
ATOM     17  C   UNL     1      -1.367  10.100  17.674  0.00  0.00    +0.000 A 
ATOM     18  C   UNL     1      -2.670  10.047  17.187  0.00  0.00    +0.000 A 
ATOM     19  C   UNL     1      -3.644  10.860  17.751  0.00  0.00    +0.000 A 
ATOM     20  C   UNL     1      -3.314  11.713  18.805  0.00  0.00    +0.000 A 
ATOM     21  C   UNL     1      -1.998  11.806  19.281  0.00  0.00    +0.000 A 
BRANCH  21  22
ATOM     22  O   UNL     1      -1.875  12.657  20.345  0.00  0.00    +0.000 OA
BRANCH  22  23
ATOM     23  C   UNL     1      -1.793  12.093  21.650  0.00  0.00    +0.000 C 
ATOM     24  C   UNL     1      -0.915  13.008  22.491  0.00  0.00    +0.000 C 
ENDBRANCH  22  23
ENDBRANCH  21  22
ENDBRANCH  15  16
ENDBRANCH   7  15
TORSDOF 6
ENDMDL
MODEL 8
REMARK VINA RESULT:      -6.7      1.746      2.561
REMARK  Name = 
REMARK  8 active torsions:
REMARK  status: ('A' for Active; 'I' for Inactive)
REMARK    1  A    between atoms: C_1  and  C_2
REMARK    2  A    between atoms: C_2  and  O_3
REMARK    3  A    between atoms: O_3  and  C_4
REMARK    4  A    between atoms: C_10  and  O_11
REMARK    5  A    between atoms: O_11  and  C_12
REMARK    6  A    between atoms: C_17  and  O_18
REMARK    7  A    between atoms: O_18  and  C_19
REMARK    8  A    between atoms: C_19  and  C_20
REMARK                            x       y       z     vdW  Elec       q    Type
REMARK                         _______ _______ _______ _____ _____    ______ ____
ROOT
ATOM      1  C   UNL     1       0.101   9.866  20.765  0.00  0.00    +0.000 A 
ATOM      2  C   UNL     1       0.061   8.698  21.534  0.00  0.00    +0.000 A 
ATOM      3  C   UNL     1       0.849   7.594  21.187  0.00  0.00    +0.000 A 
ATOM      4  C   UNL     1       1.651   7.648  20.046  0.00  0.00    +0.000 A 
ATOM      5  C   UNL     1       2.456   6.483  19.635  0.00  0.00    +0.000 A 
ATOM      6  O   UNL     1       2.597   5.517  20.374  0.00  0.00    +0.000 OA
ATOM      7  C   UNL     1       3.070   6.559  18.281  0.00  0.00    +0.000 A 
ATOM      8  C   UNL     1       2.966   7.729  17.632  0.00  0.00    +0.000 A 
ATOM      9  O   UNL     1       2.396   8.886  18.104  0.00  0.00    +0.000 OA
ATOM     10  C   UNL     1       1.673   8.801  19.266  0.00  0.00    +0.000 A 
ATOM     11  C   UNL     1       0.918   9.917  19.634  0.00  0.00    +0.000 A 
ENDROOT
BRANCH   1  12
ATOM     12  O   UNL     1      -0.619  11.005  21.012  0.00  0.00    +0.000 OA
BRANCH  12  14
ATOM     13  C   UNL     1      -2.077  11.911  22.694  0.00  0.00    +0.000 C 
ATOM     14  C   UNL     1      -0.671  11.440  22.370  0.00  0.00    +0.000 C 
ENDBRANCH  12  14
ENDBRANCH   1  12
BRANCH   7  15
ATOM     15  O   UNL     1       3.667   5.407  17.774  0.00  0.00    +0.000 OA
BRANCH  15  16
ATOM     16  C   UNL     1       5.036   5.278  17.873  0.00  0.00    +0.000 A 
ATOM     17  C   UNL     1       5.648   5.459  19.128  0.00  0.00    +0.000 A 
ATOM     18  C   UNL     1       7.028   5.357  19.271  0.00  0.00    +0.000 A 
ATOM     19  C   UNL     1       7.807   5.014  18.174  0.00  0.00    +0.000 A 
ATOM     20  C   UNL     1       7.200   4.763  16.942  0.00  0.00    +0.000 A 
ATOM     21  C   UNL     1       5.814   4.898  16.772  0.00  0.00    +0.000 A 
BRANCH  21  22
ATOM     22  O   UNL     1       5.398   4.566  15.512  0.00  0.00    +0.000 OA
BRANCH  22  23
ATOM     23  C   UNL     1       6.373   4.512  14.476  0.00  0.00    +0.000 C 
ATOM     24  C   UNL     1       5.775   3.715  13.326  0.00  0.00    +0.000 C 
ENDBRANCH  22  23
ENDBRANCH  21  22
ENDBRANCH  15  16
ENDBRANCH   7  15
TORSDOF 6
ENDMDL
MODEL 9
REMARK VINA RESULT:      -6.6      2.053      3.931
REMARK  Name = 
REMARK  8 active torsions:
REMARK  status: ('A' for Active; 'I' for Inactive)
REMARK    1  A    between atoms: C_1  and  C_2
REMARK    2  A    between atoms: C_2  and  O_3
REMARK    3  A    between atoms: O_3  and  C_4
REMARK    4  A    between atoms: C_10  and  O_11
REMARK    5  A    between atoms: O_11  and  C_12
REMARK    6  A    between atoms: C_17  and  O_18
REMARK    7  A    between atoms: O_18  and  C_19
REMARK    8  A    between atoms: C_19  and  C_20
REMARK                            x       y       z     vdW  Elec       q    Type
REMARK                         _______ _______ _______ _____ _____    ______ ____
ROOT
ATOM      1  C   UNL     1      -0.549  11.327  19.105  0.00  0.00    +0.000 A 
ATOM      2  C   UNL     1      -0.729  10.837  20.403  0.00  0.00    +0.000 A 
ATOM      3  C   UNL     1       0.027   9.752  20.863  0.00  0.00    +0.000 A 
ATOM      4  C   UNL     1       0.940   9.133  20.007  0.00  0.00    +0.000 A 
ATOM      5  C   UNL     1       1.716   7.962  20.453  0.00  0.00    +0.000 A 
ATOM      6  O   UNL     1       1.730   7.620  21.629  0.00  0.00    +0.000 OA
ATOM      7  C   UNL     1       2.465   7.233  19.393  0.00  0.00    +0.000 A 
ATOM      8  C   UNL     1       2.491   7.794  18.173  0.00  0.00    +0.000 A 
ATOM      9  O   UNL     1       1.942   8.998  17.808  0.00  0.00    +0.000 OA
ATOM     10  C   UNL     1       1.104   9.605  18.707  0.00  0.00    +0.000 A 
ATOM     11  C   UNL     1       0.378  10.712  18.261  0.00  0.00    +0.000 A 
ENDROOT
BRANCH   1  12
ATOM     12  O   UNL     1      -1.226  12.382  18.553  0.00  0.00    +0.000 OA
BRANCH  12  14
ATOM     13  C   UNL     1      -0.102  14.495  18.766  0.00  0.00    +0.000 C 
ATOM     14  C   UNL     1      -1.210  13.602  19.293  0.00  0.00    +0.000 C 
ENDBRANCH  12  14
ENDBRANCH   1  12
BRANCH   7  15
ATOM     15  O   UNL     1       3.045   6.013  19.731  0.00  0.00    +0.000 OA
BRANCH  15  16
ATOM     16  C   UNL     1       2.367   4.854  19.419  0.00  0.00    +0.000 A 
ATOM     17  C   UNL     1       1.393   4.373  20.316  0.00  0.00    +0.000 A 
ATOM     18  C   UNL     1       0.698   3.197  20.052  0.00  0.00    +0.000 A 
ATOM     19  C   UNL     1       0.924   2.520  18.861  0.00  0.00    +0.000 A 
ATOM     20  C   UNL     1       1.836   3.030  17.935  0.00  0.00    +0.000 A 
ATOM     21  C   UNL     1       2.572   4.193  18.202  0.00  0.00    +0.000 A 
BRANCH  21  22
ATOM     22  O   UNL     1       3.379   4.563  17.161  0.00  0.00    +0.000 OA
BRANCH  22  23
ATOM     23  C   UNL     1       4.768   4.262  17.249  0.00  0.00    +0.000 C 
ATOM     24  C   UNL     1       5.523   5.583  17.260  0.00  0.00    +0.000 C 
ENDBRANCH  22  23
ENDBRANCH  21  22
ENDBRANCH  15  16
ENDBRANCH   7  15
TORSDOF 6
ENDMDL
