MODEL 1
REMARK VINA RESULT:      -8.3      0.000      0.000
REMARK  Name = 
REMARK  3 active torsions:
REMARK  status: ('A' for Active; 'I' for Inactive)
REMARK    1  A    between atoms: N_3  and  C_4
REMARK    2  A    between atoms: C_7  and  C_8
REMARK    3  A    between atoms: C_18  and  C_19
REMARK                            x       y       z     vdW  Elec       q    Type
REMARK                         _______ _______ _______ _____ _____    ______ ____
ROOT
ATOM      1  O   UNL     1       1.528   9.009  19.057  0.00  0.00    +0.000 OA
ATOM      2  C   UNL     1       1.346   8.734  20.241  0.00  0.00    +0.000 C 
ATOM      3  N   UNL     1       1.546   7.479  20.773  0.00  0.00    +0.000 N 
ATOM      4  N   UNL     1       0.906   9.702  21.142  0.00  0.00    +0.000 N 
ATOM      5  C   UNL     1       0.817   9.545  22.594  0.00  0.00    +0.000 C 
ATOM      6  C   UNL     1      -0.216  10.454  23.181  0.00  0.00    +0.000 C 
ATOM      7  C   UNL     1      -0.851  11.418  22.489  0.00  0.00    +0.000 C 
ATOM      8  C   UNL     1      -0.517  11.725  21.059  0.00  0.00    +0.000 C 
ATOM      9  C   UNL     1       0.813  11.084  20.659  0.00  0.00    +0.000 C 
ATOM     10  H   UNL     1       1.135   7.293  21.670  0.00  0.00    +0.000 HD
ENDROOT
BRANCH   3  11
ATOM     11  C   UNL     1       2.033   6.337  20.103  0.00  0.00    +0.000 A 
ATOM     12  C   UNL     1       2.972   6.380  19.075  0.00  0.00    +0.000 A 
ATOM     13  C   UNL     1       3.369   5.207  18.427  0.00  0.00    +0.000 A 
ATOM     14  C   UNL     1       2.840   3.961  18.798  0.00  0.00    +0.000 A 
ATOM     15  C   UNL     1       1.927   3.918  19.855  0.00  0.00    +0.000 A 
ATOM     16 CL   UNL     1       1.230   2.436  20.405  0.00  0.00    +0.000 Cl
ATOM     17  C   UNL     1       1.531   5.094  20.505  0.00  0.00    +0.000 A 
BRANCH  14  18
ATOM     18  C   UNL     1       3.260   2.719  18.061  0.00  0.00    +0.000 C 
ATOM     19  F   UNL     1       2.218   2.081  17.453  0.00  0.00    +0.000 F 
ATOM     20  F   UNL     1       4.158   2.965  17.068  0.00  0.00    +0.000 F 
ATOM     21  F   UNL     1       3.828   1.785  18.872  0.00  0.00    +0.000 F 
ENDBRANCH  14  18
ENDBRANCH   3  11
BRANCH   7  22
ATOM     22  C   UNL     1      -1.884  12.231  23.134  0.00  0.00    +0.000 A 
ATOM     23  N   UNL     1      -2.988  11.531  23.501  0.00  0.00    +0.000 NA
ATOM     24  C   UNL     1      -4.004  12.228  24.054  0.00  0.00    +0.000 A 
ATOM     25  C   UNL     1      -3.973  13.596  24.265  0.00  0.00    +0.000 A 
ATOM     26  C   UNL     1      -2.833  14.299  23.886  0.00  0.00    +0.000 A 
ATOM     27  C   UNL     1      -1.766  13.613  23.309  0.00  0.00    +0.000 A 
ATOM     28 CL   UNL     1      -0.370  14.507  22.830  0.00  0.00    +0.000 Cl
ENDBRANCH   7  22
TORSDOF 3
ENDMDL
MODEL 2
REMARK VINA RESULT:      -8.3      1.140      1.630
REMARK  Name = 
REMARK  3 active torsions:
REMARK  status: ('A' for Active; 'I' for Inactive)
REMARK    1  A    between atoms: N_3  and  C_4
REMARK    2  A    between atoms: C_7  and  C_8
REMARK    3  A    between atoms: C_18  and  C_19
REMARK                            x       y       z     vdW  Elec       q    Type
REMARK                         _______ _______ _______ _____ _____    ______ ____
ROOT
ATOM      1  O   UNL     1       1.644   8.547  19.308  0.00  0.00    +0.000 OA
ATOM      2  C   UNL     1       1.358   8.340  20.486  0.00  0.00    +0.000 C 
ATOM      3  N   UNL     1       1.416   7.098  21.080  0.00  0.00    +0.000 N 
ATOM      4  N   UNL     1       0.937   9.380  21.314  0.00  0.00    +0.000 N 
ATOM      5  C   UNL     1       0.735   9.295  22.761  0.00  0.00    +0.000 C 
ATOM      6  C   UNL     1      -0.258  10.309  23.235  0.00  0.00    +0.000 C 
ATOM      7  C   UNL     1      -0.762  11.288  22.462  0.00  0.00    +0.000 C 
ATOM      8  C   UNL     1      -0.306  11.503  21.049  0.00  0.00    +0.000 C 
ATOM      9  C   UNL     1       0.992  10.741  20.772  0.00  0.00    +0.000 C 
ATOM     10  H   UNL     1       0.931   6.986  21.950  0.00  0.00    +0.000 HD
ENDROOT
BRANCH   3  11
ATOM     11  C   UNL     1       1.854   5.892  20.492  0.00  0.00    +0.000 A 
ATOM     12  C   UNL     1       1.081   4.736  20.423  0.00  0.00    +0.000 A 
ATOM     13  C   UNL     1       1.605   3.565  19.867  0.00  0.00    +0.000 A 
ATOM     14  C   UNL     1       2.912   3.527  19.360  0.00  0.00    +0.000 A 
ATOM     15  C   UNL     1       3.670   4.700  19.397  0.00  0.00    +0.000 A 
ATOM     16 CL   UNL     1       5.284   4.769  18.783  0.00  0.00    +0.000 Cl
ATOM     17  C   UNL     1       3.145   5.873  19.953  0.00  0.00    +0.000 A 
BRANCH  14  18
ATOM     18  C   UNL     1       3.462   2.244  18.798  0.00  0.00    +0.000 C 
ATOM     19  F   UNL     1       4.490   1.735  19.537  0.00  0.00    +0.000 F 
ATOM     20  F   UNL     1       2.536   1.248  18.739  0.00  0.00    +0.000 F 
ATOM     21  F   UNL     1       3.960   2.384  17.539  0.00  0.00    +0.000 F 
ENDBRANCH  14  18
ENDBRANCH   3  11
BRANCH   7  22
ATOM     22  C   UNL     1      -1.767  12.209  22.998  0.00  0.00    +0.000 A 
ATOM     23  N   UNL     1      -2.922  11.603  23.379  0.00  0.00    +0.000 NA
ATOM     24  C   UNL     1      -3.913  12.400  23.833  0.00  0.00    +0.000 A 
ATOM     25  C   UNL     1      -3.810  13.777  23.931  0.00  0.00    +0.000 A 
ATOM     26  C   UNL     1      -2.619  14.381  23.540  0.00  0.00    +0.000 A 
ATOM     27  C   UNL     1      -1.574  13.591  23.063  0.00  0.00    +0.000 A 
ATOM     28 CL   UNL     1      -0.114  14.363  22.564  0.00  0.00    +0.000 Cl
ENDBRANCH   7  22
TORSDOF 3
ENDMDL
MODEL 3
REMARK VINA RESULT:      -8.0      1.141      1.260
REMARK  Name = 
REMARK  3 active torsions:
REMARK  status: ('A' for Active; 'I' for Inactive)
REMARK    1  A    between atoms: N_3  and  C_4
REMARK    2  A    between atoms: C_7  and  C_8
REMARK    3  A    between atoms: C_18  and  C_19
REMARK                            x       y       z     vdW  Elec       q    Type
REMARK                         _______ _______ _______ _____ _____    ______ ____
ROOT
ATOM      1  O   UNL     1       1.284  10.128  19.163  0.00  0.00    +0.000 OA
ATOM      2  C   UNL     1       0.917   9.718  20.262  0.00  0.00    +0.000 C 
ATOM      3  N   UNL     1       1.076   8.416  20.684  0.00  0.00    +0.000 N 
ATOM      4  N   UNL     1       0.292  10.569  21.172  0.00  0.00    +0.000 N 
ATOM      5  C   UNL     1      -0.032  10.249  22.563  0.00  0.00    +0.000 C 
ATOM      6  C   UNL     1      -1.186  11.063  23.057  0.00  0.00    +0.000 C 
ATOM      7  C   UNL     1      -1.736  12.083  22.373  0.00  0.00    +0.000 C 
ATOM      8  C   UNL     1      -1.179  12.556  21.062  0.00  0.00    +0.000 C 
ATOM      9  C   UNL     1       0.224  11.994  20.829  0.00  0.00    +0.000 C 
ATOM     10  H   UNL     1       0.529   8.122  21.472  0.00  0.00    +0.000 HD
ENDROOT
BRANCH   3  11
ATOM     11  C   UNL     1       1.716   7.367  19.990  0.00  0.00    +0.000 A 
ATOM     12  C   UNL     1       2.432   7.540  18.808  0.00  0.00    +0.000 A 
ATOM     13  C   UNL     1       2.997   6.442  18.154  0.00  0.00    +0.000 A 
ATOM     14  C   UNL     1       2.864   5.145  18.672  0.00  0.00    +0.000 A 
ATOM     15  C   UNL     1       2.178   4.981  19.877  0.00  0.00    +0.000 A 
ATOM     16 CL   UNL     1       1.973   3.431  20.613  0.00  0.00    +0.000 Cl
ATOM     17  C   UNL     1       1.614   6.082  20.534  0.00  0.00    +0.000 A 
BRANCH  14  18
ATOM     18  C   UNL     1       3.454   3.977  17.928  0.00  0.00    +0.000 C 
ATOM     19  F   UNL     1       2.524   3.039  17.586  0.00  0.00    +0.000 F 
ATOM     20  F   UNL     1       4.050   4.335  16.758  0.00  0.00    +0.000 F 
ATOM     21  F   UNL     1       4.392   3.305  18.650  0.00  0.00    +0.000 F 
ENDBRANCH  14  18
ENDBRANCH   3  11
BRANCH   7  22
ATOM     22  C   UNL     1      -2.895  12.796  22.914  0.00  0.00    +0.000 A 
ATOM     23  N   UNL     1      -4.090  12.298  22.503  0.00  0.00    +0.000 NA
ATOM     24  C   UNL     1      -5.201  12.941  22.921  0.00  0.00    +0.000 A 
ATOM     25  C   UNL     1      -5.182  14.059  23.737  0.00  0.00    +0.000 A 
ATOM     26  C   UNL     1      -3.950  14.555  24.153  0.00  0.00    +0.000 A 
ATOM     27  C   UNL     1      -2.781  13.920  23.738  0.00  0.00    +0.000 A 
ATOM     28 CL   UNL     1      -1.264  14.563  24.249  0.00  0.00    +0.000 Cl
ENDBRANCH   7  22
TORSDOF 3
ENDMDL
MODEL 4
REMARK VINA RESULT:      -8.0      5.689     10.168
REMARK  Name = 
REMARK  3 active torsions:
REMARK  status: ('A' for Active; 'I' for Inactive)
REMARK    1  A    between atoms: N_3  and  C_4
REMARK    2  A    between atoms: C_7  and  C_8
REMARK    3  A    between atoms: C_18  and  C_19
REMARK                            x       y       z     vdW  Elec       q    Type
REMARK                         _______ _______ _______ _____ _____    ______ ____
ROOT
ATOM      1  O   UNL     1      -0.561   9.364  20.985  0.00  0.00    +0.000 OA
ATOM      2  C   UNL     1      -0.094   9.635  19.880  0.00  0.00    +0.000 C 
ATOM      3  N   UNL     1      -0.691  10.501  18.991  0.00  0.00    +0.000 N 
ATOM      4  N   UNL     1       1.098   9.058  19.445  0.00  0.00    +0.000 N 
ATOM      5  C   UNL     1       1.837   9.425  18.237  0.00  0.00    +0.000 C 
ATOM      6  C   UNL     1       2.665   8.284  17.734  0.00  0.00    +0.000 C 
ATOM      7  C   UNL     1       2.847   7.133  18.406  0.00  0.00    +0.000 C 
ATOM      8  C   UNL     1       2.289   6.915  19.782  0.00  0.00    +0.000 C 
ATOM      9  C   UNL     1       1.843   8.239  20.406  0.00  0.00    +0.000 C 
ATOM     10  H   UNL     1      -0.379  10.462  18.038  0.00  0.00    +0.000 HD
ENDROOT
BRANCH   3  11
ATOM     11  C   UNL     1      -1.866  11.255  19.194  0.00  0.00    +0.000 A 
ATOM     12  C   UNL     1      -2.008  12.223  20.185  0.00  0.00    +0.000 A 
ATOM     13  C   UNL     1      -3.222  12.894  20.353  0.00  0.00    +0.000 A 
ATOM     14  C   UNL     1      -4.322  12.617  19.528  0.00  0.00    +0.000 A 
ATOM     15  C   UNL     1      -4.164  11.673  18.511  0.00  0.00    +0.000 A 
ATOM     16 CL   UNL     1      -5.447  11.270  17.426  0.00  0.00    +0.000 Cl
ATOM     17  C   UNL     1      -2.946  11.002  18.341  0.00  0.00    +0.000 A 
BRANCH  14  18
ATOM     18  C   UNL     1      -5.627  13.330  19.754  0.00  0.00    +0.000 C 
ATOM     19  F   UNL     1      -5.563  14.256  20.755  0.00  0.00    +0.000 F 
ATOM     20  F   UNL     1      -6.058  14.015  18.658  0.00  0.00    +0.000 F 
ATOM     21  F   UNL     1      -6.639  12.491  20.107  0.00  0.00    +0.000 F 
ENDBRANCH  14  18
ENDBRANCH   3  11
BRANCH   7  22
ATOM     22  C   UNL     1       3.638   6.050  17.815  0.00  0.00    +0.000 A 
ATOM     23  N   UNL     1       4.917   6.399  17.523  0.00  0.00    +0.000 NA
ATOM     24  C   UNL     1       5.688   5.464  16.926  0.00  0.00    +0.000 A 
ATOM     25  C   UNL     1       5.247   4.191  16.608  0.00  0.00    +0.000 A 
ATOM     26  C   UNL     1       3.934   3.849  16.918  0.00  0.00    +0.000 A 
ATOM     27  C   UNL     1       3.108   4.789  17.531  0.00  0.00    +0.000 A 
ATOM     28 CL   UNL     1       1.478   4.350  17.888  0.00  0.00    +0.000 Cl
ENDBRANCH   7  22
TORSDOF 3
ENDMDL
MODEL 5
REMARK VINA RESULT:      -8.0      8.731     11.106
REMARK  Name = 
REMARK  3 active torsions:
REMARK  status: ('A' for Active; 'I' for Inactive)
REMARK    1  A    between atoms: N_3  and  C_4
REMARK    2  A    between atoms: C_7  and  C_8
REMARK    3  A    between atoms: C_18  and  C_19
REMARK                            x       y       z     vdW  Elec       q    Type
REMARK                         _______ _______ _______ _____ _____    ______ ____
ROOT
ATOM      1  O   UNL     1       8.955   8.130  19.188  0.00  0.00    +0.000 OA
ATOM      2  C   UNL     1       8.130   8.313  18.296  0.00  0.00    +0.000 C 
ATOM      3  N   UNL     1       7.939   9.526  17.670  0.00  0.00    +0.000 N 
ATOM      4  N   UNL     1       7.308   7.277  17.856  0.00  0.00    +0.000 N 
ATOM      5  C   UNL     1       6.417   7.322  16.697  0.00  0.00    +0.000 C 
ATOM      6  C   UNL     1       5.276   6.365  16.845  0.00  0.00    +0.000 C 
ATOM      7  C   UNL     1       5.182   5.453  17.829  0.00  0.00    +0.000 C 
ATOM      8  C   UNL     1       6.272   5.258  18.842  0.00  0.00    +0.000 C 
ATOM      9  C   UNL     1       7.567   5.935  18.389  0.00  0.00    +0.000 C 
ATOM     10  H   UNL     1       7.089   9.640  17.149  0.00  0.00    +0.000 HD
ENDROOT
BRANCH   3  11
ATOM     11  C   UNL     1       8.662  10.718  17.883  0.00  0.00    +0.000 A 
ATOM     12  C   UNL     1       8.190  11.985  17.549  0.00  0.00    +0.000 A 
ATOM     13  C   UNL     1       8.988  13.115  17.747  0.00  0.00    +0.000 A 
ATOM     14  C   UNL     1      10.277  13.003  18.291  0.00  0.00    +0.000 A 
ATOM     15  C   UNL     1      10.732  11.735  18.659  0.00  0.00    +0.000 A 
ATOM     16 CL   UNL     1      12.294  11.488  19.355  0.00  0.00    +0.000 Cl
ATOM     17  C   UNL     1       9.931  10.603  18.462  0.00  0.00    +0.000 A 
BRANCH  14  18
ATOM     18  C   UNL     1      11.127  14.233  18.461  0.00  0.00    +0.000 C 
ATOM     19  F   UNL     1      11.500  14.448  19.757  0.00  0.00    +0.000 F 
ATOM     20  F   UNL     1      12.291  14.179  17.757  0.00  0.00    +0.000 F 
ATOM     21  F   UNL     1      10.495  15.375  18.076  0.00  0.00    +0.000 F 
ENDBRANCH  14  18
ENDBRANCH   3  11
BRANCH   7  22
ATOM     22  C   UNL     1       4.005   4.586  17.924  0.00  0.00    +0.000 A 
ATOM     23  N   UNL     1       4.285   3.262  17.810  0.00  0.00    +0.000 NA
ATOM     24  C   UNL     1       3.239   2.408  17.834  0.00  0.00    +0.000 A 
ATOM     25  C   UNL     1       1.922   2.809  17.971  0.00  0.00    +0.000 A 
ATOM     26  C   UNL     1       1.652   4.169  18.090  0.00  0.00    +0.000 A 
ATOM     27  C   UNL     1       2.706   5.081  18.066  0.00  0.00    +0.000 A 
ATOM     28 CL   UNL     1       2.347   6.764  18.195  0.00  0.00    +0.000 Cl
ENDBRANCH   7  22
TORSDOF 3
ENDMDL
MODEL 6
REMARK VINA RESULT:      -7.8      2.217      2.925
REMARK  Name = 
REMARK  3 active torsions:
REMARK  status: ('A' for Active; 'I' for Inactive)
REMARK    1  A    between atoms: N_3  and  C_4
REMARK    2  A    between atoms: C_7  and  C_8
REMARK    3  A    between atoms: C_18  and  C_19
REMARK                            x       y       z     vdW  Elec       q    Type
REMARK                         _______ _______ _______ _____ _____    ______ ____
ROOT
ATOM      1  O   UNL     1      -0.799  10.073  17.953  0.00  0.00    +0.000 OA
ATOM      2  C   UNL     1      -0.392  10.446  19.051  0.00  0.00    +0.000 C 
ATOM      3  N   UNL     1       0.682   9.877  19.701  0.00  0.00    +0.000 N 
ATOM      4  N   UNL     1      -1.017  11.491  19.730  0.00  0.00    +0.000 N 
ATOM      5  C   UNL     1      -0.528  12.134  20.951  0.00  0.00    +0.000 C 
ATOM      6  C   UNL     1      -1.649  12.736  21.737  0.00  0.00    +0.000 C 
ATOM      7  C   UNL     1      -2.915  12.834  21.292  0.00  0.00    +0.000 C 
ATOM      8  C   UNL     1      -3.308  12.409  19.908  0.00  0.00    +0.000 C 
ATOM      9  C   UNL     1      -2.074  12.221  19.023  0.00  0.00    +0.000 C 
ATOM     10  H   UNL     1       0.777  10.072  20.680  0.00  0.00    +0.000 HD
ENDROOT
BRANCH   3  11
ATOM     11  C   UNL     1       1.519   8.847  19.223  0.00  0.00    +0.000 A 
ATOM     12  C   UNL     1       2.213   8.905  18.017  0.00  0.00    +0.000 A 
ATOM     13  C   UNL     1       2.985   7.821  17.590  0.00  0.00    +0.000 A 
ATOM     14  C   UNL     1       3.085   6.655  18.363  0.00  0.00    +0.000 A 
ATOM     15  C   UNL     1       2.417   6.615  19.590  0.00  0.00    +0.000 A 
ATOM     16 CL   UNL     1       2.489   5.237  20.629  0.00  0.00    +0.000 Cl
ATOM     17  C   UNL     1       1.645   7.703  20.018  0.00  0.00    +0.000 A 
BRANCH  14  18
ATOM     18  C   UNL     1       3.895   5.490  17.863  0.00  0.00    +0.000 C 
ATOM     19  F   UNL     1       4.477   5.727  16.651  0.00  0.00    +0.000 F 
ATOM     20  F   UNL     1       4.921   5.157  18.694  0.00  0.00    +0.000 F 
ATOM     21  F   UNL     1       3.156   4.361  17.690  0.00  0.00    +0.000 F 
ENDBRANCH  14  18
ENDBRANCH   3  11
BRANCH   7  22
ATOM     22  C   UNL     1      -3.959  13.397  22.151  0.00  0.00    +0.000 A 
ATOM     23  N   UNL     1      -4.571  12.483  22.946  0.00  0.00    +0.000 NA
ATOM     24  C   UNL     1      -5.582  12.924  23.726  0.00  0.00    +0.000 A 
ATOM     25  C   UNL     1      -6.012  14.240  23.756  0.00  0.00    +0.000 A 
ATOM     26  C   UNL     1      -5.372  15.165  22.937  0.00  0.00    +0.000 A 
ATOM     27  C   UNL     1      -4.327  14.745  22.116  0.00  0.00    +0.000 A 
ATOM     28 CL   UNL     1      -3.561  15.905  21.094  0.00  0.00    +0.000 Cl
ENDBRANCH   7  22
TORSDOF 3
ENDMDL
MODEL 7
REMARK VINA RESULT:      -7.8      1.589      1.951
REMARK  Name = 
REMARK  3 active torsions:
REMARK  status: ('A' for Active; 'I' for Inactive)
REMARK    1  A    between atoms: N_3  and  C_4
REMARK    2  A    between atoms: C_7  and  C_8
REMARK    3  A    between atoms: C_18  and  C_19
REMARK                            x       y       z     vdW  Elec       q    Type
REMARK                         _______ _______ _______ _____ _____    ______ ____
ROOT
ATOM      1  O   UNL     1       0.986   9.666  19.081  0.00  0.00    +0.000 OA
ATOM      2  C   UNL     1       0.776   9.433  20.270  0.00  0.00    +0.000 C 
ATOM      3  N   UNL     1       1.066   8.230  20.875  0.00  0.00    +0.000 N 
ATOM      4  N   UNL     1       0.205  10.398  21.099  0.00  0.00    +0.000 N 
ATOM      5  C   UNL     1       0.064  10.304  22.552  0.00  0.00    +0.000 C 
ATOM      6  C   UNL     1      -1.076  11.138  23.046  0.00  0.00    +0.000 C 
ATOM      7  C   UNL     1      -1.765  12.002  22.278  0.00  0.00    +0.000 C 
ATOM      8  C   UNL     1      -1.395  12.269  20.849  0.00  0.00    +0.000 C 
ATOM      9  C   UNL     1       0.006  11.739  20.539  0.00  0.00    +0.000 C 
ATOM     10  H   UNL     1       0.633   8.051  21.762  0.00  0.00    +0.000 HD
ENDROOT
BRANCH   3  11
ATOM     11  C   UNL     1       1.689   7.109  20.287  0.00  0.00    +0.000 A 
ATOM     12  C   UNL     1       1.516   5.801  20.733  0.00  0.00    +0.000 A 
ATOM     13  C   UNL     1       2.207   4.748  20.127  0.00  0.00    +0.000 A 
ATOM     14  C   UNL     1       3.082   4.979  19.056  0.00  0.00    +0.000 A 
ATOM     15  C   UNL     1       3.224   6.287  18.587  0.00  0.00    +0.000 A 
ATOM     16 CL   UNL     1       4.260   6.680  17.261  0.00  0.00    +0.000 Cl
ATOM     17  C   UNL     1       2.529   7.342  19.194  0.00  0.00    +0.000 A 
BRANCH  14  18
ATOM     18  C   UNL     1       3.839   3.831  18.445  0.00  0.00    +0.000 C 
ATOM     19  F   UNL     1       3.545   2.630  19.025  0.00  0.00    +0.000 F 
ATOM     20  F   UNL     1       3.575   3.663  17.119  0.00  0.00    +0.000 F 
ATOM     21  F   UNL     1       5.189   3.962  18.556  0.00  0.00    +0.000 F 
ENDBRANCH  14  18
ENDBRANCH   3  11
BRANCH   7  22
ATOM     22  C   UNL     1      -2.899  12.743  22.836  0.00  0.00    +0.000 A 
ATOM     23  N   UNL     1      -4.111  12.287  22.427  0.00  0.00    +0.000 NA
ATOM     24  C   UNL     1      -5.199  12.959  22.860  0.00  0.00    +0.000 A 
ATOM     25  C   UNL     1      -5.141  14.066  23.688  0.00  0.00    +0.000 A 
ATOM     26  C   UNL     1      -3.891  14.519  24.101  0.00  0.00    +0.000 A 
ATOM     27  C   UNL     1      -2.745  13.853  23.671  0.00  0.00    +0.000 A 
ATOM     28 CL   UNL     1      -1.206  14.444  24.179  0.00  0.00    +0.000 Cl
ENDBRANCH   7  22
TORSDOF 3
ENDMDL
MODEL 8
REMARK VINA RESULT:      -7.8      1.518      1.760
REMARK  Name = 
REMARK  3 active torsions:
REMARK  status: ('A' for Active; 'I' for Inactive)
REMARK    1  A    between atoms: N_3  and  C_4
REMARK    2  A    between atoms: C_7  and  C_8
REMARK    3  A    between atoms: C_18  and  C_19
REMARK                            x       y       z     vdW  Elec       q    Type
REMARK                         _______ _______ _______ _____ _____    ______ ____
ROOT
ATOM      1  O   UNL     1       0.271   9.638  17.937  0.00  0.00    +0.000 OA
ATOM      2  C   UNL     1       0.645   9.759  19.102  0.00  0.00    +0.000 C 
ATOM      3  N   UNL     1       1.543   8.908  19.708  0.00  0.00    +0.000 N 
ATOM      4  N   UNL     1       0.161  10.790  19.906  0.00  0.00    +0.000 N 
ATOM      5  C   UNL     1       0.653  11.141  21.239  0.00  0.00    +0.000 C 
ATOM      6  C   UNL     1      -0.405  11.819  22.051  0.00  0.00    +0.000 C 
ATOM      7  C   UNL     1      -1.592  12.219  21.559  0.00  0.00    +0.000 C 
ATOM      8  C   UNL     1      -1.937  12.086  20.105  0.00  0.00    +0.000 C 
ATOM      9  C   UNL     1      -0.687  11.803  19.269  0.00  0.00    +0.000 C 
ATOM     10  H   UNL     1       1.589   8.934  20.710  0.00  0.00    +0.000 HD
ENDROOT
BRANCH   3  11
ATOM     11  C   UNL     1       2.220   7.821  19.116  0.00  0.00    +0.000 A 
ATOM     12  C   UNL     1       2.955   7.912  17.936  0.00  0.00    +0.000 A 
ATOM     13  C   UNL     1       3.558   6.777  17.387  0.00  0.00    +0.000 A 
ATOM     14  C   UNL     1       3.445   5.525  18.009  0.00  0.00    +0.000 A 
ATOM     15  C   UNL     1       2.739   5.446  19.212  0.00  0.00    +0.000 A 
ATOM     16 CL   UNL     1       2.556   3.958  20.072  0.00  0.00    +0.000 Cl
ATOM     17  C   UNL     1       2.137   6.584  19.764  0.00  0.00    +0.000 A 
BRANCH  14  18
ATOM     18  C   UNL     1       4.076   4.314  17.378  0.00  0.00    +0.000 C 
ATOM     19  F   UNL     1       3.174   3.328  17.098  0.00  0.00    +0.000 F 
ATOM     20  F   UNL     1       4.687   4.588  16.193  0.00  0.00    +0.000 F 
ATOM     21  F   UNL     1       5.014   3.727  18.170  0.00  0.00    +0.000 F 
ENDBRANCH  14  18
ENDBRANCH   3  11
BRANCH   7  22
ATOM     22  C   UNL     1      -2.587  12.835  22.439  0.00  0.00    +0.000 A 
ATOM     23  N   UNL     1      -3.146  11.973  23.327  0.00  0.00    +0.000 NA
ATOM     24  C   UNL     1      -4.112  12.461  24.135  0.00  0.00    +0.000 A 
ATOM     25  C   UNL     1      -4.547  13.775  24.105  0.00  0.00    +0.000 A 
ATOM     26  C   UNL     1      -3.961  14.647  23.192  0.00  0.00    +0.000 A 
ATOM     27  C   UNL     1      -2.964  14.177  22.339  0.00  0.00    +0.000 A 
ATOM     28 CL   UNL     1      -2.265  15.269  21.202  0.00  0.00    +0.000 Cl
ENDBRANCH   7  22
TORSDOF 3
ENDMDL
MODEL 9
REMARK VINA RESULT:      -7.7      2.481      3.220
REMARK  Name = 
REMARK  3 active torsions:
REMARK  status: ('A' for Active; 'I' for Inactive)
REMARK    1  A    between atoms: N_3  and  C_4
REMARK    2  A    between atoms: C_7  and  C_8
REMARK    3  A    between atoms: C_18  and  C_19
REMARK                            x       y       z     vdW  Elec       q    Type
REMARK                         _______ _______ _______ _____ _____    ______ ____
ROOT
ATOM      1  O   UNL     1       1.643   7.116  21.066  0.00  0.00    +0.000 OA
ATOM      2  C   UNL     1       1.365   7.986  20.242  0.00  0.00    +0.000 C 
ATOM      3  N   UNL     1       1.843   7.993  18.950  0.00  0.00    +0.000 N 
ATOM      4  N   UNL     1       0.533   9.052  20.579  0.00  0.00    +0.000 N 
ATOM      5  C   UNL     1      -0.004  10.047  19.650  0.00  0.00    +0.000 C 
ATOM      6  C   UNL     1      -0.311  11.336  20.345  0.00  0.00    +0.000 C 
ATOM      7  C   UNL     1      -0.270  11.500  21.679  0.00  0.00    +0.000 C 
ATOM      8  C   UNL     1       0.018  10.362  22.614  0.00  0.00    +0.000 C 
ATOM      9  C   UNL     1      -0.112   9.018  21.895  0.00  0.00    +0.000 C 
ATOM     10  H   UNL     1       1.772   8.856  18.443  0.00  0.00    +0.000 HD
ENDROOT
BRANCH   3  11
ATOM     11  C   UNL     1       2.655   7.016  18.336  0.00  0.00    +0.000 A 
ATOM     12  C   UNL     1       2.274   5.689  18.156  0.00  0.00    +0.000 A 
ATOM     13  C   UNL     1       3.155   4.769  17.582  0.00  0.00    +0.000 A 
ATOM     14  C   UNL     1       4.437   5.159  17.167  0.00  0.00    +0.000 A 
ATOM     15  C   UNL     1       4.802   6.499  17.314  0.00  0.00    +0.000 A 
ATOM     16 CL   UNL     1       6.348   7.089  16.818  0.00  0.00    +0.000 Cl
ATOM     17  C   UNL     1       3.917   7.421  17.888  0.00  0.00    +0.000 A 
BRANCH  14  18
ATOM     18  C   UNL     1       5.378   4.140  16.582  0.00  0.00    +0.000 C 
ATOM     19  F   UNL     1       5.660   4.368  15.266  0.00  0.00    +0.000 F 
ATOM     20  F   UNL     1       6.587   4.108  17.208  0.00  0.00    +0.000 F 
ATOM     21  F   UNL     1       4.886   2.872  16.628  0.00  0.00    +0.000 F 
ENDBRANCH  14  18
ENDBRANCH   3  11
BRANCH   7  22
ATOM     22  C   UNL     1      -0.540  12.812  22.271  0.00  0.00    +0.000 A 
ATOM     23  N   UNL     1       0.409  13.745  22.001  0.00  0.00    +0.000 NA
ATOM     24  C   UNL     1       0.251  14.964  22.561  0.00  0.00    +0.000 A 
ATOM     25  C   UNL     1      -0.815  15.303  23.376  0.00  0.00    +0.000 A 
ATOM     26  C   UNL     1      -1.781  14.337  23.640  0.00  0.00    +0.000 A 
ATOM     27  C   UNL     1      -1.649  13.066  23.083  0.00  0.00    +0.000 A 
ATOM     28 CL   UNL     1      -2.848  11.878  23.440  0.00  0.00    +0.000 Cl
ENDBRANCH   7  22
TORSDOF 3
ENDMDL
