MODEL 1
REMARK VINA RESULT:      -8.6      0.000      0.000
REMARK  Name = 
REMARK  9 active torsions:
REMARK  status: ('A' for Active; 'I' for Inactive)
REMARK    1  A    between atoms: C_1  and  O_2
REMARK    2  A    between atoms: O_2  and  C_3
REMARK    3  A    between atoms: C_6  and  C_7
REMARK    4  A    between atoms: N_12  and  C_13
REMARK    5  A    between atoms: C_13  and  C_14
REMARK    6  A    between atoms: C_17  and  C_18
REMARK    7  A    between atoms: C_23  and  C_24
REMARK    8  A    between atoms: C_34  and  O_35
REMARK    9  A    between atoms: O_35  and  C_36
REMARK                            x       y       z     vdW  Elec       q    Type
REMARK                         _______ _______ _______ _____ _____    ______ ____
ROOT
ATOM      1  C   UNL     1       0.430   9.642  20.453  0.00  0.00    +0.000 C 
ENDROOT
BRANCH   1   7
ATOM      2  C   UNL     1       0.423  14.385  19.087  0.00  0.00    +0.000 C 
ATOM      3  C   UNL     1       0.079  13.088  19.099  0.00  0.00    +0.000 C 
ATOM      4  S   UNL     1      -1.207  12.428  18.160  0.00  0.00    +0.000 S 
ATOM      5  C   UNL     1      -1.007  10.820  18.847  0.00  0.00    +0.000 C 
ATOM      6  O   UNL     1      -1.773   9.900  18.612  0.00  0.00    +0.000 OA
ATOM      7  N   UNL     1       0.072  10.810  19.692  0.00  0.00    +0.000 N 
ATOM      8  C   UNL     1       0.698  12.009  19.923  0.00  0.00    +0.000 C 
ATOM      9  O   UNL     1       1.607  12.162  20.727  0.00  0.00    +0.000 OA
BRANCH   2  13
ATOM     10  C   UNL     1       3.658  15.441  21.646  0.00  0.00    +0.000 A 
ATOM     11  C   UNL     1       2.329  15.588  22.080  0.00  0.00    +0.000 A 
ATOM     12  C   UNL     1       1.260  15.300  21.230  0.00  0.00    +0.000 A 
ATOM     13  C   UNL     1       1.508  14.912  19.916  0.00  0.00    +0.000 A 
ATOM     14  C   UNL     1       2.823  14.887  19.444  0.00  0.00    +0.000 A 
ATOM     15  C   UNL     1       3.909  15.136  20.299  0.00  0.00    +0.000 A 
BRANCH  10  17
ATOM     16  C   UNL     1       5.095  14.437  23.239  0.00  0.00    +0.000 C 
ATOM     17  O   UNL     1       4.702  15.609  22.518  0.00  0.00    +0.000 OA
ENDBRANCH  10  17
BRANCH  15  18
ATOM     18  O   UNL     1       5.106  14.989  19.648  0.00  0.00    +0.000 OA
ATOM     19  C   UNL     1       5.112  14.780  18.247  0.00  0.00    +0.000 C 
ENDBRANCH  15  18
ENDBRANCH   2  13
ENDBRANCH   1   7
BRANCH   1  20
ATOM     20  C   UNL     1       1.366   8.707  19.724  0.00  0.00    +0.000 A 
ATOM     21  C   UNL     1       1.897   7.560  20.329  0.00  0.00    +0.000 A 
ATOM     22  C   UNL     1       2.706   6.675  19.597  0.00  0.00    +0.000 A 
ATOM     23  C   UNL     1       2.977   6.885  18.232  0.00  0.00    +0.000 A 
ATOM     24  C   UNL     1       2.384   8.014  17.640  0.00  0.00    +0.000 A 
ATOM     25  C   UNL     1       1.655   8.945  18.381  0.00  0.00    +0.000 A 
BRANCH  23  26
ATOM     26  C   UNL     1       3.845   5.961  17.441  0.00  0.00    +0.000 A 
ATOM     27  C   UNL     1       4.943   6.492  16.724  0.00  0.00    +0.000 A 
ATOM     28  C   UNL     1       5.835   5.677  16.018  0.00  0.00    +0.000 A 
ATOM     29  C   UNL     1       5.675   4.300  16.031  0.00  0.00    +0.000 A 
ATOM     30  C   UNL     1       4.601   3.741  16.719  0.00  0.00    +0.000 A 
ATOM     31  C   UNL     1       3.663   4.550  17.395  0.00  0.00    +0.000 A 
BRANCH  31  32
ATOM     32  C   UNL     1       2.537   3.849  18.016  0.00  0.00    +0.000 A 
ATOM     33  N   UNL     1       1.289   3.796  17.590  0.00  0.00    +0.000 NA
ATOM     34  N   UNL     1       0.619   2.956  18.448  0.00  0.00    +0.000 NA
ATOM     35  N   UNL     1       1.421   2.520  19.407  0.00  0.00    +0.000 NA
ATOM     36  N   UNL     1       2.603   3.099  19.161  0.00  0.00    +0.000 N 
ATOM     37  H   UNL     1       3.405   2.881  19.740  0.00  0.00    +0.000 HD
ENDBRANCH  31  32
ENDBRANCH  23  26
ENDBRANCH   1  20
TORSDOF 7
ENDMDL
MODEL 2
REMARK VINA RESULT:      -8.5      1.251      2.057
REMARK  Name = 
REMARK  9 active torsions:
REMARK  status: ('A' for Active; 'I' for Inactive)
REMARK    1  A    between atoms: C_1  and  O_2
REMARK    2  A    between atoms: O_2  and  C_3
REMARK    3  A    between atoms: C_6  and  C_7
REMARK    4  A    between atoms: N_12  and  C_13
REMARK    5  A    between atoms: C_13  and  C_14
REMARK    6  A    between atoms: C_17  and  C_18
REMARK    7  A    between atoms: C_23  and  C_24
REMARK    8  A    between atoms: C_34  and  O_35
REMARK    9  A    between atoms: O_35  and  C_36
REMARK                            x       y       z     vdW  Elec       q    Type
REMARK                         _______ _______ _______ _____ _____    ______ ____
ROOT
ATOM      1  C   UNL     1       0.681   9.778  20.262  0.00  0.00    +0.000 C 
ENDROOT
BRANCH   1   7
ATOM      2  C   UNL     1      -0.038  14.315  18.455  0.00  0.00    +0.000 C 
ATOM      3  C   UNL     1      -0.244  13.004  18.659  0.00  0.00    +0.000 C 
ATOM      4  S   UNL     1      -1.602  12.139  18.046  0.00  0.00    +0.000 S 
ATOM      5  C   UNL     1      -1.125  10.643  18.841  0.00  0.00    +0.000 C 
ATOM      6  O   UNL     1      -1.825   9.644  18.844  0.00  0.00    +0.000 OA
ATOM      7  N   UNL     1       0.081  10.818  19.467  0.00  0.00    +0.000 N 
ATOM      8  C   UNL     1       0.615  12.081  19.458  0.00  0.00    +0.000 C 
ATOM      9  O   UNL     1       1.631  12.399  20.060  0.00  0.00    +0.000 OA
BRANCH   2  13
ATOM     10  C   UNL     1       3.142  16.779  19.849  0.00  0.00    +0.000 A 
ATOM     11  C   UNL     1       3.313  15.971  18.712  0.00  0.00    +0.000 A 
ATOM     12  C   UNL     1       2.298  15.115  18.279  0.00  0.00    +0.000 A 
ATOM     13  C   UNL     1       1.117  15.019  19.011  0.00  0.00    +0.000 A 
ATOM     14  C   UNL     1       0.994  15.727  20.211  0.00  0.00    +0.000 A 
ATOM     15  C   UNL     1       1.991  16.619  20.636  0.00  0.00    +0.000 A 
BRANCH  10  17
ATOM     16  C   UNL     1       5.439  17.353  19.873  0.00  0.00    +0.000 C 
ATOM     17  O   UNL     1       4.091  17.703  20.201  0.00  0.00    +0.000 OA
ENDBRANCH  10  17
BRANCH  15  18
ATOM     18  O   UNL     1       1.635  17.256  21.796  0.00  0.00    +0.000 OA
ATOM     19  C   UNL     1       2.312  16.936  22.999  0.00  0.00    +0.000 C 
ENDBRANCH  15  18
ENDBRANCH   2  13
ENDBRANCH   1   7
BRANCH   1  20
ATOM     20  C   UNL     1       1.493   8.791  19.456  0.00  0.00    +0.000 A 
ATOM     21  C   UNL     1       1.863   9.039  18.128  0.00  0.00    +0.000 A 
ATOM     22  C   UNL     1       2.679   8.130  17.433  0.00  0.00    +0.000 A 
ATOM     23  C   UNL     1       3.183   6.971  18.052  0.00  0.00    +0.000 A 
ATOM     24  C   UNL     1       2.839   6.781  19.402  0.00  0.00    +0.000 A 
ATOM     25  C   UNL     1       1.956   7.630  20.071  0.00  0.00    +0.000 A 
BRANCH  23  26
ATOM     26  C   UNL     1       4.042   5.989  17.325  0.00  0.00    +0.000 A 
ATOM     27  C   UNL     1       5.182   6.453  16.628  0.00  0.00    +0.000 A 
ATOM     28  C   UNL     1       6.067   5.582  15.983  0.00  0.00    +0.000 A 
ATOM     29  C   UNL     1       5.856   4.213  16.040  0.00  0.00    +0.000 A 
ATOM     30  C   UNL     1       4.740   3.718  16.710  0.00  0.00    +0.000 A 
ATOM     31  C   UNL     1       3.811   4.584  17.323  0.00  0.00    +0.000 A 
BRANCH  31  32
ATOM     32  C   UNL     1       2.640   3.948  17.930  0.00  0.00    +0.000 A 
ATOM     33  N   UNL     1       1.401   3.941  17.474  0.00  0.00    +0.000 NA
ATOM     34  N   UNL     1       0.674   3.149  18.332  0.00  0.00    +0.000 NA
ATOM     35  N   UNL     1       1.432   2.698  19.319  0.00  0.00    +0.000 NA
ATOM     36  N   UNL     1       2.644   3.219  19.091  0.00  0.00    +0.000 N 
ATOM     37  H   UNL     1       3.421   2.977  19.694  0.00  0.00    +0.000 HD
ENDBRANCH  31  32
ENDBRANCH  23  26
ENDBRANCH   1  20
TORSDOF 7
ENDMDL
MODEL 3
REMARK VINA RESULT:      -8.5      0.871      1.782
REMARK  Name = 
REMARK  9 active torsions:
REMARK  status: ('A' for Active; 'I' for Inactive)
REMARK    1  A    between atoms: C_1  and  O_2
REMARK    2  A    between atoms: O_2  and  C_3
REMARK    3  A    between atoms: C_6  and  C_7
REMARK    4  A    between atoms: N_12  and  C_13
REMARK    5  A    between atoms: C_13  and  C_14
REMARK    6  A    between atoms: C_17  and  C_18
REMARK    7  A    between atoms: C_23  and  C_24
REMARK    8  A    between atoms: C_34  and  O_35
REMARK    9  A    between atoms: O_35  and  C_36
REMARK                            x       y       z     vdW  Elec       q    Type
REMARK                         _______ _______ _______ _____ _____    ______ ____
ROOT
ATOM      1  C   UNL     1       0.371   9.594  20.494  0.00  0.00    +0.000 C 
ENDROOT
BRANCH   1   7
ATOM      2  C   UNL     1       0.684  14.423  19.523  0.00  0.00    +0.000 C 
ATOM      3  C   UNL     1       0.273  13.150  19.411  0.00  0.00    +0.000 C 
ATOM      4  S   UNL     1      -0.993  12.640  18.359  0.00  0.00    +0.000 S 
ATOM      5  C   UNL     1      -0.914  10.974  18.921  0.00  0.00    +0.000 C 
ATOM      6  O   UNL     1      -1.713  10.120  18.573  0.00  0.00    +0.000 OA
ATOM      7  N   UNL     1       0.116  10.837  19.814  0.00  0.00    +0.000 N 
ATOM      8  C   UNL     1       0.790  11.976  20.174  0.00  0.00    +0.000 C 
ATOM      9  O   UNL     1       1.661  12.014  21.032  0.00  0.00    +0.000 OA
BRANCH   2  13
ATOM     10  C   UNL     1       3.715  16.051  22.033  0.00  0.00    +0.000 A 
ATOM     11  C   UNL     1       4.054  15.420  20.823  0.00  0.00    +0.000 A 
ATOM     12  C   UNL     1       3.075  14.832  20.020  0.00  0.00    +0.000 A 
ATOM     13  C   UNL     1       1.749  14.821  20.445  0.00  0.00    +0.000 A 
ATOM     14  C   UNL     1       1.427  15.334  21.705  0.00  0.00    +0.000 A 
ATOM     15  C   UNL     1       2.395  15.963  22.504  0.00  0.00    +0.000 A 
BRANCH  10  17
ATOM     16  C   UNL     1       5.457  15.926  23.631  0.00  0.00    +0.000 C 
ATOM     17  O   UNL     1       4.659  16.729  22.758  0.00  0.00    +0.000 OA
ENDBRANCH  10  17
BRANCH  15  18
ATOM     18  O   UNL     1       1.850  16.454  23.661  0.00  0.00    +0.000 OA
ATOM     19  C   UNL     1       0.511  16.917  23.655  0.00  0.00    +0.000 C 
ENDBRANCH  15  18
ENDBRANCH   2  13
ENDBRANCH   1   7
BRANCH   1  20
ATOM     20  C   UNL     1       1.336   8.690  19.763  0.00  0.00    +0.000 A 
ATOM     21  C   UNL     1       1.854   7.526  20.345  0.00  0.00    +0.000 A 
ATOM     22  C   UNL     1       2.693   6.672  19.609  0.00  0.00    +0.000 A 
ATOM     23  C   UNL     1       3.006   6.931  18.261  0.00  0.00    +0.000 A 
ATOM     24  C   UNL     1       2.425   8.077  17.691  0.00  0.00    +0.000 A 
ATOM     25  C   UNL     1       1.666   8.977  18.440  0.00  0.00    +0.000 A 
BRANCH  23  26
ATOM     26  C   UNL     1       3.905   6.040  17.467  0.00  0.00    +0.000 A 
ATOM     27  C   UNL     1       5.009   6.605  16.786  0.00  0.00    +0.000 A 
ATOM     28  C   UNL     1       5.928   5.823  16.080  0.00  0.00    +0.000 A 
ATOM     29  C   UNL     1       5.790   4.443  16.057  0.00  0.00    +0.000 A 
ATOM     30  C   UNL     1       4.711   3.851  16.708  0.00  0.00    +0.000 A 
ATOM     31  C   UNL     1       3.747   4.628  17.383  0.00  0.00    +0.000 A 
BRANCH  31  32
ATOM     32  C   UNL     1       2.620   3.895  17.963  0.00  0.00    +0.000 A 
ATOM     33  N   UNL     1       1.374   3.858  17.527  0.00  0.00    +0.000 NA
ATOM     34  N   UNL     1       0.703   2.975  18.340  0.00  0.00    +0.000 NA
ATOM     35  N   UNL     1       1.501   2.498  19.283  0.00  0.00    +0.000 NA
ATOM     36  N   UNL     1       2.682   3.092  19.072  0.00  0.00    +0.000 N 
ATOM     37  H   UNL     1       3.480   2.849  19.645  0.00  0.00    +0.000 HD
ENDBRANCH  31  32
ENDBRANCH  23  26
ENDBRANCH   1  20
TORSDOF 7
ENDMDL
MODEL 4
REMARK VINA RESULT:      -8.2      0.990      1.459
REMARK  Name = 
REMARK  9 active torsions:
REMARK  status: ('A' for Active; 'I' for Inactive)
REMARK    1  A    between atoms: C_1  and  O_2
REMARK    2  A    between atoms: O_2  and  C_3
REMARK    3  A    between atoms: C_6  and  C_7
REMARK    4  A    between atoms: N_12  and  C_13
REMARK    5  A    between atoms: C_13  and  C_14
REMARK    6  A    between atoms: C_17  and  C_18
REMARK    7  A    between atoms: C_23  and  C_24
REMARK    8  A    between atoms: C_34  and  O_35
REMARK    9  A    between atoms: O_35  and  C_36
REMARK                            x       y       z     vdW  Elec       q    Type
REMARK                         _______ _______ _______ _____ _____    ______ ____
ROOT
ATOM      1  C   UNL     1       0.715   9.882  20.439  0.00  0.00    +0.000 C 
ENDROOT
BRANCH   1   7
ATOM      2  C   UNL     1      -0.036  14.389  18.570  0.00  0.00    +0.000 C 
ATOM      3  C   UNL     1      -0.240  13.083  18.803  0.00  0.00    +0.000 C 
ATOM      4  S   UNL     1      -1.615  12.211  18.237  0.00  0.00    +0.000 S 
ATOM      5  C   UNL     1      -1.123  10.728  19.046  0.00  0.00    +0.000 C 
ATOM      6  O   UNL     1      -1.825   9.731  19.084  0.00  0.00    +0.000 OA
ATOM      7  N   UNL     1       0.098  10.910  19.641  0.00  0.00    +0.000 N 
ATOM      8  C   UNL     1       0.635  12.171  19.596  0.00  0.00    +0.000 C 
ATOM      9  O   UNL     1       1.666  12.497  20.169  0.00  0.00    +0.000 OA
BRANCH   2  13
ATOM     10  C   UNL     1       3.553  16.003  20.198  0.00  0.00    +0.000 A 
ATOM     11  C   UNL     1       2.372  15.980  20.960  0.00  0.00    +0.000 A 
ATOM     12  C   UNL     1       1.175  15.507  20.418  0.00  0.00    +0.000 A 
ATOM     13  C   UNL     1       1.134  15.100  19.086  0.00  0.00    +0.000 A 
ATOM     14  C   UNL     1       2.275  15.239  18.291  0.00  0.00    +0.000 A 
ATOM     15  C   UNL     1       3.494  15.677  18.833  0.00  0.00    +0.000 A 
BRANCH  10  17
ATOM     16  C   UNL     1       5.024  17.758  20.801  0.00  0.00    +0.000 C 
ATOM     17  O   UNL     1       4.748  16.354  20.768  0.00  0.00    +0.000 OA
ENDBRANCH  10  17
BRANCH  15  18
ATOM     18  O   UNL     1       4.493  15.672  17.896  0.00  0.00    +0.000 OA
ATOM     19  C   UNL     1       5.383  14.571  17.838  0.00  0.00    +0.000 C 
ENDBRANCH  15  18
ENDBRANCH   2  13
ENDBRANCH   1   7
BRANCH   1  20
ATOM     20  C   UNL     1       1.452   8.844  19.625  0.00  0.00    +0.000 A 
ATOM     21  C   UNL     1       1.832   9.070  18.297  0.00  0.00    +0.000 A 
ATOM     22  C   UNL     1       2.581   8.110  17.595  0.00  0.00    +0.000 A 
ATOM     23  C   UNL     1       3.007   6.917  18.208  0.00  0.00    +0.000 A 
ATOM     24  C   UNL     1       2.656   6.747  19.560  0.00  0.00    +0.000 A 
ATOM     25  C   UNL     1       1.837   7.652  20.235  0.00  0.00    +0.000 A 
BRANCH  23  26
ATOM     26  C   UNL     1       3.793   5.880  17.475  0.00  0.00    +0.000 A 
ATOM     27  C   UNL     1       4.743   6.289  16.511  0.00  0.00    +0.000 A 
ATOM     28  C   UNL     1       5.560   5.376  15.836  0.00  0.00    +0.000 A 
ATOM     29  C   UNL     1       5.474   4.023  16.126  0.00  0.00    +0.000 A 
ATOM     30  C   UNL     1       4.544   3.581  17.063  0.00  0.00    +0.000 A 
ATOM     31  C   UNL     1       3.678   4.481  17.717  0.00  0.00    +0.000 A 
BRANCH  31  32
ATOM     32  C   UNL     1       2.694   3.886  18.623  0.00  0.00    +0.000 A 
ATOM     33  N   UNL     1       2.894   3.442  19.850  0.00  0.00    +0.000 NA
ATOM     34  N   UNL     1       1.666   3.056  20.331  0.00  0.00    +0.000 NA
ATOM     35  N   UNL     1       0.724   3.224  19.416  0.00  0.00    +0.000 NA
ATOM     36  N   UNL     1       1.364   3.707  18.344  0.00  0.00    +0.000 N 
ATOM     37  H   UNL     1       0.841   3.965  17.516  0.00  0.00    +0.000 HD
ENDBRANCH  31  32
ENDBRANCH  23  26
ENDBRANCH   1  20
TORSDOF 7
ENDMDL
MODEL 5
REMARK VINA RESULT:      -8.2      1.116      1.941
REMARK  Name = 
REMARK  9 active torsions:
REMARK  status: ('A' for Active; 'I' for Inactive)
REMARK    1  A    between atoms: C_1  and  O_2
REMARK    2  A    between atoms: O_2  and  C_3
REMARK    3  A    between atoms: C_6  and  C_7
REMARK    4  A    between atoms: N_12  and  C_13
REMARK    5  A    between atoms: C_13  and  C_14
REMARK    6  A    between atoms: C_17  and  C_18
REMARK    7  A    between atoms: C_23  and  C_24
REMARK    8  A    between atoms: C_34  and  O_35
REMARK    9  A    between atoms: O_35  and  C_36
REMARK                            x       y       z     vdW  Elec       q    Type
REMARK                         _______ _______ _______ _____ _____    ______ ____
ROOT
ATOM      1  C   UNL     1       0.482   9.723  20.369  0.00  0.00    +0.000 C 
ENDROOT
BRANCH   1   7
ATOM      2  C   UNL     1       0.197  14.292  18.523  0.00  0.00    +0.000 C 
ATOM      3  C   UNL     1      -0.111  13.000  18.713  0.00  0.00    +0.000 C 
ATOM      4  S   UNL     1      -1.484  12.228  18.011  0.00  0.00    +0.000 S 
ATOM      5  C   UNL     1      -1.164  10.706  18.834  0.00  0.00    +0.000 C 
ATOM      6  O   UNL     1      -1.930   9.757  18.790  0.00  0.00    +0.000 OA
ATOM      7  N   UNL     1       0.008  10.798  19.538  0.00  0.00    +0.000 N 
ATOM      8  C   UNL     1       0.627  12.022  19.565  0.00  0.00    +0.000 C 
ATOM      9  O   UNL     1       1.621  12.271  20.232  0.00  0.00    +0.000 OA
BRANCH   2  13
ATOM     10  C   UNL     1       3.458  16.528  20.104  0.00  0.00    +0.000 A 
ATOM     11  C   UNL     1       3.652  15.655  19.020  0.00  0.00    +0.000 A 
ATOM     12  C   UNL     1       2.604  14.872  18.530  0.00  0.00    +0.000 A 
ATOM     13  C   UNL     1       1.359  14.917  19.155  0.00  0.00    +0.000 A 
ATOM     14  C   UNL     1       1.198  15.688  20.309  0.00  0.00    +0.000 A 
ATOM     15  C   UNL     1       2.232  16.508  20.789  0.00  0.00    +0.000 A 
BRANCH  10  17
ATOM     16  C   UNL     1       5.613  17.406  19.666  0.00  0.00    +0.000 C 
ATOM     17  O   UNL     1       4.454  17.379  20.504  0.00  0.00    +0.000 OA
ENDBRANCH  10  17
BRANCH  15  18
ATOM     18  O   UNL     1       1.837  17.228  21.885  0.00  0.00    +0.000 OA
ATOM     19  C   UNL     1       2.234  16.801  23.176  0.00  0.00    +0.000 C 
ENDBRANCH  15  18
ENDBRANCH   2  13
ENDBRANCH   1   7
BRANCH   1  20
ATOM     20  C   UNL     1       1.408   8.768  19.653  0.00  0.00    +0.000 A 
ATOM     21  C   UNL     1       1.896   7.605  20.262  0.00  0.00    +0.000 A 
ATOM     22  C   UNL     1       2.697   6.703  19.541  0.00  0.00    +0.000 A 
ATOM     23  C   UNL     1       3.002   6.912  18.184  0.00  0.00    +0.000 A 
ATOM     24  C   UNL     1       2.451   8.060  17.587  0.00  0.00    +0.000 A 
ATOM     25  C   UNL     1       1.731   9.006  18.318  0.00  0.00    +0.000 A 
BRANCH  23  26
ATOM     26  C   UNL     1       3.861   5.971  17.405  0.00  0.00    +0.000 A 
ATOM     27  C   UNL     1       4.839   6.495  16.527  0.00  0.00    +0.000 A 
ATOM     28  C   UNL     1       5.721   5.673  15.819  0.00  0.00    +0.000 A 
ATOM     29  C   UNL     1       5.676   4.298  15.989  0.00  0.00    +0.000 A 
ATOM     30  C   UNL     1       4.721   3.744  16.839  0.00  0.00    +0.000 A 
ATOM     31  C   UNL     1       3.791   4.554  17.522  0.00  0.00    +0.000 A 
BRANCH  31  32
ATOM     32  C   UNL     1       2.790   3.848  18.326  0.00  0.00    +0.000 A 
ATOM     33  N   UNL     1       2.970   3.242  19.484  0.00  0.00    +0.000 NA
ATOM     34  N   UNL     1       1.732   2.803  19.891  0.00  0.00    +0.000 NA
ATOM     35  N   UNL     1       0.805   3.098  18.992  0.00  0.00    +0.000 NA
ATOM     36  N   UNL     1       1.464   3.717  18.005  0.00  0.00    +0.000 N 
ATOM     37  H   UNL     1       0.956   4.087  17.211  0.00  0.00    +0.000 HD
ENDBRANCH  31  32
ENDBRANCH  23  26
ENDBRANCH   1  20
TORSDOF 7
ENDMDL
MODEL 6
REMARK VINA RESULT:      -8.0      2.294      3.322
REMARK  Name = 
REMARK  9 active torsions:
REMARK  status: ('A' for Active; 'I' for Inactive)
REMARK    1  A    between atoms: C_1  and  O_2
REMARK    2  A    between atoms: O_2  and  C_3
REMARK    3  A    between atoms: C_6  and  C_7
REMARK    4  A    between atoms: N_12  and  C_13
REMARK    5  A    between atoms: C_13  and  C_14
REMARK    6  A    between atoms: C_17  and  C_18
REMARK    7  A    between atoms: C_23  and  C_24
REMARK    8  A    between atoms: C_34  and  O_35
REMARK    9  A    between atoms: O_35  and  C_36
REMARK                            x       y       z     vdW  Elec       q    Type
REMARK                         _______ _______ _______ _____ _____    ______ ____
ROOT
ATOM      1  C   UNL     1       1.115  10.075  20.744  0.00  0.00    +0.000 C 
ENDROOT
BRANCH   1   7
ATOM      2  C   UNL     1       0.622  14.323  18.280  0.00  0.00    +0.000 C 
ATOM      3  C   UNL     1       0.336  13.080  18.695  0.00  0.00    +0.000 C 
ATOM      4  S   UNL     1      -1.111  12.239  18.282  0.00  0.00    +0.000 S 
ATOM      5  C   UNL     1      -0.698  10.850  19.281  0.00  0.00    +0.000 C 
ATOM      6  O   UNL     1      -1.466   9.921  19.471  0.00  0.00    +0.000 OA
ATOM      7  N   UNL     1       0.549  11.024  19.822  0.00  0.00    +0.000 N 
ATOM      8  C   UNL     1       1.169  12.226  19.593  0.00  0.00    +0.000 C 
ATOM      9  O   UNL     1       2.235  12.552  20.095  0.00  0.00    +0.000 OA
BRANCH   2  13
ATOM     10  C   UNL     1       4.052  16.705  19.115  0.00  0.00    +0.000 A 
ATOM     11  C   UNL     1       4.115  15.676  18.160  0.00  0.00    +0.000 A 
ATOM     12  C   UNL     1       3.014  14.851  17.919  0.00  0.00    +0.000 A 
ATOM     13  C   UNL     1       1.853  15.012  18.670  0.00  0.00    +0.000 A 
ATOM     14  C   UNL     1       1.831  15.950  19.706  0.00  0.00    +0.000 A 
ATOM     15  C   UNL     1       2.915  16.812  19.933  0.00  0.00    +0.000 A 
BRANCH  10  17
ATOM     16  C   UNL     1       6.398  17.026  19.117  0.00  0.00    +0.000 C 
ATOM     17  O   UNL     1       5.090  17.587  19.264  0.00  0.00    +0.000 OA
ENDBRANCH  10  17
BRANCH  15  18
ATOM     18  O   UNL     1       2.654  17.695  20.947  0.00  0.00    +0.000 OA
ATOM     19  C   UNL     1       1.349  17.752  21.497  0.00  0.00    +0.000 C 
ENDBRANCH  15  18
ENDBRANCH   2  13
ENDBRANCH   1   7
BRANCH   1  20
ATOM     20  C   UNL     1       1.431   8.736  20.118  0.00  0.00    +0.000 A 
ATOM     21  C   UNL     1       1.844   8.615  18.786  0.00  0.00    +0.000 A 
ATOM     22  C   UNL     1       2.198   7.361  18.259  0.00  0.00    +0.000 A 
ATOM     23  C   UNL     1       2.191   6.200  19.055  0.00  0.00    +0.000 A 
ATOM     24  C   UNL     1       1.826   6.366  20.402  0.00  0.00    +0.000 A 
ATOM     25  C   UNL     1       1.386   7.589  20.909  0.00  0.00    +0.000 A 
BRANCH  23  26
ATOM     26  C   UNL     1       2.553   4.858  18.509  0.00  0.00    +0.000 A 
ATOM     27  C   UNL     1       1.649   3.782  18.668  0.00  0.00    +0.000 A 
ATOM     28  C   UNL     1       1.894   2.516  18.125  0.00  0.00    +0.000 A 
ATOM     29  C   UNL     1       3.040   2.293  17.376  0.00  0.00    +0.000 A 
ATOM     30  C   UNL     1       3.958   3.326  17.205  0.00  0.00    +0.000 A 
ATOM     31  C   UNL     1       3.752   4.594  17.787  0.00  0.00    +0.000 A 
BRANCH  31  32
ATOM     32  C   UNL     1       4.825   5.572  17.599  0.00  0.00    +0.000 A 
ATOM     33  N   UNL     1       5.778   5.897  18.452  0.00  0.00    +0.000 NA
ATOM     34  N   UNL     1       6.597   6.790  17.803  0.00  0.00    +0.000 NA
ATOM     35  N   UNL     1       6.148   7.045  16.583  0.00  0.00    +0.000 NA
ATOM     36  N   UNL     1       5.030   6.317  16.466  0.00  0.00    +0.000 N 
ATOM     37  H   UNL     1       4.522   6.306  15.590  0.00  0.00    +0.000 HD
ENDBRANCH  31  32
ENDBRANCH  23  26
ENDBRANCH   1  20
TORSDOF 7
ENDMDL
MODEL 7
REMARK VINA RESULT:      -7.9      3.815      5.673
REMARK  Name = 
REMARK  9 active torsions:
REMARK  status: ('A' for Active; 'I' for Inactive)
REMARK    1  A    between atoms: C_1  and  O_2
REMARK    2  A    between atoms: O_2  and  C_3
REMARK    3  A    between atoms: C_6  and  C_7
REMARK    4  A    between atoms: N_12  and  C_13
REMARK    5  A    between atoms: C_13  and  C_14
REMARK    6  A    between atoms: C_17  and  C_18
REMARK    7  A    between atoms: C_23  and  C_24
REMARK    8  A    between atoms: C_34  and  O_35
REMARK    9  A    between atoms: O_35  and  C_36
REMARK                            x       y       z     vdW  Elec       q    Type
REMARK                         _______ _______ _______ _____ _____    ______ ____
ROOT
ATOM      1  C   UNL     1       0.724  11.009  18.334  0.00  0.00    +0.000 C 
ENDROOT
BRANCH   1   7
ATOM      2  C   UNL     1      -0.821  13.873  22.045  0.00  0.00    +0.000 C 
ATOM      3  C   UNL     1       0.014  13.355  21.131  0.00  0.00    +0.000 C 
ATOM      4  S   UNL     1       1.605  13.950  20.839  0.00  0.00    +0.000 S 
ATOM      5  C   UNL     1       1.880  12.828  19.512  0.00  0.00    +0.000 C 
ATOM      6  O   UNL     1       2.875  12.869  18.807  0.00  0.00    +0.000 OA
ATOM      7  N   UNL     1       0.806  11.986  19.388  0.00  0.00    +0.000 N 
ATOM      8  C   UNL     1      -0.275  12.227  20.198  0.00  0.00    +0.000 C 
ATOM      9  O   UNL     1      -1.334  11.619  20.125  0.00  0.00    +0.000 OA
BRANCH   2  13
ATOM     10  C   UNL     1      -4.849  12.785  22.899  0.00  0.00    +0.000 A 
ATOM     11  C   UNL     1      -3.793  12.273  23.672  0.00  0.00    +0.000 A 
ATOM     12  C   UNL     1      -2.465  12.575  23.367  0.00  0.00    +0.000 A 
ATOM     13  C   UNL     1      -2.174  13.354  22.249  0.00  0.00    +0.000 A 
ATOM     14  C   UNL     1      -3.213  13.759  21.406  0.00  0.00    +0.000 A 
ATOM     15  C   UNL     1      -4.555  13.494  21.723  0.00  0.00    +0.000 A 
BRANCH  10  17
ATOM     16  C   UNL     1      -6.742  13.640  24.035  0.00  0.00    +0.000 C 
ATOM     17  O   UNL     1      -6.152  12.584  23.271  0.00  0.00    +0.000 OA
ENDBRANCH  10  17
BRANCH  15  18
ATOM     18  O   UNL     1      -5.407  14.041  20.801  0.00  0.00    +0.000 OA
ATOM     19  C   UNL     1      -5.759  15.410  20.907  0.00  0.00    +0.000 C 
ENDBRANCH  15  18
ENDBRANCH   2  13
ENDBRANCH   1   7
BRANCH   1  20
ATOM     20  C   UNL     1       1.326   9.673  18.699  0.00  0.00    +0.000 A 
ATOM     21  C   UNL     1       1.236   9.143  19.993  0.00  0.00    +0.000 A 
ATOM     22  C   UNL     1       1.744   7.864  20.277  0.00  0.00    +0.000 A 
ATOM     23  C   UNL     1       2.319   7.061  19.275  0.00  0.00    +0.000 A 
ATOM     24  C   UNL     1       2.343   7.599  17.976  0.00  0.00    +0.000 A 
ATOM     25  C   UNL     1       1.924   8.902  17.704  0.00  0.00    +0.000 A 
BRANCH  23  26
ATOM     26  C   UNL     1       2.875   5.704  19.562  0.00  0.00    +0.000 A 
ATOM     27  C   UNL     1       2.262   4.904  20.554  0.00  0.00    +0.000 A 
ATOM     28  C   UNL     1       2.688   3.600  20.827  0.00  0.00    +0.000 A 
ATOM     29  C   UNL     1       3.724   3.041  20.093  0.00  0.00    +0.000 A 
ATOM     30  C   UNL     1       4.357   3.801  19.113  0.00  0.00    +0.000 A 
ATOM     31  C   UNL     1       3.975   5.134  18.859  0.00  0.00    +0.000 A 
BRANCH  31  32
ATOM     32  C   UNL     1       4.766   5.853  17.859  0.00  0.00    +0.000 A 
ATOM     33  N   UNL     1       5.768   6.686  18.072  0.00  0.00    +0.000 NA
ATOM     34  N   UNL     1       6.250   7.041  16.834  0.00  0.00    +0.000 NA
ATOM     35  N   UNL     1       5.546   6.470  15.869  0.00  0.00    +0.000 NA
ATOM     36  N   UNL     1       4.604   5.759  16.501  0.00  0.00    +0.000 N 
ATOM     37  H   UNL     1       3.961   5.185  15.970  0.00  0.00    +0.000 HD
ENDBRANCH  31  32
ENDBRANCH  23  26
ENDBRANCH   1  20
TORSDOF 7
ENDMDL
MODEL 8
REMARK VINA RESULT:      -7.9      3.549      5.584
REMARK  Name = 
REMARK  9 active torsions:
REMARK  status: ('A' for Active; 'I' for Inactive)
REMARK    1  A    between atoms: C_1  and  O_2
REMARK    2  A    between atoms: O_2  and  C_3
REMARK    3  A    between atoms: C_6  and  C_7
REMARK    4  A    between atoms: N_12  and  C_13
REMARK    5  A    between atoms: C_13  and  C_14
REMARK    6  A    between atoms: C_17  and  C_18
REMARK    7  A    between atoms: C_23  and  C_24
REMARK    8  A    between atoms: C_34  and  O_35
REMARK    9  A    between atoms: O_35  and  C_36
REMARK                            x       y       z     vdW  Elec       q    Type
REMARK                         _______ _______ _______ _____ _____    ______ ____
ROOT
ATOM      1  C   UNL     1       0.614  10.723  18.127  0.00  0.00    +0.000 C 
ENDROOT
BRANCH   1   7
ATOM      2  C   UNL     1      -0.538  14.213  21.422  0.00  0.00    +0.000 C 
ATOM      3  C   UNL     1       0.221  13.476  20.596  0.00  0.00    +0.000 C 
ATOM      4  S   UNL     1       1.880  13.808  20.266  0.00  0.00    +0.000 S 
ATOM      5  C   UNL     1       2.003  12.501  19.094  0.00  0.00    +0.000 C 
ATOM      6  O   UNL     1       2.997  12.318  18.410  0.00  0.00    +0.000 OA
ATOM      7  N   UNL     1       0.824  11.804  19.053  0.00  0.00    +0.000 N 
ATOM      8  C   UNL     1      -0.216  12.288  19.805  0.00  0.00    +0.000 C 
ATOM      9  O   UNL     1      -1.348  11.825  19.785  0.00  0.00    +0.000 OA
BRANCH   2  13
ATOM     10  C   UNL     1      -4.561  12.894  21.884  0.00  0.00    +0.000 A 
ATOM     11  C   UNL     1      -4.212  13.761  20.835  0.00  0.00    +0.000 A 
ATOM     12  C   UNL     1      -2.909  14.247  20.707  0.00  0.00    +0.000 A 
ATOM     13  C   UNL     1      -1.951  13.911  21.660  0.00  0.00    +0.000 A 
ATOM     14  C   UNL     1      -2.326  13.153  22.773  0.00  0.00    +0.000 A 
ATOM     15  C   UNL     1      -3.622  12.627  22.893  0.00  0.00    +0.000 A 
BRANCH  10  17
ATOM     16  C   UNL     1      -6.347  11.909  20.681  0.00  0.00    +0.000 C 
ATOM     17  O   UNL     1      -5.807  12.326  21.938  0.00  0.00    +0.000 OA
ENDBRANCH  10  17
BRANCH  15  18
ATOM     18  O   UNL     1      -3.751  11.859  24.020  0.00  0.00    +0.000 OA
ATOM     19  C   UNL     1      -4.565  12.320  25.085  0.00  0.00    +0.000 C 
ENDBRANCH  15  18
ENDBRANCH   2  13
ENDBRANCH   1   7
BRANCH   1  20
ATOM     20  C   UNL     1       1.263   9.426  18.552  0.00  0.00    +0.000 A 
ATOM     21  C   UNL     1       1.217   8.967  19.874  0.00  0.00    +0.000 A 
ATOM     22  C   UNL     1       1.769   7.721  20.217  0.00  0.00    +0.000 A 
ATOM     23  C   UNL     1       2.347   6.880  19.248  0.00  0.00    +0.000 A 
ATOM     24  C   UNL     1       2.327   7.347  17.921  0.00  0.00    +0.000 A 
ATOM     25  C   UNL     1       1.863   8.619  17.587  0.00  0.00    +0.000 A 
BRANCH  23  26
ATOM     26  C   UNL     1       2.949   5.559  19.596  0.00  0.00    +0.000 A 
ATOM     27  C   UNL     1       2.366   4.785  20.626  0.00  0.00    +0.000 A 
ATOM     28  C   UNL     1       2.837   3.511  20.959  0.00  0.00    +0.000 A 
ATOM     29  C   UNL     1       3.890   2.954  20.249  0.00  0.00    +0.000 A 
ATOM     30  C   UNL     1       4.496   3.689  19.233  0.00  0.00    +0.000 A 
ATOM     31  C   UNL     1       4.067   4.995  18.917  0.00  0.00    +0.000 A 
BRANCH  31  32
ATOM     32  C   UNL     1       4.832   5.692  17.882  0.00  0.00    +0.000 A 
ATOM     33  N   UNL     1       4.673   5.615  16.574  0.00  0.00    +0.000 NA
ATOM     34  N   UNL     1       5.558   6.509  16.020  0.00  0.00    +0.000 NA
ATOM     35  N   UNL     1       6.279   7.106  16.957  0.00  0.00    +0.000 NA
ATOM     36  N   UNL     1       5.854   6.577  18.111  0.00  0.00    +0.000 N 
ATOM     37  H   UNL     1       6.227   6.913  18.990  0.00  0.00    +0.000 HD
ENDBRANCH  31  32
ENDBRANCH  23  26
ENDBRANCH   1  20
TORSDOF 7
ENDMDL
MODEL 9
REMARK VINA RESULT:      -7.9      1.281      2.255
REMARK  Name = 
REMARK  9 active torsions:
REMARK  status: ('A' for Active; 'I' for Inactive)
REMARK    1  A    between atoms: C_1  and  O_2
REMARK    2  A    between atoms: O_2  and  C_3
REMARK    3  A    between atoms: C_6  and  C_7
REMARK    4  A    between atoms: N_12  and  C_13
REMARK    5  A    between atoms: C_13  and  C_14
REMARK    6  A    between atoms: C_17  and  C_18
REMARK    7  A    between atoms: C_23  and  C_24
REMARK    8  A    between atoms: C_34  and  O_35
REMARK    9  A    between atoms: O_35  and  C_36
REMARK                            x       y       z     vdW  Elec       q    Type
REMARK                         _______ _______ _______ _____ _____    ______ ____
ROOT
ATOM      1  C   UNL     1       0.129  10.268  20.506  0.00  0.00    +0.000 C 
ENDROOT
BRANCH   1   7
ATOM      2  C   UNL     1       1.636  14.912  19.780  0.00  0.00    +0.000 C 
ATOM      3  C   UNL     1       0.910  13.795  19.620  0.00  0.00    +0.000 C 
ATOM      4  S   UNL     1      -0.478  13.690  18.603  0.00  0.00    +0.000 S 
ATOM      5  C   UNL     1      -0.809  12.027  19.072  0.00  0.00    +0.000 C 
ATOM      6  O   UNL     1      -1.811  11.427  18.717  0.00  0.00    +0.000 OA
ATOM      7  N   UNL     1       0.179  11.576  19.906  0.00  0.00    +0.000 N 
ATOM      8  C   UNL     1       1.133  12.482  20.294  0.00  0.00    +0.000 C 
ATOM      9  O   UNL     1       2.012  12.244  21.111  0.00  0.00    +0.000 OA
BRANCH   2  13
ATOM     10  C   UNL     1       5.049  15.561  22.243  0.00  0.00    +0.000 A 
ATOM     11  C   UNL     1       5.190  14.991  20.967  0.00  0.00    +0.000 A 
ATOM     12  C   UNL     1       4.073  14.719  20.173  0.00  0.00    +0.000 A 
ATOM     13  C   UNL     1       2.796  14.967  20.670  0.00  0.00    +0.000 A 
ATOM     14  C   UNL     1       2.647  15.415  21.986  0.00  0.00    +0.000 A 
ATOM     15  C   UNL     1       3.762  15.728  22.780  0.00  0.00    +0.000 A 
BRANCH  10  17
ATOM     16  C   UNL     1       7.235  16.470  22.206  0.00  0.00    +0.000 C 
ATOM     17  O   UNL     1       6.149  15.935  22.969  0.00  0.00    +0.000 OA
ENDBRANCH  10  17
BRANCH  15  18
ATOM     18  O   UNL     1       3.387  16.215  24.004  0.00  0.00    +0.000 OA
ATOM     19  C   UNL     1       3.372  17.616  24.219  0.00  0.00    +0.000 C 
ENDBRANCH  15  18
ENDBRANCH   2  13
ENDBRANCH   1   7
BRANCH   1  20
ATOM     20  C   UNL     1       0.949   9.233  19.773  0.00  0.00    +0.000 A 
ATOM     21  C   UNL     1       1.244   9.346  18.408  0.00  0.00    +0.000 A 
ATOM     22  C   UNL     1       2.072   8.401  17.776  0.00  0.00    +0.000 A 
ATOM     23  C   UNL     1       2.660   7.343  18.492  0.00  0.00    +0.000 A 
ATOM     24  C   UNL     1       2.389   7.291  19.871  0.00  0.00    +0.000 A 
ATOM     25  C   UNL     1       1.498   8.170  20.488  0.00  0.00    +0.000 A 
BRANCH  23  26
ATOM     26  C   UNL     1       3.532   6.323  17.835  0.00  0.00    +0.000 A 
ATOM     27  C   UNL     1       4.457   6.740  16.849  0.00  0.00    +0.000 A 
ATOM     28  C   UNL     1       5.349   5.850  16.242  0.00  0.00    +0.000 A 
ATOM     29  C   UNL     1       5.367   4.517  16.624  0.00  0.00    +0.000 A 
ATOM     30  C   UNL     1       4.465   4.068  17.585  0.00  0.00    +0.000 A 
ATOM     31  C   UNL     1       3.525   4.940  18.172  0.00  0.00    +0.000 A 
BRANCH  31  32
ATOM     32  C   UNL     1       2.582   4.332  19.113  0.00  0.00    +0.000 A 
ATOM     33  N   UNL     1       2.794   4.022  20.378  0.00  0.00    +0.000 NA
ATOM     34  N   UNL     1       1.598   3.559  20.873  0.00  0.00    +0.000 NA
ATOM     35  N   UNL     1       0.668   3.548  19.931  0.00  0.00    +0.000 NA
ATOM     36  N   UNL     1       1.284   3.995  18.830  0.00  0.00    +0.000 N 
ATOM     37  H   UNL     1       0.760   4.124  17.973  0.00  0.00    +0.000 HD
ENDBRANCH  31  32
ENDBRANCH  23  26
ENDBRANCH   1  20
TORSDOF 7
ENDMDL
