MODEL 1
REMARK VINA RESULT:      -7.7      0.000      0.000
REMARK  Name = 
REMARK  4 active torsions:
REMARK  status: ('A' for Active; 'I' for Inactive)
REMARK    1  A    between atoms: C_2  and  C_11
REMARK    2  A    between atoms: N_3  and  C_4
REMARK    3  A    between atoms: C_4  and  C_5
REMARK    4  A    between atoms: C_11  and  C_13
REMARK                            x       y       z     vdW  Elec       q    Type
REMARK                         _______ _______ _______ _____ _____    ______ ____
ROOT
ATOM      1  C   UNL     1       7.466   6.329  18.289  0.00  0.00    +0.000 C 
ATOM      2  O   UNL     1       8.145   6.119  19.292  0.00  0.00    +0.000 OA
ENDROOT
BRANCH   1   3
ATOM      3  C   UNL     1       6.601   5.325  17.672  0.00  0.00    +0.000 A 
ATOM      4  C   UNL     1       7.024   4.339  16.797  0.00  0.00    +0.000 A 
ATOM      5  N   UNL     1       5.947   3.569  16.452  0.00  0.00    +0.000 N 
ATOM      6  C   UNL     1       4.814   4.036  17.071  0.00  0.00    +0.000 A 
ATOM      7  C   UNL     1       3.502   3.549  17.016  0.00  0.00    +0.000 A 
ATOM      8  C   UNL     1       2.526   4.232  17.748  0.00  0.00    +0.000 A 
ATOM      9  C   UNL     1       2.854   5.358  18.496  0.00  0.00    +0.000 A 
ATOM     10  C   UNL     1       4.174   5.827  18.545  0.00  0.00    +0.000 A 
ATOM     11  C   UNL     1       5.184   5.151  17.826  0.00  0.00    +0.000 A 
ATOM     12  H   UNL     1       5.975   2.767  15.837  0.00  0.00    +0.000 HD
ENDBRANCH   1   3
BRANCH   1  14
ATOM     13  O   UNL     1       6.805   8.052  16.754  0.00  0.00    +0.000 OA
ATOM     14  C   UNL     1       7.516   7.749  17.705  0.00  0.00    +0.000 C 
ATOM     15  N   UNL     1       8.390   8.610  18.341  0.00  0.00    +0.000 N 
ATOM     16  H   UNL     1       8.994   8.234  19.063  0.00  0.00    +0.000 HD
BRANCH  15  17
ATOM     17  C   UNL     1       8.599   9.957  17.866  0.00  0.00    +0.000 C 
BRANCH  17  18
ATOM     18  C   UNL     1       9.557  10.718  18.733  0.00  0.00    +0.000 A 
ATOM     19  C   UNL     1      10.704  11.324  18.213  0.00  0.00    +0.000 A 
ATOM     20  C   UNL     1      11.545  12.049  19.055  0.00  0.00    +0.000 A 
ATOM     21  C   UNL     1      11.217  12.135  20.398  0.00  0.00    +0.000 A 
ATOM     22  N   UNL     1      10.129  11.551  20.940  0.00  0.00    +0.000 NA
ATOM     23  C   UNL     1       9.325  10.856  20.098  0.00  0.00    +0.000 A 
ENDBRANCH  17  18
ENDBRANCH  15  17
ENDBRANCH   1  14
TORSDOF 4
ENDMDL
MODEL 2
REMARK VINA RESULT:      -7.6      0.636      1.053
REMARK  Name = 
REMARK  4 active torsions:
REMARK  status: ('A' for Active; 'I' for Inactive)
REMARK    1  A    between atoms: C_2  and  C_11
REMARK    2  A    between atoms: N_3  and  C_4
REMARK    3  A    between atoms: C_4  and  C_5
REMARK    4  A    between atoms: C_11  and  C_13
REMARK                            x       y       z     vdW  Elec       q    Type
REMARK                         _______ _______ _______ _____ _____    ______ ____
ROOT
ATOM      1  C   UNL     1       7.487   6.394  18.280  0.00  0.00    +0.000 C 
ATOM      2  O   UNL     1       8.191   6.191  19.267  0.00  0.00    +0.000 OA
ENDROOT
BRANCH   1   3
ATOM      3  C   UNL     1       6.619   5.381  17.682  0.00  0.00    +0.000 A 
ATOM      4  C   UNL     1       7.038   4.380  16.821  0.00  0.00    +0.000 A 
ATOM      5  N   UNL     1       5.960   3.605  16.492  0.00  0.00    +0.000 N 
ATOM      6  C   UNL     1       4.828   4.083  17.108  0.00  0.00    +0.000 A 
ATOM      7  C   UNL     1       3.516   3.598  17.066  0.00  0.00    +0.000 A 
ATOM      8  C   UNL     1       2.544   4.293  17.789  0.00  0.00    +0.000 A 
ATOM      9  C   UNL     1       2.875   5.431  18.518  0.00  0.00    +0.000 A 
ATOM     10  C   UNL     1       4.195   5.899  18.555  0.00  0.00    +0.000 A 
ATOM     11  C   UNL     1       5.202   5.210  17.843  0.00  0.00    +0.000 A 
ATOM     12  H   UNL     1       5.984   2.793  15.891  0.00  0.00    +0.000 HD
ENDBRANCH   1   3
BRANCH   1  14
ATOM     13  O   UNL     1       6.791   8.103  16.745  0.00  0.00    +0.000 OA
ATOM     14  C   UNL     1       7.508   7.815  17.695  0.00  0.00    +0.000 C 
ATOM     15  N   UNL     1       8.366   8.692  18.330  0.00  0.00    +0.000 N 
ATOM     16  H   UNL     1       8.979   8.328  19.052  0.00  0.00    +0.000 HD
BRANCH  15  17
ATOM     17  C   UNL     1       8.548  10.043  17.855  0.00  0.00    +0.000 C 
BRANCH  17  18
ATOM     18  C   UNL     1       9.536  10.805  18.687  0.00  0.00    +0.000 A 
ATOM     19  C   UNL     1       9.396  10.932  20.071  0.00  0.00    +0.000 A 
ATOM     20  C   UNL     1      10.359  11.623  20.804  0.00  0.00    +0.000 A 
ATOM     21  C   UNL     1      11.430  12.178  20.122  0.00  0.00    +0.000 A 
ATOM     22  N   UNL     1      11.592  12.093  18.786  0.00  0.00    +0.000 NA
ATOM     23  C   UNL     1      10.643  11.411  18.099  0.00  0.00    +0.000 A 
ENDBRANCH  17  18
ENDBRANCH  15  17
ENDBRANCH   1  14
TORSDOF 4
ENDMDL
MODEL 3
REMARK VINA RESULT:      -7.5      4.653      6.567
REMARK  Name = 
REMARK  4 active torsions:
REMARK  status: ('A' for Active; 'I' for Inactive)
REMARK    1  A    between atoms: C_2  and  C_11
REMARK    2  A    between atoms: N_3  and  C_4
REMARK    3  A    between atoms: C_4  and  C_5
REMARK    4  A    between atoms: C_11  and  C_13
REMARK                            x       y       z     vdW  Elec       q    Type
REMARK                         _______ _______ _______ _____ _____    ______ ____
ROOT
ATOM      1  C   UNL     1       6.186   5.060  18.729  0.00  0.00    +0.000 C 
ATOM      2  O   UNL     1       6.717   5.227  19.825  0.00  0.00    +0.000 OA
ENDROOT
BRANCH   1   3
ATOM      3  C   UNL     1       4.740   5.102  18.516  0.00  0.00    +0.000 A 
ATOM      4  C   UNL     1       4.011   6.243  18.225  0.00  0.00    +0.000 A 
ATOM      5  N   UNL     1       2.698   5.895  18.063  0.00  0.00    +0.000 N 
ATOM      6  C   UNL     1       2.540   4.544  18.256  0.00  0.00    +0.000 A 
ATOM      7  C   UNL     1       1.383   3.760  18.177  0.00  0.00    +0.000 A 
ATOM      8  C   UNL     1       1.507   2.392  18.434  0.00  0.00    +0.000 A 
ATOM      9  C   UNL     1       2.740   1.838  18.764  0.00  0.00    +0.000 A 
ATOM     10  C   UNL     1       3.889   2.636  18.832  0.00  0.00    +0.000 A 
ATOM     11  C   UNL     1       3.797   4.020  18.566  0.00  0.00    +0.000 A 
ATOM     12  H   UNL     1       1.948   6.531  17.828  0.00  0.00    +0.000 HD
ENDBRANCH   1   3
BRANCH   1  14
ATOM     13  O   UNL     1       8.139   4.170  17.654  0.00  0.00    +0.000 OA
ATOM     14  C   UNL     1       7.123   4.843  17.531  0.00  0.00    +0.000 C 
ATOM     15  N   UNL     1       6.712   5.444  16.356  0.00  0.00    +0.000 N 
ATOM     16  H   UNL     1       5.900   6.050  16.384  0.00  0.00    +0.000 HD
BRANCH  15  17
ATOM     17  C   UNL     1       7.520   5.388  15.161  0.00  0.00    +0.000 C 
BRANCH  17  18
ATOM     18  C   UNL     1       6.842   4.636  14.055  0.00  0.00    +0.000 A 
ATOM     19  C   UNL     1       5.547   4.127  14.192  0.00  0.00    +0.000 A 
ATOM     20  C   UNL     1       4.948   3.463  13.124  0.00  0.00    +0.000 A 
ATOM     21  C   UNL     1       5.671   3.319  11.951  0.00  0.00    +0.000 A 
ATOM     22  N   UNL     1       6.928   3.781  11.785  0.00  0.00    +0.000 NA
ATOM     23  C   UNL     1       7.485   4.426  12.839  0.00  0.00    +0.000 A 
ENDBRANCH  17  18
ENDBRANCH  15  17
ENDBRANCH   1  14
TORSDOF 4
ENDMDL
MODEL 4
REMARK VINA RESULT:      -7.5      4.674      6.497
REMARK  Name = 
REMARK  4 active torsions:
REMARK  status: ('A' for Active; 'I' for Inactive)
REMARK    1  A    between atoms: C_2  and  C_11
REMARK    2  A    between atoms: N_3  and  C_4
REMARK    3  A    between atoms: C_4  and  C_5
REMARK    4  A    between atoms: C_11  and  C_13
REMARK                            x       y       z     vdW  Elec       q    Type
REMARK                         _______ _______ _______ _____ _____    ______ ____
ROOT
ATOM      1  C   UNL     1       6.220   5.008  18.736  0.00  0.00    +0.000 C 
ATOM      2  O   UNL     1       6.742   5.142  19.840  0.00  0.00    +0.000 OA
ENDROOT
BRANCH   1   3
ATOM      3  C   UNL     1       4.778   5.083  18.507  0.00  0.00    +0.000 A 
ATOM      4  C   UNL     1       4.080   6.237  18.195  0.00  0.00    +0.000 A 
ATOM      5  N   UNL     1       2.761   5.919  18.024  0.00  0.00    +0.000 N 
ATOM      6  C   UNL     1       2.568   4.575  18.232  0.00  0.00    +0.000 A 
ATOM      7  C   UNL     1       1.392   3.819  18.151  0.00  0.00    +0.000 A 
ATOM      8  C   UNL     1       1.480   2.452  18.425  0.00  0.00    +0.000 A 
ATOM      9  C   UNL     1       2.696   1.872  18.774  0.00  0.00    +0.000 A 
ATOM     10  C   UNL     1       3.864   2.642  18.845  0.00  0.00    +0.000 A 
ATOM     11  C   UNL     1       3.808   4.025  18.560  0.00  0.00    +0.000 A 
ATOM     12  H   UNL     1       2.029   6.570  17.774  0.00  0.00    +0.000 HD
ENDBRANCH   1   3
BRANCH   1  14
ATOM     13  O   UNL     1       8.202   4.158  17.681  0.00  0.00    +0.000 OA
ATOM     14  C   UNL     1       7.166   4.797  17.544  0.00  0.00    +0.000 C 
ATOM     15  N   UNL     1       6.741   5.364  16.357  0.00  0.00    +0.000 N 
ATOM     16  H   UNL     1       5.911   5.946  16.372  0.00  0.00    +0.000 HD
BRANCH  15  17
ATOM     17  C   UNL     1       7.553   5.311  15.165  0.00  0.00    +0.000 C 
BRANCH  17  18
ATOM     18  C   UNL     1       6.851   4.622  14.033  0.00  0.00    +0.000 A 
ATOM     19  C   UNL     1       7.483   4.375  12.811  0.00  0.00    +0.000 A 
ATOM     20  C   UNL     1       6.797   3.702  11.802  0.00  0.00    +0.000 A 
ATOM     21  C   UNL     1       5.492   3.305  12.045  0.00  0.00    +0.000 A 
ATOM     22  N   UNL     1       4.843   3.540  13.204  0.00  0.00    +0.000 NA
ATOM     23  C   UNL     1       5.534   4.192  14.170  0.00  0.00    +0.000 A 
ENDBRANCH  17  18
ENDBRANCH  15  17
ENDBRANCH   1  14
TORSDOF 4
ENDMDL
MODEL 5
REMARK VINA RESULT:      -7.4      4.672      6.328
REMARK  Name = 
REMARK  4 active torsions:
REMARK  status: ('A' for Active; 'I' for Inactive)
REMARK    1  A    between atoms: C_2  and  C_11
REMARK    2  A    between atoms: N_3  and  C_4
REMARK    3  A    between atoms: C_4  and  C_5
REMARK    4  A    between atoms: C_11  and  C_13
REMARK                            x       y       z     vdW  Elec       q    Type
REMARK                         _______ _______ _______ _____ _____    ______ ____
ROOT
ATOM      1  C   UNL     1       4.648   3.681  19.511  0.00  0.00    +0.000 C 
ATOM      2  O   UNL     1       4.891   2.567  19.970  0.00  0.00    +0.000 OA
ENDROOT
BRANCH   1   3
ATOM      3  C   UNL     1       5.593   4.447  18.701  0.00  0.00    +0.000 A 
ATOM      4  C   UNL     1       6.560   5.304  19.200  0.00  0.00    +0.000 A 
ATOM      5  N   UNL     1       7.274   5.817  18.153  0.00  0.00    +0.000 N 
ATOM      6  C   UNL     1       6.789   5.327  16.965  0.00  0.00    +0.000 A 
ATOM      7  C   UNL     1       7.223   5.571  15.656  0.00  0.00    +0.000 A 
ATOM      8  C   UNL     1       6.534   4.940  14.617  0.00  0.00    +0.000 A 
ATOM      9  C   UNL     1       5.451   4.107  14.882  0.00  0.00    +0.000 A 
ATOM     10  C   UNL     1       5.035   3.870  16.198  0.00  0.00    +0.000 A 
ATOM     11  C   UNL     1       5.720   4.483  17.270  0.00  0.00    +0.000 A 
ATOM     12  H   UNL     1       8.052   6.458  18.234  0.00  0.00    +0.000 HD
ENDBRANCH   1   3
BRANCH   1  14
ATOM     13  O   UNL     1       2.252   3.562  19.590  0.00  0.00    +0.000 OA
ATOM     14  C   UNL     1       3.247   4.250  19.782  0.00  0.00    +0.000 C 
ATOM     15  N   UNL     1       3.228   5.548  20.254  0.00  0.00    +0.000 N 
ATOM     16  H   UNL     1       4.104   6.058  20.295  0.00  0.00    +0.000 HD
BRANCH  15  17
ATOM     17  C   UNL     1       1.986   6.245  20.491  0.00  0.00    +0.000 C 
BRANCH  17  18
ATOM     18  C   UNL     1       1.888   7.512  19.695  0.00  0.00    +0.000 A 
ATOM     19  C   UNL     1       2.428   7.621  18.410  0.00  0.00    +0.000 A 
ATOM     20  C   UNL     1       2.282   8.810  17.698  0.00  0.00    +0.000 A 
ATOM     21  C   UNL     1       1.608   9.860  18.301  0.00  0.00    +0.000 A 
ATOM     22  N   UNL     1       1.089   9.799  19.544  0.00  0.00    +0.000 NA
ATOM     23  C   UNL     1       1.241   8.629  20.213  0.00  0.00    +0.000 A 
ENDBRANCH  17  18
ENDBRANCH  15  17
ENDBRANCH   1  14
TORSDOF 4
ENDMDL
MODEL 6
REMARK VINA RESULT:      -7.4      6.102      9.492
REMARK  Name = 
REMARK  4 active torsions:
REMARK  status: ('A' for Active; 'I' for Inactive)
REMARK    1  A    between atoms: C_2  and  C_11
REMARK    2  A    between atoms: N_3  and  C_4
REMARK    3  A    between atoms: C_4  and  C_5
REMARK    4  A    between atoms: C_11  and  C_13
REMARK                            x       y       z     vdW  Elec       q    Type
REMARK                         _______ _______ _______ _____ _____    ______ ____
ROOT
ATOM      1  C   UNL     1       1.437   9.384  18.445  0.00  0.00    +0.000 C 
ATOM      2  O   UNL     1       2.033   9.514  17.377  0.00  0.00    +0.000 OA
ENDROOT
BRANCH   1   3
ATOM      3  C   UNL     1       0.336  10.247  18.868  0.00  0.00    +0.000 A 
ATOM      4  C   UNL     1       0.376  11.122  19.941  0.00  0.00    +0.000 A 
ATOM      5  N   UNL     1      -0.820  11.781  20.014  0.00  0.00    +0.000 N 
ATOM      6  C   UNL     1      -1.660  11.348  19.017  0.00  0.00    +0.000 A 
ATOM      7  C   UNL     1      -2.964  11.754  18.710  0.00  0.00    +0.000 A 
ATOM      8  C   UNL     1      -3.600  11.132  17.633  0.00  0.00    +0.000 A 
ATOM      9  C   UNL     1      -2.956  10.139  16.901  0.00  0.00    +0.000 A 
ATOM     10  C   UNL     1      -1.648   9.749  17.219  0.00  0.00    +0.000 A 
ATOM     11  C   UNL     1      -0.975  10.369  18.295  0.00  0.00    +0.000 A 
ATOM     12  H   UNL     1      -1.057  12.489  20.695  0.00  0.00    +0.000 HD
ENDBRANCH   1   3
BRANCH   1  14
ATOM     13  O   UNL     1       1.532   8.174  20.516  0.00  0.00    +0.000 OA
ATOM     14  C   UNL     1       1.868   8.211  19.338  0.00  0.00    +0.000 C 
ATOM     15  N   UNL     1       2.623   7.243  18.704  0.00  0.00    +0.000 N 
ATOM     16  H   UNL     1       2.919   7.413  17.749  0.00  0.00    +0.000 HD
BRANCH  15  17
ATOM     17  C   UNL     1       3.160   6.114  19.426  0.00  0.00    +0.000 C 
BRANCH  17  18
ATOM     18  C   UNL     1       2.325   4.881  19.248  0.00  0.00    +0.000 A 
ATOM     19  C   UNL     1       1.633   4.297  20.313  0.00  0.00    +0.000 A 
ATOM     20  C   UNL     1       0.844   3.171  20.089  0.00  0.00    +0.000 A 
ATOM     21  C   UNL     1       0.781   2.656  18.805  0.00  0.00    +0.000 A 
ATOM     22  N   UNL     1       1.447   3.181  17.755  0.00  0.00    +0.000 NA
ATOM     23  C   UNL     1       2.203   4.279  18.000  0.00  0.00    +0.000 A 
ENDBRANCH  17  18
ENDBRANCH  15  17
ENDBRANCH   1  14
TORSDOF 4
ENDMDL
MODEL 7
REMARK VINA RESULT:      -7.4      4.707      6.664
REMARK  Name = 
REMARK  4 active torsions:
REMARK  status: ('A' for Active; 'I' for Inactive)
REMARK    1  A    between atoms: C_2  and  C_11
REMARK    2  A    between atoms: N_3  and  C_4
REMARK    3  A    between atoms: C_4  and  C_5
REMARK    4  A    between atoms: C_11  and  C_13
REMARK                            x       y       z     vdW  Elec       q    Type
REMARK                         _______ _______ _______ _____ _____    ______ ____
ROOT
ATOM      1  C   UNL     1       3.854   6.665  17.979  0.00  0.00    +0.000 C 
ATOM      2  O   UNL     1       3.561   7.713  17.407  0.00  0.00    +0.000 OA
ENDROOT
BRANCH   1   3
ATOM      3  C   UNL     1       2.940   5.943  18.863  0.00  0.00    +0.000 A 
ATOM      4  C   UNL     1       2.362   6.463  20.009  0.00  0.00    +0.000 A 
ATOM      5  N   UNL     1       1.546   5.513  20.558  0.00  0.00    +0.000 N 
ATOM      6  C   UNL     1       1.583   4.365  19.804  0.00  0.00    +0.000 A 
ATOM      7  C   UNL     1       0.901   3.156  19.986  0.00  0.00    +0.000 A 
ATOM      8  C   UNL     1       1.136   2.134  19.062  0.00  0.00    +0.000 A 
ATOM      9  C   UNL     1       2.024   2.318  18.006  0.00  0.00    +0.000 A 
ATOM     10  C   UNL     1       2.693   3.537  17.836  0.00  0.00    +0.000 A 
ATOM     11  C   UNL     1       2.467   4.592  18.747  0.00  0.00    +0.000 A 
ATOM     12  H   UNL     1       0.987   5.632  21.392  0.00  0.00    +0.000 HD
ENDBRANCH   1   3
BRANCH   1  14
ATOM     13  O   UNL     1       6.021   5.847  18.610  0.00  0.00    +0.000 OA
ATOM     14  C   UNL     1       5.247   6.085  17.691  0.00  0.00    +0.000 C 
ATOM     15  N   UNL     1       5.517   5.857  16.355  0.00  0.00    +0.000 N 
ATOM     16  H   UNL     1       4.840   6.170  15.667  0.00  0.00    +0.000 HD
BRANCH  15  17
ATOM     17  C   UNL     1       6.807   5.379  15.919  0.00  0.00    +0.000 C 
BRANCH  17  18
ATOM     18  C   UNL     1       6.758   4.808  14.533  0.00  0.00    +0.000 A 
ATOM     19  C   UNL     1       5.799   3.865  14.154  0.00  0.00    +0.000 A 
ATOM     20  C   UNL     1       5.776   3.390  12.845  0.00  0.00    +0.000 A 
ATOM     21  C   UNL     1       6.724   3.866  11.955  0.00  0.00    +0.000 A 
ATOM     22  N   UNL     1       7.676   4.763  12.286  0.00  0.00    +0.000 NA
ATOM     23  C   UNL     1       7.673   5.212  13.565  0.00  0.00    +0.000 A 
ENDBRANCH  17  18
ENDBRANCH  15  17
ENDBRANCH   1  14
TORSDOF 4
ENDMDL
MODEL 8
REMARK VINA RESULT:      -7.4      4.698      6.415
REMARK  Name = 
REMARK  4 active torsions:
REMARK  status: ('A' for Active; 'I' for Inactive)
REMARK    1  A    between atoms: C_2  and  C_11
REMARK    2  A    between atoms: N_3  and  C_4
REMARK    3  A    between atoms: C_4  and  C_5
REMARK    4  A    between atoms: C_11  and  C_13
REMARK                            x       y       z     vdW  Elec       q    Type
REMARK                         _______ _______ _______ _____ _____    ______ ____
ROOT
ATOM      1  C   UNL     1       5.854   4.610  18.797  0.00  0.00    +0.000 C 
ATOM      2  O   UNL     1       6.145   5.140  19.867  0.00  0.00    +0.000 OA
ENDROOT
BRANCH   1   3
ATOM      3  C   UNL     1       4.600   3.898  18.561  0.00  0.00    +0.000 A 
ATOM      4  C   UNL     1       4.406   2.923  17.596  0.00  0.00    +0.000 A 
ATOM      5  N   UNL     1       3.122   2.462  17.690  0.00  0.00    +0.000 N 
ATOM      6  C   UNL     1       2.454   3.125  18.692  0.00  0.00    +0.000 A 
ATOM      7  C   UNL     1       1.138   2.967  19.142  0.00  0.00    +0.000 A 
ATOM      8  C   UNL     1       0.708   3.791  20.186  0.00  0.00    +0.000 A 
ATOM      9  C   UNL     1       1.561   4.736  20.747  0.00  0.00    +0.000 A 
ATOM     10  C   UNL     1       2.877   4.875  20.288  0.00  0.00    +0.000 A 
ATOM     11  C   UNL     1       3.345   4.048  19.242  0.00  0.00    +0.000 A 
ATOM     12  H   UNL     1       2.717   1.735  17.116  0.00  0.00    +0.000 HD
ENDBRANCH   1   3
BRANCH   1  14
ATOM     13  O   UNL     1       8.002   4.323  17.764  0.00  0.00    +0.000 OA
ATOM     14  C   UNL     1       6.866   4.765  17.650  0.00  0.00    +0.000 C 
ATOM     15  N   UNL     1       6.379   5.410  16.529  0.00  0.00    +0.000 N 
ATOM     16  H   UNL     1       5.450   5.814  16.572  0.00  0.00    +0.000 HD
BRANCH  15  17
ATOM     17  C   UNL     1       7.228   5.692  15.396  0.00  0.00    +0.000 C 
BRANCH  17  18
ATOM     18  C   UNL     1       6.849   4.883  14.192  0.00  0.00    +0.000 A 
ATOM     19  C   UNL     1       5.709   4.074  14.173  0.00  0.00    +0.000 A 
ATOM     20  C   UNL     1       5.383   3.367  13.017  0.00  0.00    +0.000 A 
ATOM     21  C   UNL     1       6.217   3.483  11.917  0.00  0.00    +0.000 A 
ATOM     22  N   UNL     1       7.334   4.238  11.902  0.00  0.00    +0.000 NA
ATOM     23  C   UNL     1       7.626   4.919  13.037  0.00  0.00    +0.000 A 
ENDBRANCH  17  18
ENDBRANCH  15  17
ENDBRANCH   1  14
TORSDOF 4
ENDMDL
MODEL 9
REMARK VINA RESULT:      -7.4      4.795      7.943
REMARK  Name = 
REMARK  4 active torsions:
REMARK  status: ('A' for Active; 'I' for Inactive)
REMARK    1  A    between atoms: C_2  and  C_11
REMARK    2  A    between atoms: N_3  and  C_4
REMARK    3  A    between atoms: C_4  and  C_5
REMARK    4  A    between atoms: C_11  and  C_13
REMARK                            x       y       z     vdW  Elec       q    Type
REMARK                         _______ _______ _______ _____ _____    ______ ____
ROOT
ATOM      1  C   UNL     1       5.002   5.319  16.676  0.00  0.00    +0.000 C 
ATOM      2  O   UNL     1       4.277   6.293  16.863  0.00  0.00    +0.000 OA
ENDROOT
BRANCH   1   3
ATOM      3  C   UNL     1       5.997   5.244  15.608  0.00  0.00    +0.000 A 
ATOM      4  C   UNL     1       7.250   5.832  15.644  0.00  0.00    +0.000 A 
ATOM      5  N   UNL     1       7.913   5.524  14.488  0.00  0.00    +0.000 N 
ATOM      6  C   UNL     1       7.115   4.753  13.677  0.00  0.00    +0.000 A 
ATOM      7  C   UNL     1       7.388   4.203  12.419  0.00  0.00    +0.000 A 
ATOM      8  C   UNL     1       6.379   3.457  11.805  0.00  0.00    +0.000 A 
ATOM      9  C   UNL     1       5.147   3.278  12.426  0.00  0.00    +0.000 A 
ATOM     10  C   UNL     1       4.893   3.829  13.688  0.00  0.00    +0.000 A 
ATOM     11  C   UNL     1       5.898   4.578  14.339  0.00  0.00    +0.000 A 
ATOM     12  H   UNL     1       8.854   5.812  14.258  0.00  0.00    +0.000 HD
ENDBRANCH   1   3
BRANCH   1  14
ATOM     13  O   UNL     1       5.632   4.046  18.611  0.00  0.00    +0.000 OA
ATOM     14  C   UNL     1       4.862   4.152  17.665  0.00  0.00    +0.000 C 
ATOM     15  N   UNL     1       3.819   3.285  17.398  0.00  0.00    +0.000 N 
ATOM     16  H   UNL     1       3.293   3.415  16.540  0.00  0.00    +0.000 HD
BRANCH  15  17
ATOM     17  C   UNL     1       3.599   2.103  18.197  0.00  0.00    +0.000 C 
BRANCH  17  18
ATOM     18  C   UNL     1       2.809   2.398  19.437  0.00  0.00    +0.000 A 
ATOM     19  C   UNL     1       1.454   2.739  19.387  0.00  0.00    +0.000 A 
ATOM     20  C   UNL     1       0.756   2.972  20.571  0.00  0.00    +0.000 A 
ATOM     21  C   UNL     1       1.442   2.867  21.770  0.00  0.00    +0.000 A 
ATOM     22  N   UNL     1       2.752   2.558  21.858  0.00  0.00    +0.000 NA
ATOM     23  C   UNL     1       3.405   2.332  20.693  0.00  0.00    +0.000 A 
ENDBRANCH  17  18
ENDBRANCH  15  17
ENDBRANCH   1  14
TORSDOF 4
ENDMDL
