MODEL 1
REMARK VINA RESULT:      -7.5      0.000      0.000
REMARK  Name = 
REMARK  12 active torsions:
REMARK  status: ('A' for Active; 'I' for Inactive)
REMARK    1  A    between atoms: C_1  and  O_2
REMARK    2  A    between atoms: O_2  and  C_3
REMARK    3  A    between atoms: N_5  and  C_6
REMARK    4  A    between atoms: C_9  and  C_10
REMARK    5  A    between atoms: C_13  and  C_14
REMARK    6  A    between atoms: C_19  and  C_21
REMARK    7  A    between atoms: C_21  and  N_22
REMARK    8  A    between atoms: C_21  and  C_27
REMARK    9  A    between atoms: C_23  and  O_25
REMARK   10  A    between atoms: O_25  and  C_26
REMARK   11  A    between atoms: C_27  and  C_28
REMARK   12  A    between atoms: C_27  and  C_29
REMARK                            x       y       z     vdW  Elec       q    Type
REMARK                         _______ _______ _______ _____ _____    ______ ____
ROOT
ATOM      1  C   UNL     1       1.818   7.947  19.753  0.00  0.00    +0.000 A 
ATOM      2  C   UNL     1       2.085   7.003  20.731  0.00  0.00    +0.000 A 
ATOM      3  N   UNL     1       2.517   5.806  20.182  0.00  0.00    +0.000 NA
ATOM      4  C   UNL     1       2.472   5.990  18.875  0.00  0.00    +0.000 A 
ATOM      5  N   UNL     1       2.234   7.314  18.605  0.00  0.00    +0.000 N 
ATOM      6  H   UNL     1       2.138   7.673  17.671  0.00  0.00    +0.000 HD
ENDROOT
BRANCH   4   7
ATOM      7  C   UNL     1       2.532   4.985  17.762  0.00  0.00    +0.000 C 
ATOM      8  C   UNL     1       2.108   3.587  18.239  0.00  0.00    +0.000 C 
ATOM      9  C   UNL     1       2.784   2.629  17.266  0.00  0.00    +0.000 C 
ATOM     10  C   UNL     1       4.014   3.376  16.799  0.00  0.00    +0.000 C 
ATOM     11  N   UNL     1       3.919   4.718  17.325  0.00  0.00    +0.000 N 
ATOM     12  C   UNL     1       4.905   5.671  17.181  0.00  0.00    +0.000 C 
ATOM     13  O   UNL     1       4.650   6.883  17.197  0.00  0.00    +0.000 OA
BRANCH  12  14
ATOM     14  C   UNL     1       6.401   5.233  17.025  0.00  0.00    +0.000 C 
BRANCH  14  15
ATOM     15  N   UNL     1       7.070   5.484  15.714  0.00  0.00    +0.000 N 
ATOM     16  C   UNL     1       6.965   4.806  14.531  0.00  0.00    +0.000 C 
ATOM     17  O   UNL     1       6.409   3.738  14.340  0.00  0.00    +0.000 OA
ATOM     18  H   UNL     1       7.381   6.433  15.559  0.00  0.00    +0.000 HD
BRANCH  16  19
ATOM     19  O   UNL     1       7.527   5.547  13.536  0.00  0.00    +0.000 OA
ATOM     20  C   UNL     1       7.547   4.900  12.253  0.00  0.00    +0.000 C 
ENDBRANCH  16  19
ENDBRANCH  14  15
BRANCH  14  21
ATOM     21  C   UNL     1       7.249   5.532  18.279  0.00  0.00    +0.000 C 
ATOM     22  C   UNL     1       7.845   6.950  18.238  0.00  0.00    +0.000 C 
ATOM     23  C   UNL     1       6.405   5.398  19.549  0.00  0.00    +0.000 C 
ENDBRANCH  14  21
ENDBRANCH  12  14
ENDBRANCH   4   7
BRANCH   1  27
ATOM     24  C   UNL     1      -0.117  11.792  19.727  0.00  0.00    +0.000 A 
ATOM     25  C   UNL     1       0.584  11.348  18.601  0.00  0.00    +0.000 A 
ATOM     26  C   UNL     1       1.239  10.099  18.600  0.00  0.00    +0.000 A 
ATOM     27  C   UNL     1       1.185   9.265  19.718  0.00  0.00    +0.000 A 
ATOM     28  C   UNL     1       0.493   9.735  20.849  0.00  0.00    +0.000 A 
ATOM     29  C   UNL     1      -0.148  10.977  20.856  0.00  0.00    +0.000 A 
BRANCH  24  32
ATOM     30  C   UNL     1      -0.268  14.275  19.839  0.00  0.00    +0.000 C 
ATOM     31  O   UNL     1       0.913  14.585  19.799  0.00  0.00    +0.000 OA
ATOM     32  N   UNL     1      -0.802  13.016  19.807  0.00  0.00    +0.000 N 
ATOM     33  H   UNL     1      -1.813  13.006  19.773  0.00  0.00    +0.000 HD
BRANCH  30  35
ATOM     34  C   UNL     1      -0.885  16.521  19.630  0.00  0.00    +0.000 C 
ATOM     35  O   UNL     1      -1.298  15.173  19.889  0.00  0.00    +0.000 OA
ENDBRANCH  30  35
ENDBRANCH  24  32
ENDBRANCH   1  27
TORSDOF 8
ENDMDL
MODEL 2
REMARK VINA RESULT:      -7.5      4.457      7.045
REMARK  Name = 
REMARK  12 active torsions:
REMARK  status: ('A' for Active; 'I' for Inactive)
REMARK    1  A    between atoms: C_1  and  O_2
REMARK    2  A    between atoms: O_2  and  C_3
REMARK    3  A    between atoms: N_5  and  C_6
REMARK    4  A    between atoms: C_9  and  C_10
REMARK    5  A    between atoms: C_13  and  C_14
REMARK    6  A    between atoms: C_19  and  C_21
REMARK    7  A    between atoms: C_21  and  N_22
REMARK    8  A    between atoms: C_21  and  C_27
REMARK    9  A    between atoms: C_23  and  O_25
REMARK   10  A    between atoms: O_25  and  C_26
REMARK   11  A    between atoms: C_27  and  C_28
REMARK   12  A    between atoms: C_27  and  C_29
REMARK                            x       y       z     vdW  Elec       q    Type
REMARK                         _______ _______ _______ _____ _____    ______ ____
ROOT
ATOM      1  C   UNL     1       8.227   7.298  18.472  0.00  0.00    +0.000 A 
ATOM      2  C   UNL     1       8.245   6.340  19.471  0.00  0.00    +0.000 A 
ATOM      3  N   UNL     1       7.787   5.114  19.013  0.00  0.00    +0.000 NA
ATOM      4  C   UNL     1       7.442   5.323  17.755  0.00  0.00    +0.000 A 
ATOM      5  N   UNL     1       7.867   6.568  17.364  0.00  0.00    +0.000 N 
ATOM      6  H   UNL     1       7.690   6.942  16.448  0.00  0.00    +0.000 HD
ENDROOT
BRANCH   4   7
ATOM      7  C   UNL     1       6.615   4.475  16.834  0.00  0.00    +0.000 C 
ATOM      8  C   UNL     1       6.825   4.869  15.363  0.00  0.00    +0.000 C 
ATOM      9  C   UNL     1       5.552   4.415  14.660  0.00  0.00    +0.000 C 
ATOM     10  C   UNL     1       4.491   4.464  15.738  0.00  0.00    +0.000 C 
ATOM     11  N   UNL     1       5.168   4.736  16.985  0.00  0.00    +0.000 N 
ATOM     12  C   UNL     1       4.517   4.939  18.184  0.00  0.00    +0.000 C 
ATOM     13  O   UNL     1       5.061   4.702  19.271  0.00  0.00    +0.000 OA
BRANCH  12  14
ATOM     14  C   UNL     1       3.061   5.517  18.196  0.00  0.00    +0.000 C 
BRANCH  14  15
ATOM     15  N   UNL     1       1.958   4.625  18.663  0.00  0.00    +0.000 N 
ATOM     16  C   UNL     1       1.604   3.373  18.241  0.00  0.00    +0.000 C 
ATOM     17  O   UNL     1       2.028   2.775  17.267  0.00  0.00    +0.000 OA
ATOM     18  H   UNL     1       1.631   4.794  19.604  0.00  0.00    +0.000 HD
BRANCH  16  19
ATOM     19  O   UNL     1       0.728   2.830  19.131  0.00  0.00    +0.000 OA
ATOM     20  C   UNL     1       1.042   3.092  20.509  0.00  0.00    +0.000 C 
ENDBRANCH  16  19
ENDBRANCH  14  15
BRANCH  14  21
ATOM     21  C   UNL     1       2.998   6.977  18.692  0.00  0.00    +0.000 C 
ATOM     22  C   UNL     1       2.402   7.914  17.627  0.00  0.00    +0.000 C 
ATOM     23  C   UNL     1       2.149   7.083  19.961  0.00  0.00    +0.000 C 
ENDBRANCH  14  21
ENDBRANCH  12  14
ENDBRANCH   4   7
BRANCH   1  27
ATOM     24  C   UNL     1       8.787  11.565  18.401  0.00  0.00    +0.000 A 
ATOM     25  C   UNL     1       7.945  10.949  17.470  0.00  0.00    +0.000 A 
ATOM     26  C   UNL     1       7.764   9.551  17.468  0.00  0.00    +0.000 A 
ATOM     27  C   UNL     1       8.409   8.748  18.411  0.00  0.00    +0.000 A 
ATOM     28  C   UNL     1       9.268   9.381  19.327  0.00  0.00    +0.000 A 
ATOM     29  C   UNL     1       9.456  10.766  19.325  0.00  0.00    +0.000 A 
BRANCH  24  32
ATOM     30  C   UNL     1       9.941  13.686  17.788  0.00  0.00    +0.000 C 
ATOM     31  O   UNL     1      10.752  13.284  16.968  0.00  0.00    +0.000 OA
ATOM     32  N   UNL     1       9.015  12.950  18.476  0.00  0.00    +0.000 N 
ATOM     33  H   UNL     1       8.395  13.510  19.047  0.00  0.00    +0.000 HD
BRANCH  30  35
ATOM     34  C   UNL     1       8.474  15.504  17.905  0.00  0.00    +0.000 C 
ATOM     35  O   UNL     1       9.793  14.998  18.146  0.00  0.00    +0.000 OA
ENDBRANCH  30  35
ENDBRANCH  24  32
ENDBRANCH   1  27
TORSDOF 8
ENDMDL
MODEL 3
REMARK VINA RESULT:      -7.4      0.825      1.017
REMARK  Name = 
REMARK  12 active torsions:
REMARK  status: ('A' for Active; 'I' for Inactive)
REMARK    1  A    between atoms: C_1  and  O_2
REMARK    2  A    between atoms: O_2  and  C_3
REMARK    3  A    between atoms: N_5  and  C_6
REMARK    4  A    between atoms: C_9  and  C_10
REMARK    5  A    between atoms: C_13  and  C_14
REMARK    6  A    between atoms: C_19  and  C_21
REMARK    7  A    between atoms: C_21  and  N_22
REMARK    8  A    between atoms: C_21  and  C_27
REMARK    9  A    between atoms: C_23  and  O_25
REMARK   10  A    between atoms: O_25  and  C_26
REMARK   11  A    between atoms: C_27  and  C_28
REMARK   12  A    between atoms: C_27  and  C_29
REMARK                            x       y       z     vdW  Elec       q    Type
REMARK                         _______ _______ _______ _____ _____    ______ ____
ROOT
ATOM      1  C   UNL     1       1.508   8.228  19.925  0.00  0.00    +0.000 A 
ATOM      2  C   UNL     1       1.752   7.260  20.885  0.00  0.00    +0.000 A 
ATOM      3  N   UNL     1       2.235   6.090  20.321  0.00  0.00    +0.000 NA
ATOM      4  C   UNL     1       2.244   6.312  19.019  0.00  0.00    +0.000 A 
ATOM      5  N   UNL     1       1.988   7.639  18.779  0.00  0.00    +0.000 N 
ATOM      6  H   UNL     1       1.926   8.023  17.852  0.00  0.00    +0.000 HD
ENDROOT
BRANCH   4   7
ATOM      7  C   UNL     1       2.375   5.343  17.881  0.00  0.00    +0.000 C 
ATOM      8  C   UNL     1       2.007   3.914  18.310  0.00  0.00    +0.000 C 
ATOM      9  C   UNL     1       2.748   3.016  17.327  0.00  0.00    +0.000 C 
ATOM     10  C   UNL     1       3.952   3.833  16.910  0.00  0.00    +0.000 C 
ATOM     11  N   UNL     1       3.782   5.153  17.469  0.00  0.00    +0.000 N 
ATOM     12  C   UNL     1       4.725   6.155  17.374  0.00  0.00    +0.000 C 
ATOM     13  O   UNL     1       4.412   7.353  17.417  0.00  0.00    +0.000 OA
BRANCH  12  14
ATOM     14  C   UNL     1       6.243   5.791  17.241  0.00  0.00    +0.000 C 
BRANCH  14  15
ATOM     15  N   UNL     1       6.855   5.834  15.879  0.00  0.00    +0.000 N 
ATOM     16  C   UNL     1       6.935   4.860  14.922  0.00  0.00    +0.000 C 
ATOM     17  O   UNL     1       6.653   3.680  15.044  0.00  0.00    +0.000 OA
ATOM     18  H   UNL     1       6.933   6.753  15.466  0.00  0.00    +0.000 HD
BRANCH  16  19
ATOM     19  O   UNL     1       7.321   5.420  13.742  0.00  0.00    +0.000 OA
ATOM     20  C   UNL     1       7.218   4.544  12.607  0.00  0.00    +0.000 C 
ENDBRANCH  16  19
ENDBRANCH  14  15
BRANCH  14  21
ATOM     21  C   UNL     1       7.103   6.374  18.382  0.00  0.00    +0.000 C 
ATOM     22  C   UNL     1       8.071   5.325  18.957  0.00  0.00    +0.000 C 
ATOM     23  C   UNL     1       7.921   7.570  17.888  0.00  0.00    +0.000 C 
ENDBRANCH  14  21
ENDBRANCH  12  14
ENDBRANCH   4   7
BRANCH   1  27
ATOM     24  C   UNL     1      -0.512  12.028  19.921  0.00  0.00    +0.000 A 
ATOM     25  C   UNL     1       0.290  11.655  18.838  0.00  0.00    +0.000 A 
ATOM     26  C   UNL     1       0.973  10.422  18.831  0.00  0.00    +0.000 A 
ATOM     27  C   UNL     1       0.848   9.532  19.900  0.00  0.00    +0.000 A 
ATOM     28  C   UNL     1       0.054   9.931  20.990  0.00  0.00    +0.000 A 
ATOM     29  C   UNL     1      -0.616  11.158  21.004  0.00  0.00    +0.000 A 
BRANCH  24  32
ATOM     30  C   UNL     1      -0.864  14.387  20.641  0.00  0.00    +0.000 C 
ATOM     31  O   UNL     1       0.165  14.599  21.264  0.00  0.00    +0.000 OA
ATOM     32  N   UNL     1      -1.231  13.233  20.003  0.00  0.00    +0.000 N 
ATOM     33  H   UNL     1      -2.095  13.314  19.485  0.00  0.00    +0.000 HD
BRANCH  30  35
ATOM     34  C   UNL     1      -2.964  15.158  21.323  0.00  0.00    +0.000 C 
ATOM     35  O   UNL     1      -1.847  15.315  20.439  0.00  0.00    +0.000 OA
ENDBRANCH  30  35
ENDBRANCH  24  32
ENDBRANCH   1  27
TORSDOF 8
ENDMDL
MODEL 4
REMARK VINA RESULT:      -7.3      0.573      1.006
REMARK  Name = 
REMARK  12 active torsions:
REMARK  status: ('A' for Active; 'I' for Inactive)
REMARK    1  A    between atoms: C_1  and  O_2
REMARK    2  A    between atoms: O_2  and  C_3
REMARK    3  A    between atoms: N_5  and  C_6
REMARK    4  A    between atoms: C_9  and  C_10
REMARK    5  A    between atoms: C_13  and  C_14
REMARK    6  A    between atoms: C_19  and  C_21
REMARK    7  A    between atoms: C_21  and  N_22
REMARK    8  A    between atoms: C_21  and  C_27
REMARK    9  A    between atoms: C_23  and  O_25
REMARK   10  A    between atoms: O_25  and  C_26
REMARK   11  A    between atoms: C_27  and  C_28
REMARK   12  A    between atoms: C_27  and  C_29
REMARK                            x       y       z     vdW  Elec       q    Type
REMARK                         _______ _______ _______ _____ _____    ______ ____
ROOT
ATOM      1  C   UNL     1       1.815   7.902  20.020  0.00  0.00    +0.000 A 
ATOM      2  C   UNL     1       2.209   6.904  20.895  0.00  0.00    +0.000 A 
ATOM      3  N   UNL     1       2.676   5.787  20.220  0.00  0.00    +0.000 NA
ATOM      4  C   UNL     1       2.526   6.070  18.939  0.00  0.00    +0.000 A 
ATOM      5  N   UNL     1       2.187   7.393  18.798  0.00  0.00    +0.000 N 
ATOM      6  H   UNL     1       2.003   7.817  17.905  0.00  0.00    +0.000 HD
ENDROOT
BRANCH   4   7
ATOM      7  C   UNL     1       2.569   5.163  17.744  0.00  0.00    +0.000 C 
ATOM      8  C   UNL     1       2.091   3.745  18.093  0.00  0.00    +0.000 C 
ATOM      9  C   UNL     1       2.750   2.851  17.049  0.00  0.00    +0.000 C 
ATOM     10  C   UNL     1       4.012   3.593  16.664  0.00  0.00    +0.000 C 
ATOM     11  N   UNL     1       3.953   4.887  17.303  0.00  0.00    +0.000 N 
ATOM     12  C   UNL     1       4.973   5.815  17.254  0.00  0.00    +0.000 C 
ATOM     13  O   UNL     1       4.758   7.029  17.372  0.00  0.00    +0.000 OA
BRANCH  12  14
ATOM     14  C   UNL     1       6.456   5.339  17.080  0.00  0.00    +0.000 C 
BRANCH  14  15
ATOM     15  N   UNL     1       7.113   5.570  15.759  0.00  0.00    +0.000 N 
ATOM     16  C   UNL     1       7.013   4.861  14.593  0.00  0.00    +0.000 C 
ATOM     17  O   UNL     1       6.476   3.779  14.432  0.00  0.00    +0.000 OA
ATOM     18  H   UNL     1       7.405   6.521  15.579  0.00  0.00    +0.000 HD
BRANCH  16  19
ATOM     19  O   UNL     1       7.557   5.588  13.578  0.00  0.00    +0.000 OA
ATOM     20  C   UNL     1       7.528   4.934  12.298  0.00  0.00    +0.000 C 
ENDBRANCH  16  19
ENDBRANCH  14  15
BRANCH  14  21
ATOM     21  C   UNL     1       7.327   5.622  18.321  0.00  0.00    +0.000 C 
ATOM     22  C   UNL     1       7.897   7.050  18.303  0.00  0.00    +0.000 C 
ATOM     23  C   UNL     1       6.516   5.439  19.606  0.00  0.00    +0.000 C 
ENDBRANCH  14  21
ENDBRANCH  12  14
ENDBRANCH   4   7
BRANCH   1  27
ATOM     24  C   UNL     1      -0.260  11.666  20.260  0.00  0.00    +0.000 A 
ATOM     25  C   UNL     1       0.237  11.059  21.418  0.00  0.00    +0.000 A 
ATOM     26  C   UNL     1       0.903   9.818  21.360  0.00  0.00    +0.000 A 
ATOM     27  C   UNL     1       1.100   9.173  20.137  0.00  0.00    +0.000 A 
ATOM     28  C   UNL     1       0.577   9.786  18.985  0.00  0.00    +0.000 A 
ATOM     29  C   UNL     1      -0.093  11.012  19.042  0.00  0.00    +0.000 A 
BRANCH  24  32
ATOM     30  C   UNL     1      -0.372  14.153  20.185  0.00  0.00    +0.000 C 
ATOM     31  O   UNL     1       0.814  14.441  20.156  0.00  0.00    +0.000 OA
ATOM     32  N   UNL     1      -0.927  12.902  20.231  0.00  0.00    +0.000 N 
ATOM     33  H   UNL     1      -1.936  12.904  20.169  0.00  0.00    +0.000 HD
BRANCH  30  35
ATOM     34  C   UNL     1      -2.602  14.594  20.737  0.00  0.00    +0.000 C 
ATOM     35  O   UNL     1      -1.388  15.067  20.139  0.00  0.00    +0.000 OA
ENDBRANCH  30  35
ENDBRANCH  24  32
ENDBRANCH   1  27
TORSDOF 8
ENDMDL
MODEL 5
REMARK VINA RESULT:      -7.2      1.069      1.599
REMARK  Name = 
REMARK  12 active torsions:
REMARK  status: ('A' for Active; 'I' for Inactive)
REMARK    1  A    between atoms: C_1  and  O_2
REMARK    2  A    between atoms: O_2  and  C_3
REMARK    3  A    between atoms: N_5  and  C_6
REMARK    4  A    between atoms: C_9  and  C_10
REMARK    5  A    between atoms: C_13  and  C_14
REMARK    6  A    between atoms: C_19  and  C_21
REMARK    7  A    between atoms: C_21  and  N_22
REMARK    8  A    between atoms: C_21  and  C_27
REMARK    9  A    between atoms: C_23  and  O_25
REMARK   10  A    between atoms: O_25  and  C_26
REMARK   11  A    between atoms: C_27  and  C_28
REMARK   12  A    between atoms: C_27  and  C_29
REMARK                            x       y       z     vdW  Elec       q    Type
REMARK                         _______ _______ _______ _____ _____    ______ ____
ROOT
ATOM      1  C   UNL     1       1.497   8.004  20.395  0.00  0.00    +0.000 A 
ATOM      2  C   UNL     1       1.794   6.943  21.234  0.00  0.00    +0.000 A 
ATOM      3  N   UNL     1       2.264   5.847  20.527  0.00  0.00    +0.000 NA
ATOM      4  C   UNL     1       2.212   6.207  19.258  0.00  0.00    +0.000 A 
ATOM      5  N   UNL     1       1.932   7.548  19.172  0.00  0.00    +0.000 N 
ATOM      6  H   UNL     1       1.823   8.028  18.296  0.00  0.00    +0.000 HD
ENDROOT
BRANCH   4   7
ATOM      7  C   UNL     1       2.302   5.367  18.017  0.00  0.00    +0.000 C 
ATOM      8  C   UNL     1       1.944   3.900  18.301  0.00  0.00    +0.000 C 
ATOM      9  C   UNL     1       2.650   3.114  17.202  0.00  0.00    +0.000 C 
ATOM     10  C   UNL     1       3.842   3.972  16.836  0.00  0.00    +0.000 C 
ATOM     11  N   UNL     1       3.694   5.224  17.541  0.00  0.00    +0.000 N 
ATOM     12  C   UNL     1       4.636   6.231  17.523  0.00  0.00    +0.000 C 
ATOM     13  O   UNL     1       4.329   7.417  17.706  0.00  0.00    +0.000 OA
BRANCH  12  14
ATOM     14  C   UNL     1       6.148   5.885  17.301  0.00  0.00    +0.000 C 
BRANCH  14  15
ATOM     15  N   UNL     1       6.665   5.877  15.899  0.00  0.00    +0.000 N 
ATOM     16  C   UNL     1       6.859   4.829  15.042  0.00  0.00    +0.000 C 
ATOM     17  O   UNL     1       6.795   3.640  15.304  0.00  0.00    +0.000 OA
ATOM     18  H   UNL     1       6.557   6.743  15.391  0.00  0.00    +0.000 HD
BRANCH  16  19
ATOM     19  O   UNL     1       7.073   5.310  13.786  0.00  0.00    +0.000 OA
ATOM     20  C   UNL     1       6.952   4.326  12.745  0.00  0.00    +0.000 C 
ENDBRANCH  16  19
ENDBRANCH  14  15
BRANCH  14  21
ATOM     21  C   UNL     1       7.074   6.531  18.353  0.00  0.00    +0.000 C 
ATOM     22  C   UNL     1       8.046   5.505  18.961  0.00  0.00    +0.000 C 
ATOM     23  C   UNL     1       7.892   7.666  17.733  0.00  0.00    +0.000 C 
ENDBRANCH  14  21
ENDBRANCH  12  14
ENDBRANCH   4   7
BRANCH   1  27
ATOM     24  C   UNL     1      -0.428  11.839  20.733  0.00  0.00    +0.000 A 
ATOM     25  C   UNL     1      -0.315  11.006  21.850  0.00  0.00    +0.000 A 
ATOM     26  C   UNL     1       0.296   9.739  21.753  0.00  0.00    +0.000 A 
ATOM     27  C   UNL     1       0.823   9.293  20.539  0.00  0.00    +0.000 A 
ATOM     28  C   UNL     1       0.684  10.135  19.421  0.00  0.00    +0.000 A 
ATOM     29  C   UNL     1       0.069  11.387  19.513  0.00  0.00    +0.000 A 
BRANCH  24  32
ATOM     30  C   UNL     1      -2.322  13.441  20.511  0.00  0.00    +0.000 C 
ATOM     31  O   UNL     1      -3.242  12.682  20.246  0.00  0.00    +0.000 OA
ATOM     32  N   UNL     1      -1.014  13.116  20.747  0.00  0.00    +0.000 N 
ATOM     33  H   UNL     1      -0.445  13.904  21.025  0.00  0.00    +0.000 HD
BRANCH  30  35
ATOM     34  C   UNL     1      -1.298  15.526  20.244  0.00  0.00    +0.000 C 
ATOM     35  O   UNL     1      -2.458  14.793  20.658  0.00  0.00    +0.000 OA
ENDBRANCH  30  35
ENDBRANCH  24  32
ENDBRANCH   1  27
TORSDOF 8
ENDMDL
MODEL 6
REMARK VINA RESULT:      -7.2      1.104      1.503
REMARK  Name = 
REMARK  12 active torsions:
REMARK  status: ('A' for Active; 'I' for Inactive)
REMARK    1  A    between atoms: C_1  and  O_2
REMARK    2  A    between atoms: O_2  and  C_3
REMARK    3  A    between atoms: N_5  and  C_6
REMARK    4  A    between atoms: C_9  and  C_10
REMARK    5  A    between atoms: C_13  and  C_14
REMARK    6  A    between atoms: C_19  and  C_21
REMARK    7  A    between atoms: C_21  and  N_22
REMARK    8  A    between atoms: C_21  and  C_27
REMARK    9  A    between atoms: C_23  and  O_25
REMARK   10  A    between atoms: O_25  and  C_26
REMARK   11  A    between atoms: C_27  and  C_28
REMARK   12  A    between atoms: C_27  and  C_29
REMARK                            x       y       z     vdW  Elec       q    Type
REMARK                         _______ _______ _______ _____ _____    ______ ____
ROOT
ATOM      1  C   UNL     1       1.434   8.842  19.616  0.00  0.00    +0.000 A 
ATOM      2  C   UNL     1       1.607   8.030  20.724  0.00  0.00    +0.000 A 
ATOM      3  N   UNL     1       2.013   6.755  20.365  0.00  0.00    +0.000 NA
ATOM      4  C   UNL     1       2.044   6.760  19.045  0.00  0.00    +0.000 A 
ATOM      5  N   UNL     1       1.879   8.044  18.588  0.00  0.00    +0.000 N 
ATOM      6  H   UNL     1       1.848   8.276  17.611  0.00  0.00    +0.000 HD
ENDROOT
BRANCH   4   7
ATOM      7  C   UNL     1       2.115   5.612  18.081  0.00  0.00    +0.000 C 
ATOM      8  C   UNL     1       1.551   4.322  18.697  0.00  0.00    +0.000 C 
ATOM      9  C   UNL     1       2.228   3.199  17.919  0.00  0.00    +0.000 C 
ATOM     10  C   UNL     1       3.544   3.796  17.471  0.00  0.00    +0.000 C 
ATOM     11  N   UNL     1       3.508   5.200  17.808  0.00  0.00    +0.000 N 
ATOM     12  C   UNL     1       4.572   6.060  17.628  0.00  0.00    +0.000 C 
ATOM     13  O   UNL     1       4.408   7.277  17.465  0.00  0.00    +0.000 OA
BRANCH  12  14
ATOM     14  C   UNL     1       6.038   5.510  17.664  0.00  0.00    +0.000 C 
BRANCH  14  15
ATOM     15  N   UNL     1       6.583   4.891  16.418  0.00  0.00    +0.000 N 
ATOM     16  C   UNL     1       6.315   5.176  15.108  0.00  0.00    +0.000 C 
ATOM     17  O   UNL     1       5.438   5.905  14.675  0.00  0.00    +0.000 OA
ATOM     18  H   UNL     1       7.484   4.445  16.513  0.00  0.00    +0.000 HD
BRANCH  16  19
ATOM     19  O   UNL     1       7.241   4.566  14.317  0.00  0.00    +0.000 OA
ATOM     20  C   UNL     1       6.701   3.962  13.129  0.00  0.00    +0.000 C 
ENDBRANCH  16  19
ENDBRANCH  14  15
BRANCH  14  21
ATOM     21  C   UNL     1       7.008   6.430  18.435  0.00  0.00    +0.000 C 
ATOM     22  C   UNL     1       8.061   5.623  19.213  0.00  0.00    +0.000 C 
ATOM     23  C   UNL     1       7.733   7.378  17.477  0.00  0.00    +0.000 C 
ENDBRANCH  14  21
ENDBRANCH  12  14
ENDBRANCH   4   7
BRANCH   1  27
ATOM     24  C   UNL     1      -0.141  12.781  18.886  0.00  0.00    +0.000 A 
ATOM     25  C   UNL     1      -0.915  11.824  19.551  0.00  0.00    +0.000 A 
ATOM     26  C   UNL     1      -0.421  10.524  19.782  0.00  0.00    +0.000 A 
ATOM     27  C   UNL     1       0.864  10.166  19.369  0.00  0.00    +0.000 A 
ATOM     28  C   UNL     1       1.621  11.134  18.684  0.00  0.00    +0.000 A 
ATOM     29  C   UNL     1       1.130  12.420  18.445  0.00  0.00    +0.000 A 
BRANCH  24  32
ATOM     30  C   UNL     1      -0.183  15.240  19.281  0.00  0.00    +0.000 C 
ATOM     31  O   UNL     1       0.585  15.340  20.226  0.00  0.00    +0.000 OA
ATOM     32  N   UNL     1      -0.554  14.098  18.624  0.00  0.00    +0.000 N 
ATOM     33  H   UNL     1      -1.143  14.268  17.820  0.00  0.00    +0.000 HD
BRANCH  30  35
ATOM     34  C   UNL     1      -1.354  17.238  19.606  0.00  0.00    +0.000 C 
ATOM     35  O   UNL     1      -0.800  16.299  18.676  0.00  0.00    +0.000 OA
ENDBRANCH  30  35
ENDBRANCH  24  32
ENDBRANCH   1  27
TORSDOF 8
ENDMDL
MODEL 7
REMARK VINA RESULT:      -7.2      1.295      1.343
REMARK  Name = 
REMARK  12 active torsions:
REMARK  status: ('A' for Active; 'I' for Inactive)
REMARK    1  A    between atoms: C_1  and  O_2
REMARK    2  A    between atoms: O_2  and  C_3
REMARK    3  A    between atoms: N_5  and  C_6
REMARK    4  A    between atoms: C_9  and  C_10
REMARK    5  A    between atoms: C_13  and  C_14
REMARK    6  A    between atoms: C_19  and  C_21
REMARK    7  A    between atoms: C_21  and  N_22
REMARK    8  A    between atoms: C_21  and  C_27
REMARK    9  A    between atoms: C_23  and  O_25
REMARK   10  A    between atoms: O_25  and  C_26
REMARK   11  A    between atoms: C_27  and  C_28
REMARK   12  A    between atoms: C_27  and  C_29
REMARK                            x       y       z     vdW  Elec       q    Type
REMARK                         _______ _______ _______ _____ _____    ______ ____
ROOT
ATOM      1  C   UNL     1       1.706   8.119  19.546  0.00  0.00    +0.000 A 
ATOM      2  C   UNL     1       2.336   7.342  20.504  0.00  0.00    +0.000 A 
ATOM      3  N   UNL     1       2.891   6.199  19.950  0.00  0.00    +0.000 NA
ATOM      4  C   UNL     1       2.566   6.242  18.670  0.00  0.00    +0.000 A 
ATOM      5  N   UNL     1       2.018   7.466  18.377  0.00  0.00    +0.000 N 
ATOM      6  H   UNL     1       1.678   7.707  17.463  0.00  0.00    +0.000 HD
ENDROOT
BRANCH   4   7
ATOM      7  C   UNL     1       2.617   5.162  17.630  0.00  0.00    +0.000 C 
ATOM      8  C   UNL     1       2.150   3.811  18.194  0.00  0.00    +0.000 C 
ATOM      9  C   UNL     1       2.817   2.771  17.300  0.00  0.00    +0.000 C 
ATOM     10  C   UNL     1       4.073   3.455  16.806  0.00  0.00    +0.000 C 
ATOM     11  N   UNL     1       4.004   4.831  17.237  0.00  0.00    +0.000 N 
ATOM     12  C   UNL     1       5.016   5.748  17.045  0.00  0.00    +0.000 C 
ATOM     13  O   UNL     1       4.792   6.964  16.975  0.00  0.00    +0.000 OA
BRANCH  12  14
ATOM     14  C   UNL     1       6.503   5.264  16.947  0.00  0.00    +0.000 C 
BRANCH  14  15
ATOM     15  N   UNL     1       7.195   5.396  15.630  0.00  0.00    +0.000 N 
ATOM     16  C   UNL     1       6.866   4.874  14.410  0.00  0.00    +0.000 C 
ATOM     17  O   UNL     1       6.005   4.046  14.169  0.00  0.00    +0.000 OA
ATOM     18  H   UNL     1       7.781   6.213  15.527  0.00  0.00    +0.000 HD
BRANCH  16  19
ATOM     19  O   UNL     1       7.613   5.480  13.446  0.00  0.00    +0.000 OA
ATOM     20  C   UNL     1       7.570   4.831  12.164  0.00  0.00    +0.000 C 
ENDBRANCH  16  19
ENDBRANCH  14  15
BRANCH  14  21
ATOM     21  C   UNL     1       7.341   5.639  18.187  0.00  0.00    +0.000 C 
ATOM     22  C   UNL     1       7.840   7.093  18.117  0.00  0.00    +0.000 C 
ATOM     23  C   UNL     1       6.522   5.469  19.468  0.00  0.00    +0.000 C 
ENDBRANCH  14  21
ENDBRANCH  12  14
ENDBRANCH   4   7
BRANCH   1  27
ATOM     24  C   UNL     1      -0.933  11.517  19.689  0.00  0.00    +0.000 A 
ATOM     25  C   UNL     1      -0.426  11.068  18.465  0.00  0.00    +0.000 A 
ATOM     26  C   UNL     1       0.453   9.969  18.402  0.00  0.00    +0.000 A 
ATOM     27  C   UNL     1       0.825   9.286  19.563  0.00  0.00    +0.000 A 
ATOM     28  C   UNL     1       0.322   9.762  20.787  0.00  0.00    +0.000 A 
ATOM     29  C   UNL     1      -0.542  10.859  20.853  0.00  0.00    +0.000 A 
BRANCH  24  32
ATOM     30  C   UNL     1      -2.475  12.994  20.971  0.00  0.00    +0.000 C 
ATOM     31  O   UNL     1      -2.418  12.487  22.081  0.00  0.00    +0.000 OA
ATOM     32  N   UNL     1      -1.818  12.597  19.838  0.00  0.00    +0.000 N 
ATOM     33  H   UNL     1      -1.959  13.217  19.051  0.00  0.00    +0.000 HD
BRANCH  30  35
ATOM     34  C   UNL     1      -3.995  14.581  21.771  0.00  0.00    +0.000 C 
ATOM     35  O   UNL     1      -3.208  14.108  20.671  0.00  0.00    +0.000 OA
ENDBRANCH  30  35
ENDBRANCH  24  32
ENDBRANCH   1  27
TORSDOF 8
ENDMDL
MODEL 8
REMARK VINA RESULT:      -7.2      4.664      7.307
REMARK  Name = 
REMARK  12 active torsions:
REMARK  status: ('A' for Active; 'I' for Inactive)
REMARK    1  A    between atoms: C_1  and  O_2
REMARK    2  A    between atoms: O_2  and  C_3
REMARK    3  A    between atoms: N_5  and  C_6
REMARK    4  A    between atoms: C_9  and  C_10
REMARK    5  A    between atoms: C_13  and  C_14
REMARK    6  A    between atoms: C_19  and  C_21
REMARK    7  A    between atoms: C_21  and  N_22
REMARK    8  A    between atoms: C_21  and  C_27
REMARK    9  A    between atoms: C_23  and  O_25
REMARK   10  A    between atoms: O_25  and  C_26
REMARK   11  A    between atoms: C_27  and  C_28
REMARK   12  A    between atoms: C_27  and  C_29
REMARK                            x       y       z     vdW  Elec       q    Type
REMARK                         _______ _______ _______ _____ _____    ______ ____
ROOT
ATOM      1  C   UNL     1       8.297   7.312  18.524  0.00  0.00    +0.000 A 
ATOM      2  C   UNL     1       8.347   6.335  19.504  0.00  0.00    +0.000 A 
ATOM      3  N   UNL     1       7.876   5.118  19.037  0.00  0.00    +0.000 NA
ATOM      4  C   UNL     1       7.492   5.350  17.794  0.00  0.00    +0.000 A 
ATOM      5  N   UNL     1       7.904   6.603  17.414  0.00  0.00    +0.000 N 
ATOM      6  H   UNL     1       7.697   6.994  16.511  0.00  0.00    +0.000 HD
ENDROOT
BRANCH   4   7
ATOM      7  C   UNL     1       6.638   4.519  16.883  0.00  0.00    +0.000 C 
ATOM      8  C   UNL     1       6.623   5.083  15.453  0.00  0.00    +0.000 C 
ATOM      9  C   UNL     1       5.318   4.571  14.853  0.00  0.00    +0.000 C 
ATOM     10  C   UNL     1       4.403   4.395  16.046  0.00  0.00    +0.000 C 
ATOM     11  N   UNL     1       5.204   4.607  17.229  0.00  0.00    +0.000 N 
ATOM     12  C   UNL     1       4.694   4.613  18.510  0.00  0.00    +0.000 C 
ATOM     13  O   UNL     1       5.390   4.325  19.493  0.00  0.00    +0.000 OA
BRANCH  12  14
ATOM     14  C   UNL     1       3.203   5.029  18.757  0.00  0.00    +0.000 C 
BRANCH  14  15
ATOM     15  N   UNL     1       2.325   4.075  19.499  0.00  0.00    +0.000 N 
ATOM     16  C   UNL     1       1.384   3.201  19.027  0.00  0.00    +0.000 C 
ATOM     17  O   UNL     1       0.947   3.130  17.892  0.00  0.00    +0.000 OA
ATOM     18  H   UNL     1       2.667   3.783  20.404  0.00  0.00    +0.000 HD
BRANCH  16  19
ATOM     19  O   UNL     1       1.036   2.338  20.021  0.00  0.00    +0.000 OA
ATOM     20  C   UNL     1       1.366   2.791  21.345  0.00  0.00    +0.000 C 
ENDBRANCH  16  19
ENDBRANCH  14  15
BRANCH  14  21
ATOM     21  C   UNL     1       3.049   6.517  19.137  0.00  0.00    +0.000 C 
ATOM     22  C   UNL     1       2.625   7.371  17.930  0.00  0.00    +0.000 C 
ATOM     23  C   UNL     1       2.005   6.688  20.243  0.00  0.00    +0.000 C 
ENDBRANCH  14  21
ENDBRANCH  12  14
ENDBRANCH   4   7
BRANCH   1  27
ATOM     24  C   UNL     1       8.802  11.581  18.302  0.00  0.00    +0.000 A 
ATOM     25  C   UNL     1       9.427  10.849  19.316  0.00  0.00    +0.000 A 
ATOM     26  C   UNL     1       9.257   9.453  19.415  0.00  0.00    +0.000 A 
ATOM     27  C   UNL     1       8.475   8.763  18.486  0.00  0.00    +0.000 A 
ATOM     28  C   UNL     1       7.838   9.517  17.483  0.00  0.00    +0.000 A 
ATOM     29  C   UNL     1       7.996  10.902  17.390  0.00  0.00    +0.000 A 
BRANCH  24  32
ATOM     30  C   UNL     1      10.026  13.668  17.712  0.00  0.00    +0.000 C 
ATOM     31  O   UNL     1      11.120  13.221  17.403  0.00  0.00    +0.000 OA
ATOM     32  N   UNL     1       8.925  12.970  18.129  0.00  0.00    +0.000 N 
ATOM     33  H   UNL     1       8.104  13.546  18.254  0.00  0.00    +0.000 HD
BRANCH  30  35
ATOM     34  C   UNL     1      10.736  15.816  17.119  0.00  0.00    +0.000 C 
ATOM     35  O   UNL     1       9.693  14.994  17.657  0.00  0.00    +0.000 OA
ENDBRANCH  30  35
ENDBRANCH  24  32
ENDBRANCH   1  27
TORSDOF 8
ENDMDL
MODEL 9
REMARK VINA RESULT:      -7.2      4.221      6.888
REMARK  Name = 
REMARK  12 active torsions:
REMARK  status: ('A' for Active; 'I' for Inactive)
REMARK    1  A    between atoms: C_1  and  O_2
REMARK    2  A    between atoms: O_2  and  C_3
REMARK    3  A    between atoms: N_5  and  C_6
REMARK    4  A    between atoms: C_9  and  C_10
REMARK    5  A    between atoms: C_13  and  C_14
REMARK    6  A    between atoms: C_19  and  C_21
REMARK    7  A    between atoms: C_21  and  N_22
REMARK    8  A    between atoms: C_21  and  C_27
REMARK    9  A    between atoms: C_23  and  O_25
REMARK   10  A    between atoms: O_25  and  C_26
REMARK   11  A    between atoms: C_27  and  C_28
REMARK   12  A    between atoms: C_27  and  C_29
REMARK                            x       y       z     vdW  Elec       q    Type
REMARK                         _______ _______ _______ _____ _____    ______ ____
ROOT
ATOM      1  C   UNL     1       8.233   7.303  18.497  0.00  0.00    +0.000 A 
ATOM      2  C   UNL     1       8.253   6.351  19.503  0.00  0.00    +0.000 A 
ATOM      3  N   UNL     1       7.786   5.125  19.056  0.00  0.00    +0.000 NA
ATOM      4  C   UNL     1       7.433   5.326  17.800  0.00  0.00    +0.000 A 
ATOM      5  N   UNL     1       7.862   6.566  17.396  0.00  0.00    +0.000 N 
ATOM      6  H   UNL     1       7.679   6.935  16.479  0.00  0.00    +0.000 HD
ENDROOT
BRANCH   4   7
ATOM      7  C   UNL     1       6.595   4.476  16.890  0.00  0.00    +0.000 C 
ATOM      8  C   UNL     1       6.809   4.849  15.414  0.00  0.00    +0.000 C 
ATOM      9  C   UNL     1       5.529   4.400  14.718  0.00  0.00    +0.000 C 
ATOM     10  C   UNL     1       4.470   4.476  15.796  0.00  0.00    +0.000 C 
ATOM     11  N   UNL     1       5.152   4.756  17.039  0.00  0.00    +0.000 N 
ATOM     12  C   UNL     1       4.504   4.982  18.236  0.00  0.00    +0.000 C 
ATOM     13  O   UNL     1       5.046   4.753  19.325  0.00  0.00    +0.000 OA
BRANCH  12  14
ATOM     14  C   UNL     1       3.055   5.578  18.241  0.00  0.00    +0.000 C 
BRANCH  14  15
ATOM     15  N   UNL     1       1.946   4.713  18.743  0.00  0.00    +0.000 N 
ATOM     16  C   UNL     1       1.576   3.452  18.363  0.00  0.00    +0.000 C 
ATOM     17  O   UNL     1       1.987   2.819  17.406  0.00  0.00    +0.000 OA
ATOM     18  H   UNL     1       1.626   4.916  19.680  0.00  0.00    +0.000 HD
BRANCH  16  19
ATOM     19  O   UNL     1       0.699   2.948  19.275  0.00  0.00    +0.000 OA
ATOM     20  C   UNL     1       1.199   2.910  20.622  0.00  0.00    +0.000 C 
ENDBRANCH  16  19
ENDBRANCH  14  15
BRANCH  14  21
ATOM     21  C   UNL     1       3.013   7.053  18.694  0.00  0.00    +0.000 C 
ATOM     22  C   UNL     1       2.468   7.972  17.587  0.00  0.00    +0.000 C 
ATOM     23  C   UNL     1       2.133   7.214  19.936  0.00  0.00    +0.000 C 
ENDBRANCH  14  21
ENDBRANCH  12  14
ENDBRANCH   4   7
BRANCH   1  27
ATOM     24  C   UNL     1       8.759  11.562  18.177  0.00  0.00    +0.000 A 
ATOM     25  C   UNL     1       9.461  10.836  19.144  0.00  0.00    +0.000 A 
ATOM     26  C   UNL     1       9.287   9.443  19.274  0.00  0.00    +0.000 A 
ATOM     27  C   UNL     1       8.422   8.751  18.425  0.00  0.00    +0.000 A 
ATOM     28  C   UNL     1       7.709   9.499  17.470  0.00  0.00    +0.000 A 
ATOM     29  C   UNL     1       7.872  10.881  17.346  0.00  0.00    +0.000 A 
BRANCH  24  32
ATOM     30  C   UNL     1       8.611  13.951  18.866  0.00  0.00    +0.000 C 
ATOM     31  O   UNL     1       8.213  13.840  20.016  0.00  0.00    +0.000 OA
ATOM     32  N   UNL     1       8.881  12.948  17.976  0.00  0.00    +0.000 N 
ATOM     33  H   UNL     1       9.276  13.275  17.105  0.00  0.00    +0.000 HD
BRANCH  30  35
ATOM     34  C   UNL     1       9.526  16.085  19.143  0.00  0.00    +0.000 C 
ATOM     35  O   UNL     1       8.898  15.144  18.263  0.00  0.00    +0.000 OA
ENDBRANCH  30  35
ENDBRANCH  24  32
ENDBRANCH   1  27
TORSDOF 8
ENDMDL
