MODEL 1
REMARK VINA RESULT:      -6.9      0.000      0.000
REMARK  Name = 
REMARK  6 active torsions:
REMARK  status: ('A' for Active; 'I' for Inactive)
REMARK    1  A    between atoms: C_1  and  O_2
REMARK    2  A    between atoms: O_2  and  C_3
REMARK    3  A    between atoms: C_6  and  C_7
REMARK    4  A    between atoms: C_7  and  C_8
REMARK    5  A    between atoms: C_8  and  N_9
REMARK    6  A    between atoms: C_15  and  O_16
REMARK                            x       y       z     vdW  Elec       q    Type
REMARK                         _______ _______ _______ _____ _____    ______ ____
ROOT
ATOM      1  N   UNL     1       4.071   4.248  16.840  0.00  0.00    +0.000 N 
ATOM      2  C   UNL     1       3.595   3.087  17.341  0.00  0.00    +0.000 A 
ATOM      3  C   UNL     1       2.625   3.076  18.331  0.00  0.00    +0.000 A 
ATOM      4  C   UNL     1       2.270   4.272  18.943  0.00  0.00    +0.000 A 
ATOM      5  C   UNL     1       1.451   4.271  20.079  0.00  0.00    +0.000 A 
ATOM      6  C   UNL     1       1.311   5.431  20.840  0.00  0.00    +0.000 A 
ATOM      7  C   UNL     1       1.926   6.599  20.412  0.00  0.00    +0.000 A 
ATOM      8  C   UNL     1       2.609   6.655  19.198  0.00  0.00    +0.000 A 
ATOM      9  C   UNL     1       2.821   5.478  18.464  0.00  0.00    +0.000 A 
ATOM     10  C   UNL     1       3.637   5.437  17.325  0.00  0.00    +0.000 A 
ENDROOT
BRANCH   7  11
ATOM     11  O   UNL     1       1.934   7.712  21.196  0.00  0.00    +0.000 OA
ATOM     12  H   UNL     1       1.539   7.491  22.059  0.00  0.00    +0.000 HD
ENDBRANCH   7  11
BRANCH   1  13
ATOM     13  C   UNL     1       5.122   4.202  15.785  0.00  0.00    +0.000 C 
BRANCH  13  14
ATOM     14  C   UNL     1       6.513   3.987  16.385  0.00  0.00    +0.000 C 
BRANCH  14  18
ATOM     15  C   UNL     1       8.129   7.446  18.436  0.00  0.00    +0.000 A 
ATOM     16  C   UNL     1       7.644   7.573  17.130  0.00  0.00    +0.000 A 
ATOM     17  C   UNL     1       7.127   6.460  16.453  0.00  0.00    +0.000 A 
ATOM     18  C   UNL     1       7.125   5.193  17.063  0.00  0.00    +0.000 A 
ATOM     19  C   UNL     1       7.641   5.079  18.367  0.00  0.00    +0.000 A 
ATOM     20  C   UNL     1       8.144   6.195  19.044  0.00  0.00    +0.000 A 
BRANCH  15  22
ATOM     21  C   UNL     1       8.618   9.748  18.153  0.00  0.00    +0.000 C 
ATOM     22  O   UNL     1       8.586   8.606  19.006  0.00  0.00    +0.000 OA
ENDBRANCH  15  22
ENDBRANCH  14  18
ENDBRANCH  13  14
ENDBRANCH   1  13
TORSDOF 5
ENDMDL
MODEL 2
REMARK VINA RESULT:      -6.8      4.589      7.576
REMARK  Name = 
REMARK  6 active torsions:
REMARK  status: ('A' for Active; 'I' for Inactive)
REMARK    1  A    between atoms: C_1  and  O_2
REMARK    2  A    between atoms: O_2  and  C_3
REMARK    3  A    between atoms: C_6  and  C_7
REMARK    4  A    between atoms: C_7  and  C_8
REMARK    5  A    between atoms: C_8  and  N_9
REMARK    6  A    between atoms: C_15  and  O_16
REMARK                            x       y       z     vdW  Elec       q    Type
REMARK                         _______ _______ _______ _____ _____    ______ ____
ROOT
ATOM      1  N   UNL     1       2.090   7.525  18.656  0.00  0.00    +0.000 N 
ATOM      2  C   UNL     1       1.847   7.641  19.979  0.00  0.00    +0.000 A 
ATOM      3  C   UNL     1       1.867   6.534  20.813  0.00  0.00    +0.000 A 
ATOM      4  C   UNL     1       1.960   5.266  20.251  0.00  0.00    +0.000 A 
ATOM      5  C   UNL     1       1.778   4.125  21.043  0.00  0.00    +0.000 A 
ATOM      6  C   UNL     1       1.610   2.878  20.442  0.00  0.00    +0.000 A 
ATOM      7  C   UNL     1       1.707   2.774  19.061  0.00  0.00    +0.000 A 
ATOM      8  C   UNL     1       2.050   3.872  18.274  0.00  0.00    +0.000 A 
ATOM      9  C   UNL     1       2.145   5.144  18.859  0.00  0.00    +0.000 A 
ATOM     10  C   UNL     1       2.323   6.310  18.101  0.00  0.00    +0.000 A 
ENDROOT
BRANCH   7  11
ATOM     11  O   UNL     1       1.408   1.607  18.427  0.00  0.00    +0.000 OA
ATOM     12  H   UNL     1       2.044   1.472  17.701  0.00  0.00    +0.000 HD
ENDBRANCH   7  11
BRANCH   1  13
ATOM     13  C   UNL     1       2.044   8.747  17.803  0.00  0.00    +0.000 C 
BRANCH  13  14
ATOM     14  C   UNL     1       1.624   9.978  18.607  0.00  0.00    +0.000 C 
BRANCH  14  18
ATOM     15  C   UNL     1      -2.497  11.206  18.061  0.00  0.00    +0.000 A 
ATOM     16  C   UNL     1      -1.692  11.859  19.002  0.00  0.00    +0.000 A 
ATOM     17  C   UNL     1      -0.361  11.465  19.194  0.00  0.00    +0.000 A 
ATOM     18  C   UNL     1       0.173  10.383  18.472  0.00  0.00    +0.000 A 
ATOM     19  C   UNL     1      -0.658   9.722  17.549  0.00  0.00    +0.000 A 
ATOM     20  C   UNL     1      -1.983  10.127  17.351  0.00  0.00    +0.000 A 
BRANCH  15  22
ATOM     21  C   UNL     1      -4.522  11.209  16.831  0.00  0.00    +0.000 C 
ATOM     22  O   UNL     1      -3.773  11.694  17.942  0.00  0.00    +0.000 OA
ENDBRANCH  15  22
ENDBRANCH  14  18
ENDBRANCH  13  14
ENDBRANCH   1  13
TORSDOF 5
ENDMDL
MODEL 3
REMARK VINA RESULT:      -6.8      2.852      4.331
REMARK  Name = 
REMARK  6 active torsions:
REMARK  status: ('A' for Active; 'I' for Inactive)
REMARK    1  A    between atoms: C_1  and  O_2
REMARK    2  A    between atoms: O_2  and  C_3
REMARK    3  A    between atoms: C_6  and  C_7
REMARK    4  A    between atoms: C_7  and  C_8
REMARK    5  A    between atoms: C_8  and  N_9
REMARK    6  A    between atoms: C_15  and  O_16
REMARK                            x       y       z     vdW  Elec       q    Type
REMARK                         _______ _______ _______ _____ _____    ______ ____
ROOT
ATOM      1  N   UNL     1       2.467   6.118  19.503  0.00  0.00    +0.000 N 
ATOM      2  C   UNL     1       1.889   6.431  20.683  0.00  0.00    +0.000 A 
ATOM      3  C   UNL     1       1.249   7.646  20.870  0.00  0.00    +0.000 A 
ATOM      4  C   UNL     1       1.359   8.626  19.891  0.00  0.00    +0.000 A 
ATOM      5  C   UNL     1       0.901   9.927  20.135  0.00  0.00    +0.000 A 
ATOM      6  C   UNL     1       1.245  10.962  19.267  0.00  0.00    +0.000 A 
ATOM      7  C   UNL     1       1.974  10.672  18.123  0.00  0.00    +0.000 A 
ATOM      8  C   UNL     1       2.296   9.359  17.783  0.00  0.00    +0.000 A 
ATOM      9  C   UNL     1       2.023   8.320  18.686  0.00  0.00    +0.000 A 
ATOM     10  C   UNL     1       2.468   7.006  18.479  0.00  0.00    +0.000 A 
ENDROOT
BRANCH   7  11
ATOM     11  O   UNL     1       2.451  11.669  17.327  0.00  0.00    +0.000 OA
ATOM     12  H   UNL     1       3.400  11.790  17.510  0.00  0.00    +0.000 HD
ENDBRANCH   7  11
BRANCH   1  13
ATOM     13  C   UNL     1       3.153   4.802  19.361  0.00  0.00    +0.000 C 
BRANCH  13  14
ATOM     14  C   UNL     1       4.667   4.937  19.530  0.00  0.00    +0.000 C 
BRANCH  14  18
ATOM     15  C   UNL     1       6.887   5.232  15.819  0.00  0.00    +0.000 A 
ATOM     16  C   UNL     1       5.823   4.329  15.927  0.00  0.00    +0.000 A 
ATOM     17  C   UNL     1       5.104   4.218  17.124  0.00  0.00    +0.000 A 
ATOM     18  C   UNL     1       5.466   4.985  18.246  0.00  0.00    +0.000 A 
ATOM     19  C   UNL     1       6.554   5.868  18.128  0.00  0.00    +0.000 A 
ATOM     20  C   UNL     1       7.262   5.985  16.927  0.00  0.00    +0.000 A 
BRANCH  15  22
ATOM     21  C   UNL     1       6.895   4.487  13.570  0.00  0.00    +0.000 C 
ATOM     22  O   UNL     1       7.500   5.272  14.593  0.00  0.00    +0.000 OA
ENDBRANCH  15  22
ENDBRANCH  14  18
ENDBRANCH  13  14
ENDBRANCH   1  13
TORSDOF 5
ENDMDL
MODEL 4
REMARK VINA RESULT:      -6.8      2.829      4.307
REMARK  Name = 
REMARK  6 active torsions:
REMARK  status: ('A' for Active; 'I' for Inactive)
REMARK    1  A    between atoms: C_1  and  O_2
REMARK    2  A    between atoms: O_2  and  C_3
REMARK    3  A    between atoms: C_6  and  C_7
REMARK    4  A    between atoms: C_7  and  C_8
REMARK    5  A    between atoms: C_8  and  N_9
REMARK    6  A    between atoms: C_15  and  O_16
REMARK                            x       y       z     vdW  Elec       q    Type
REMARK                         _______ _______ _______ _____ _____    ______ ____
ROOT
ATOM      1  N   UNL     1       2.399   6.079  19.471  0.00  0.00    +0.000 N 
ATOM      2  C   UNL     1       1.860   6.395  20.669  0.00  0.00    +0.000 A 
ATOM      3  C   UNL     1       1.251   7.621  20.882  0.00  0.00    +0.000 A 
ATOM      4  C   UNL     1       1.355   8.606  19.907  0.00  0.00    +0.000 A 
ATOM      5  C   UNL     1       0.931   9.914  20.174  0.00  0.00    +0.000 A 
ATOM      6  C   UNL     1       1.273  10.949  19.304  0.00  0.00    +0.000 A 
ATOM      7  C   UNL     1       1.964  10.652  18.138  0.00  0.00    +0.000 A 
ATOM      8  C   UNL     1       2.249   9.336  17.780  0.00  0.00    +0.000 A 
ATOM      9  C   UNL     1       1.979   8.296  18.682  0.00  0.00    +0.000 A 
ATOM     10  C   UNL     1       2.390   6.974  18.454  0.00  0.00    +0.000 A 
ENDROOT
BRANCH   7  11
ATOM     11  O   UNL     1       2.440  11.645  17.336  0.00  0.00    +0.000 OA
ATOM     12  H   UNL     1       1.695  12.201  17.048  0.00  0.00    +0.000 HD
ENDBRANCH   7  11
BRANCH   1  13
ATOM     13  C   UNL     1       3.053   4.750  19.301  0.00  0.00    +0.000 C 
BRANCH  13  14
ATOM     14  C   UNL     1       4.571   4.848  19.453  0.00  0.00    +0.000 C 
BRANCH  14  18
ATOM     15  C   UNL     1       6.870   5.199  15.795  0.00  0.00    +0.000 A 
ATOM     16  C   UNL     1       7.156   6.032  16.882  0.00  0.00    +0.000 A 
ATOM     17  C   UNL     1       6.414   5.934  18.067  0.00  0.00    +0.000 A 
ATOM     18  C   UNL     1       5.346   5.024  18.165  0.00  0.00    +0.000 A 
ATOM     19  C   UNL     1       5.056   4.213  17.054  0.00  0.00    +0.000 A 
ATOM     20  C   UNL     1       5.808   4.305  15.877  0.00  0.00    +0.000 A 
BRANCH  15  22
ATOM     21  C   UNL     1       7.214   4.774  13.489  0.00  0.00    +0.000 C 
ATOM     22  O   UNL     1       7.677   5.367  14.699  0.00  0.00    +0.000 OA
ENDBRANCH  15  22
ENDBRANCH  14  18
ENDBRANCH  13  14
ENDBRANCH   1  13
TORSDOF 5
ENDMDL
MODEL 5
REMARK VINA RESULT:      -6.7      3.491      6.429
REMARK  Name = 
REMARK  6 active torsions:
REMARK  status: ('A' for Active; 'I' for Inactive)
REMARK    1  A    between atoms: C_1  and  O_2
REMARK    2  A    between atoms: O_2  and  C_3
REMARK    3  A    between atoms: C_6  and  C_7
REMARK    4  A    between atoms: C_7  and  C_8
REMARK    5  A    between atoms: C_8  and  N_9
REMARK    6  A    between atoms: C_15  and  O_16
REMARK                            x       y       z     vdW  Elec       q    Type
REMARK                         _______ _______ _______ _____ _____    ______ ____
ROOT
ATOM      1  N   UNL     1       3.315   6.808  17.810  0.00  0.00    +0.000 N 
ATOM      2  C   UNL     1       4.553   6.275  17.720  0.00  0.00    +0.000 A 
ATOM      3  C   UNL     1       4.737   4.912  17.551  0.00  0.00    +0.000 A 
ATOM      4  C   UNL     1       3.642   4.063  17.656  0.00  0.00    +0.000 A 
ATOM      5  C   UNL     1       3.822   2.674  17.694  0.00  0.00    +0.000 A 
ATOM      6  C   UNL     1       2.764   1.844  18.060  0.00  0.00    +0.000 A 
ATOM      7  C   UNL     1       1.518   2.402  18.305  0.00  0.00    +0.000 A 
ATOM      8  C   UNL     1       1.284   3.763  18.111  0.00  0.00    +0.000 A 
ATOM      9  C   UNL     1       2.357   4.618  17.819  0.00  0.00    +0.000 A 
ATOM     10  C   UNL     1       2.218   6.013  17.775  0.00  0.00    +0.000 A 
ENDROOT
BRANCH   7  11
ATOM     11  O   UNL     1       0.499   1.648  18.802  0.00  0.00    +0.000 OA
ATOM     12  H   UNL     1       0.203   1.027  18.113  0.00  0.00    +0.000 HD
ENDBRANCH   7  11
BRANCH   1  13
ATOM     13  C   UNL     1       3.175   8.279  18.004  0.00  0.00    +0.000 C 
BRANCH  13  14
ATOM     14  C   UNL     1       1.709   8.713  17.966  0.00  0.00    +0.000 C 
BRANCH  14  18
ATOM     15  C   UNL     1      -0.111   9.630  21.791  0.00  0.00    +0.000 A 
ATOM     16  C   UNL     1      -0.501  10.334  20.646  0.00  0.00    +0.000 A 
ATOM     17  C   UNL     1       0.087  10.053  19.405  0.00  0.00    +0.000 A 
ATOM     18  C   UNL     1       1.103   9.087  19.301  0.00  0.00    +0.000 A 
ATOM     19  C   UNL     1       1.501   8.407  20.467  0.00  0.00    +0.000 A 
ATOM     20  C   UNL     1       0.902   8.682  21.702  0.00  0.00    +0.000 A 
BRANCH  15  22
ATOM     21  C   UNL     1      -1.232  11.319  23.018  0.00  0.00    +0.000 C 
ATOM     22  O   UNL     1      -0.773   9.972  22.943  0.00  0.00    +0.000 OA
ENDBRANCH  15  22
ENDBRANCH  14  18
ENDBRANCH  13  14
ENDBRANCH   1  13
TORSDOF 5
ENDMDL
MODEL 6
REMARK VINA RESULT:      -6.7      3.067      5.300
REMARK  Name = 
REMARK  6 active torsions:
REMARK  status: ('A' for Active; 'I' for Inactive)
REMARK    1  A    between atoms: C_1  and  O_2
REMARK    2  A    between atoms: O_2  and  C_3
REMARK    3  A    between atoms: C_6  and  C_7
REMARK    4  A    between atoms: C_7  and  C_8
REMARK    5  A    between atoms: C_8  and  N_9
REMARK    6  A    between atoms: C_15  and  O_16
REMARK                            x       y       z     vdW  Elec       q    Type
REMARK                         _______ _______ _______ _____ _____    ______ ____
ROOT
ATOM      1  N   UNL     1       7.378   7.519  17.827  0.00  0.00    +0.000 N 
ATOM      2  C   UNL     1       7.939   6.633  18.678  0.00  0.00    +0.000 A 
ATOM      3  C   UNL     1       7.334   5.415  18.948  0.00  0.00    +0.000 A 
ATOM      4  C   UNL     1       6.048   5.180  18.478  0.00  0.00    +0.000 A 
ATOM      5  C   UNL     1       5.334   4.052  18.902  0.00  0.00    +0.000 A 
ATOM      6  C   UNL     1       3.967   3.954  18.642  0.00  0.00    +0.000 A 
ATOM      7  C   UNL     1       3.347   4.944  17.893  0.00  0.00    +0.000 A 
ATOM      8  C   UNL     1       4.078   5.987  17.327  0.00  0.00    +0.000 A 
ATOM      9  C   UNL     1       5.436   6.138  17.644  0.00  0.00    +0.000 A 
ATOM     10  C   UNL     1       6.185   7.254  17.242  0.00  0.00    +0.000 A 
ENDROOT
BRANCH   7  11
ATOM     11  O   UNL     1       1.995   4.960  17.741  0.00  0.00    +0.000 OA
ATOM     12  H   UNL     1       1.623   5.662  18.303  0.00  0.00    +0.000 HD
ENDBRANCH   7  11
BRANCH   1  13
ATOM     13  C   UNL     1       8.065   8.819  17.582  0.00  0.00    +0.000 C 
BRANCH  13  14
ATOM     14  C   UNL     1       8.816   9.301  18.824  0.00  0.00    +0.000 C 
BRANCH  14  18
ATOM     15  C   UNL     1      10.410  13.317  18.477  0.00  0.00    +0.000 A 
ATOM     16  C   UNL     1      10.970  12.420  19.394  0.00  0.00    +0.000 A 
ATOM     17  C   UNL     1      10.457  11.122  19.522  0.00  0.00    +0.000 A 
ATOM     18  C   UNL     1       9.349  10.715  18.758  0.00  0.00    +0.000 A 
ATOM     19  C   UNL     1       8.782  11.638  17.860  0.00  0.00    +0.000 A 
ATOM     20  C   UNL     1       9.305  12.929  17.726  0.00  0.00    +0.000 A 
BRANCH  15  22
ATOM     21  C   UNL     1      10.571  15.497  19.389  0.00  0.00    +0.000 C 
ATOM     22  O   UNL     1      11.010  14.548  18.421  0.00  0.00    +0.000 OA
ENDBRANCH  15  22
ENDBRANCH  14  18
ENDBRANCH  13  14
ENDBRANCH   1  13
TORSDOF 5
ENDMDL
MODEL 7
REMARK VINA RESULT:      -6.7      2.583      4.043
REMARK  Name = 
REMARK  6 active torsions:
REMARK  status: ('A' for Active; 'I' for Inactive)
REMARK    1  A    between atoms: C_1  and  O_2
REMARK    2  A    between atoms: O_2  and  C_3
REMARK    3  A    between atoms: C_6  and  C_7
REMARK    4  A    between atoms: C_7  and  C_8
REMARK    5  A    between atoms: C_8  and  N_9
REMARK    6  A    between atoms: C_15  and  O_16
REMARK                            x       y       z     vdW  Elec       q    Type
REMARK                         _______ _______ _______ _____ _____    ______ ____
ROOT
ATOM      1  N   UNL     1       2.832   5.094  19.126  0.00  0.00    +0.000 N 
ATOM      2  C   UNL     1       2.440   5.288  20.404  0.00  0.00    +0.000 A 
ATOM      3  C   UNL     1       1.769   6.440  20.782  0.00  0.00    +0.000 A 
ATOM      4  C   UNL     1       1.657   7.486  19.874  0.00  0.00    +0.000 A 
ATOM      5  C   UNL     1       1.169   8.733  20.286  0.00  0.00    +0.000 A 
ATOM      6  C   UNL     1       1.301   9.843  19.453  0.00  0.00    +0.000 A 
ATOM      7  C   UNL     1       1.846   9.680  18.188  0.00  0.00    +0.000 A 
ATOM      8  C   UNL     1       2.186   8.418  17.703  0.00  0.00    +0.000 A 
ATOM      9  C   UNL     1       2.128   7.306  18.558  0.00  0.00    +0.000 A 
ATOM     10  C   UNL     1       2.610   6.043  18.185  0.00  0.00    +0.000 A 
ENDROOT
BRANCH   7  11
ATOM     11  O   UNL     1       2.125  10.757  17.403  0.00  0.00    +0.000 OA
ATOM     12  H   UNL     1       2.377  11.505  17.973  0.00  0.00    +0.000 HD
ENDBRANCH   7  11
BRANCH   1  13
ATOM     13  C   UNL     1       3.562   3.842  18.777  0.00  0.00    +0.000 C 
BRANCH  13  14
ATOM     14  C   UNL     1       5.074   4.067  18.732  0.00  0.00    +0.000 C 
BRANCH  14  18
ATOM     15  C   UNL     1       6.741   4.881  14.814  0.00  0.00    +0.000 A 
ATOM     16  C   UNL     1       7.423   5.296  15.963  0.00  0.00    +0.000 A 
ATOM     17  C   UNL     1       6.890   5.047  17.235  0.00  0.00    +0.000 A 
ATOM     18  C   UNL     1       5.643   4.411  17.373  0.00  0.00    +0.000 A 
ATOM     19  C   UNL     1       4.959   4.023  16.206  0.00  0.00    +0.000 A 
ATOM     20  C   UNL     1       5.501   4.262  14.938  0.00  0.00    +0.000 A 
BRANCH  15  22
ATOM     21  C   UNL     1       7.051   4.292  12.540  0.00  0.00    +0.000 C 
ATOM     22  O   UNL     1       7.370   5.157  13.627  0.00  0.00    +0.000 OA
ENDBRANCH  15  22
ENDBRANCH  14  18
ENDBRANCH  13  14
ENDBRANCH   1  13
TORSDOF 5
ENDMDL
MODEL 8
REMARK VINA RESULT:      -6.7      5.519      7.349
REMARK  Name = 
REMARK  6 active torsions:
REMARK  status: ('A' for Active; 'I' for Inactive)
REMARK    1  A    between atoms: C_1  and  O_2
REMARK    2  A    between atoms: O_2  and  C_3
REMARK    3  A    between atoms: C_6  and  C_7
REMARK    4  A    between atoms: C_7  and  C_8
REMARK    5  A    between atoms: C_8  and  N_9
REMARK    6  A    between atoms: C_15  and  O_16
REMARK                            x       y       z     vdW  Elec       q    Type
REMARK                         _______ _______ _______ _____ _____    ______ ____
ROOT
ATOM      1  N   UNL     1      -0.067  10.271  18.710  0.00  0.00    +0.000 N 
ATOM      2  C   UNL     1      -0.648  11.232  19.462  0.00  0.00    +0.000 A 
ATOM      3  C   UNL     1      -1.968  11.602  19.258  0.00  0.00    +0.000 A 
ATOM      4  C   UNL     1      -2.646  11.108  18.151  0.00  0.00    +0.000 A 
ATOM      5  C   UNL     1      -3.904  11.618  17.804  0.00  0.00    +0.000 A 
ATOM      6  C   UNL     1      -4.461  11.317  16.562  0.00  0.00    +0.000 A 
ATOM      7  C   UNL     1      -3.793  10.445  15.714  0.00  0.00    +0.000 A 
ATOM      8  C   UNL     1      -2.622   9.803  16.113  0.00  0.00    +0.000 A 
ATOM      9  C   UNL     1      -2.013  10.156  17.326  0.00  0.00    +0.000 A 
ATOM     10  C   UNL     1      -0.754   9.671  17.707  0.00  0.00    +0.000 A 
ENDROOT
BRANCH   7  11
ATOM     11  O   UNL     1      -4.229  10.238  14.441  0.00  0.00    +0.000 OA
ATOM     12  H   UNL     1      -5.081   9.768  14.473  0.00  0.00    +0.000 HD
ENDBRANCH   7  11
BRANCH   1  13
ATOM     13  C   UNL     1       1.359   9.920  18.963  0.00  0.00    +0.000 C 
BRANCH  13  14
ATOM     14  C   UNL     1       1.953   9.114  17.806  0.00  0.00    +0.000 C 
BRANCH  14  18
ATOM     15  C   UNL     1       4.019   5.434  18.791  0.00  0.00    +0.000 A 
ATOM     16  C   UNL     1       2.930   5.851  19.563  0.00  0.00    +0.000 A 
ATOM     17  C   UNL     1       2.259   7.044  19.261  0.00  0.00    +0.000 A 
ATOM     18  C   UNL     1       2.696   7.857  18.200  0.00  0.00    +0.000 A 
ATOM     19  C   UNL     1       3.809   7.435  17.450  0.00  0.00    +0.000 A 
ATOM     20  C   UNL     1       4.468   6.237  17.748  0.00  0.00    +0.000 A 
BRANCH  15  22
ATOM     21  C   UNL     1       3.699   3.308  19.787  0.00  0.00    +0.000 C 
ATOM     22  O   UNL     1       4.580   4.240  19.165  0.00  0.00    +0.000 OA
ENDBRANCH  15  22
ENDBRANCH  14  18
ENDBRANCH  13  14
ENDBRANCH   1  13
TORSDOF 5
ENDMDL
MODEL 9
REMARK VINA RESULT:      -6.7      3.435      5.277
REMARK  Name = 
REMARK  6 active torsions:
REMARK  status: ('A' for Active; 'I' for Inactive)
REMARK    1  A    between atoms: C_1  and  O_2
REMARK    2  A    between atoms: O_2  and  C_3
REMARK    3  A    between atoms: C_6  and  C_7
REMARK    4  A    between atoms: C_7  and  C_8
REMARK    5  A    between atoms: C_8  and  N_9
REMARK    6  A    between atoms: C_15  and  O_16
REMARK                            x       y       z     vdW  Elec       q    Type
REMARK                         _______ _______ _______ _____ _____    ______ ____
ROOT
ATOM      1  N   UNL     1       1.918   7.731  19.820  0.00  0.00    +0.000 N 
ATOM      2  C   UNL     1       1.797   8.518  18.729  0.00  0.00    +0.000 A 
ATOM      3  C   UNL     1       1.279   9.800  18.822  0.00  0.00    +0.000 A 
ATOM      4  C   UNL     1       0.712  10.215  20.021  0.00  0.00    +0.000 A 
ATOM      5  C   UNL     1       0.002  11.421  20.089  0.00  0.00    +0.000 A 
ATOM      6  C   UNL     1      -0.780  11.707  21.207  0.00  0.00    +0.000 A 
ATOM      7  C   UNL     1      -0.781  10.824  22.277  0.00  0.00    +0.000 A 
ATOM      8  C   UNL     1       0.047   9.702  22.291  0.00  0.00    +0.000 A 
ATOM      9  C   UNL     1       0.779   9.365  21.143  0.00  0.00    +0.000 A 
ATOM     10  C   UNL     1       1.499   8.166  21.034  0.00  0.00    +0.000 A 
ENDROOT
BRANCH   7  11
ATOM     11  O   UNL     1      -1.638  10.992  23.322  0.00  0.00    +0.000 OA
ATOM     12  H   UNL     1      -1.130  11.272  24.103  0.00  0.00    +0.000 HD
ENDBRANCH   7  11
BRANCH   1  13
ATOM     13  C   UNL     1       2.469   6.355  19.661  0.00  0.00    +0.000 C 
BRANCH  13  14
ATOM     14  C   UNL     1       2.391   5.883  18.208  0.00  0.00    +0.000 C 
BRANCH  14  18
ATOM     15  C   UNL     1       6.130   5.141  16.144  0.00  0.00    +0.000 A 
ATOM     16  C   UNL     1       5.336   4.066  16.560  0.00  0.00    +0.000 A 
ATOM     17  C   UNL     1       4.130   4.293  17.236  0.00  0.00    +0.000 A 
ATOM     18  C   UNL     1       3.720   5.603  17.541  0.00  0.00    +0.000 A 
ATOM     19  C   UNL     1       4.543   6.671  17.138  0.00  0.00    +0.000 A 
ATOM     20  C   UNL     1       5.740   6.440  16.452  0.00  0.00    +0.000 A 
BRANCH  15  22
ATOM     21  C   UNL     1       7.202   4.872  14.049  0.00  0.00    +0.000 C 
ATOM     22  O   UNL     1       7.274   4.799  15.470  0.00  0.00    +0.000 OA
ENDBRANCH  15  22
ENDBRANCH  14  18
ENDBRANCH  13  14
ENDBRANCH   1  13
TORSDOF 5
ENDMDL
