MODEL 1
REMARK VINA RESULT:      -7.4      0.000      0.000
REMARK  Name = 
REMARK  10 active torsions:
REMARK  status: ('A' for Active; 'I' for Inactive)
REMARK    1  A    between atoms: C_1  and  C_2
REMARK    2  A    between atoms: C_2  and  C_3
REMARK    3  A    between atoms: C_8  and  N_9
REMARK    4  A    between atoms: N_9  and  C_10
REMARK    5  A    between atoms: N_9  and  S_11
REMARK    6  A    between atoms: S_11  and  C_14
REMARK    7  A    between atoms: C_16  and  C_17
REMARK    8  A    between atoms: C_19  and  C_20
REMARK    9  A    between atoms: C_25  and  O_26
REMARK   10  A    between atoms: O_26  and  C_27
REMARK                            x       y       z     vdW  Elec       q    Type
REMARK                         _______ _______ _______ _____ _____    ______ ____
ROOT
ATOM      1  C   UNL     1       5.511   4.082  17.508  0.00  0.00    +0.000 A 
ATOM      2  C   UNL     1       5.104   3.862  16.175  0.00  0.00    +0.000 A 
ATOM      3  C   UNL     1       5.933   4.226  15.098  0.00  0.00    +0.000 A 
ATOM      4  C   UNL     1       7.128   4.896  15.375  0.00  0.00    +0.000 A 
ATOM      5  C   UNL     1       7.517   5.147  16.689  0.00  0.00    +0.000 A 
ATOM      6  C   UNL     1       6.737   4.718  17.771  0.00  0.00    +0.000 A 
ENDROOT
BRANCH   3   7
ATOM      7  C   UNL     1       5.595   3.898  13.726  0.00  0.00    +0.000 A 
ATOM      8  C   UNL     1       4.437   3.800  12.996  0.00  0.00    +0.000 A 
ATOM      9  C   UNL     1       4.853   3.331  11.728  0.00  0.00    +0.000 A 
ATOM     10  C   UNL     1       4.025   2.992  10.551  0.00  0.00    +0.000 C 
ATOM     11  N   UNL     1       6.179   3.176  11.678  0.00  0.00    +0.000 NA
ATOM     12  O   UNL     1       6.643   3.533  12.928  0.00  0.00    +0.000 OA
ENDBRANCH   3   7
BRANCH   1  13
ATOM     13  S   UNL     1       4.368   3.596  18.808  0.00  0.00    +0.000 S 
ATOM     14  O   UNL     1       4.718   4.410  19.953  0.00  0.00    +0.000 OA
ATOM     15  O   UNL     1       4.338   2.148  18.914  0.00  0.00    +0.000 OA
BRANCH  13  16
ATOM     16  N   UNL     1       2.790   4.089  18.252  0.00  0.00    +0.000 N 
ATOM     17  C   UNL     1       1.861   2.998  17.923  0.00  0.00    +0.000 C 
BRANCH  16  23
ATOM     18  C   UNL     1       1.587   5.231  20.224  0.00  0.00    +0.000 A 
ATOM     19  C   UNL     1       1.335   6.471  20.874  0.00  0.00    +0.000 A 
ATOM     20  C   UNL     1       1.675   7.689  20.296  0.00  0.00    +0.000 A 
ATOM     21  C   UNL     1       2.275   7.704  19.051  0.00  0.00    +0.000 A 
ATOM     22  C   UNL     1       2.578   6.496  18.410  0.00  0.00    +0.000 A 
ATOM     23  C   UNL     1       2.260   5.247  18.981  0.00  0.00    +0.000 A 
BRANCH  18  25
ATOM     24  C   UNL     1       2.067   3.168  21.650  0.00  0.00    +0.000 C 
ATOM     25  C   UNL     1       1.030   4.031  20.956  0.00  0.00    +0.000 C 
ENDBRANCH  18  25
ENDBRANCH  16  23
ENDBRANCH  13  16
ENDBRANCH   1  13
BRANCH   6  26
ATOM     26  O   UNL     1       7.121   4.940  19.062  0.00  0.00    +0.000 OA
ATOM     27  C   UNL     1       8.264   5.769  19.265  0.00  0.00    +0.000 C 
ENDBRANCH   6  26
TORSDOF 6
ENDMDL
MODEL 2
REMARK VINA RESULT:      -7.2      0.853      1.986
REMARK  Name = 
REMARK  10 active torsions:
REMARK  status: ('A' for Active; 'I' for Inactive)
REMARK    1  A    between atoms: C_1  and  C_2
REMARK    2  A    between atoms: C_2  and  C_3
REMARK    3  A    between atoms: C_8  and  N_9
REMARK    4  A    between atoms: N_9  and  C_10
REMARK    5  A    between atoms: N_9  and  S_11
REMARK    6  A    between atoms: S_11  and  C_14
REMARK    7  A    between atoms: C_16  and  C_17
REMARK    8  A    between atoms: C_19  and  C_20
REMARK    9  A    between atoms: C_25  and  O_26
REMARK   10  A    between atoms: O_26  and  C_27
REMARK                            x       y       z     vdW  Elec       q    Type
REMARK                         _______ _______ _______ _____ _____    ______ ____
ROOT
ATOM      1  C   UNL     1       5.335   4.226  17.707  0.00  0.00    +0.000 A 
ATOM      2  C   UNL     1       4.958   4.046  16.359  0.00  0.00    +0.000 A 
ATOM      3  C   UNL     1       5.893   4.210  15.321  0.00  0.00    +0.000 A 
ATOM      4  C   UNL     1       7.179   4.648  15.647  0.00  0.00    +0.000 A 
ATOM      5  C   UNL     1       7.546   4.863  16.974  0.00  0.00    +0.000 A 
ATOM      6  C   UNL     1       6.646   4.625  18.021  0.00  0.00    +0.000 A 
ENDROOT
BRANCH   3   7
ATOM      7  C   UNL     1       5.565   3.908  13.940  0.00  0.00    +0.000 A 
ATOM      8  C   UNL     1       4.417   3.861  13.191  0.00  0.00    +0.000 A 
ATOM      9  C   UNL     1       4.835   3.388  11.925  0.00  0.00    +0.000 A 
ATOM     10  C   UNL     1       4.014   3.092  10.731  0.00  0.00    +0.000 C 
ATOM     11  N   UNL     1       6.155   3.184  11.895  0.00  0.00    +0.000 NA
ATOM     12  O   UNL     1       6.612   3.511  13.155  0.00  0.00    +0.000 OA
ENDBRANCH   3   7
BRANCH   1  13
ATOM     13  S   UNL     1       4.058   4.010  18.954  0.00  0.00    +0.000 S 
ATOM     14  O   UNL     1       4.536   4.719  20.122  0.00  0.00    +0.000 OA
ATOM     15  O   UNL     1       3.695   2.607  19.041  0.00  0.00    +0.000 OA
BRANCH  13  16
ATOM     16  N   UNL     1       2.658   4.850  18.341  0.00  0.00    +0.000 N 
ATOM     17  C   UNL     1       1.544   3.997  17.901  0.00  0.00    +0.000 C 
BRANCH  16  23
ATOM     18  C   UNL     1       2.393   7.396  18.642  0.00  0.00    +0.000 A 
ATOM     19  C   UNL     1       1.841   8.421  19.459  0.00  0.00    +0.000 A 
ATOM     20  C   UNL     1       1.307   8.155  20.715  0.00  0.00    +0.000 A 
ATOM     21  C   UNL     1       1.312   6.858  21.192  0.00  0.00    +0.000 A 
ATOM     22  C   UNL     1       1.804   5.822  20.389  0.00  0.00    +0.000 A 
ATOM     23  C   UNL     1       2.335   6.062  19.105  0.00  0.00    +0.000 A 
BRANCH  18  25
ATOM     24  C   UNL     1       4.474   7.463  17.163  0.00  0.00    +0.000 C 
ATOM     25  C   UNL     1       3.037   7.905  17.372  0.00  0.00    +0.000 C 
ENDBRANCH  18  25
ENDBRANCH  16  23
ENDBRANCH  13  16
ENDBRANCH   1  13
BRANCH   6  26
ATOM     26  O   UNL     1       7.002   4.811  19.326  0.00  0.00    +0.000 OA
ATOM     27  C   UNL     1       8.050   5.744  19.585  0.00  0.00    +0.000 C 
ENDBRANCH   6  26
TORSDOF 6
ENDMDL
MODEL 3
REMARK VINA RESULT:      -6.8      2.971      7.372
REMARK  Name = 
REMARK  10 active torsions:
REMARK  status: ('A' for Active; 'I' for Inactive)
REMARK    1  A    between atoms: C_1  and  C_2
REMARK    2  A    between atoms: C_2  and  C_3
REMARK    3  A    between atoms: C_8  and  N_9
REMARK    4  A    between atoms: N_9  and  C_10
REMARK    5  A    between atoms: N_9  and  S_11
REMARK    6  A    between atoms: S_11  and  C_14
REMARK    7  A    between atoms: C_16  and  C_17
REMARK    8  A    between atoms: C_19  and  C_20
REMARK    9  A    between atoms: C_25  and  O_26
REMARK   10  A    between atoms: O_26  and  C_27
REMARK                            x       y       z     vdW  Elec       q    Type
REMARK                         _______ _______ _______ _____ _____    ______ ____
ROOT
ATOM      1  C   UNL     1       2.286   6.079  19.019  0.00  0.00    +0.000 A 
ATOM      2  C   UNL     1       2.085   7.437  18.691  0.00  0.00    +0.000 A 
ATOM      3  C   UNL     1       1.613   8.348  19.653  0.00  0.00    +0.000 A 
ATOM      4  C   UNL     1       1.259   7.861  20.914  0.00  0.00    +0.000 A 
ATOM      5  C   UNL     1       1.421   6.514  21.231  0.00  0.00    +0.000 A 
ATOM      6  C   UNL     1       1.965   5.613  20.306  0.00  0.00    +0.000 A 
ENDROOT
BRANCH   3   7
ATOM      7  C   UNL     1       1.517   9.770  19.379  0.00  0.00    +0.000 A 
ATOM      8  C   UNL     1       1.853  10.593  18.334  0.00  0.00    +0.000 A 
ATOM      9  C   UNL     1       1.566  11.898  18.801  0.00  0.00    +0.000 A 
ATOM     10  C   UNL     1       1.777  13.191  18.117  0.00  0.00    +0.000 C 
ATOM     11  N   UNL     1       1.063  11.871  20.039  0.00  0.00    +0.000 NA
ATOM     12  O   UNL     1       1.031  10.539  20.399  0.00  0.00    +0.000 OA
ENDBRANCH   3   7
BRANCH   1  13
ATOM     13  S   UNL     1       2.874   4.995  17.710  0.00  0.00    +0.000 S 
ATOM     14  O   UNL     1       3.572   5.858  16.780  0.00  0.00    +0.000 OA
ATOM     15  O   UNL     1       1.788   4.147  17.255  0.00  0.00    +0.000 OA
BRANCH  13  16
ATOM     16  N   UNL     1       4.045   3.945  18.463  0.00  0.00    +0.000 N 
ATOM     17  C   UNL     1       3.798   2.503  18.314  0.00  0.00    +0.000 C 
BRANCH  16  23
ATOM     18  C   UNL     1       6.214   4.391  17.144  0.00  0.00    +0.000 A 
ATOM     19  C   UNL     1       7.451   5.094  17.140  0.00  0.00    +0.000 A 
ATOM     20  C   UNL     1       7.927   5.755  18.266  0.00  0.00    +0.000 A 
ATOM     21  C   UNL     1       7.183   5.731  19.431  0.00  0.00    +0.000 A 
ATOM     22  C   UNL     1       5.939   5.088  19.449  0.00  0.00    +0.000 A 
ATOM     23  C   UNL     1       5.425   4.425  18.316  0.00  0.00    +0.000 A 
BRANCH  18  25
ATOM     24  C   UNL     1       6.190   4.417  14.591  0.00  0.00    +0.000 C 
ATOM     25  C   UNL     1       5.934   3.634  15.866  0.00  0.00    +0.000 C 
ENDBRANCH  18  25
ENDBRANCH  16  23
ENDBRANCH  13  16
ENDBRANCH   1  13
BRANCH   6  26
ATOM     26  O   UNL     1       2.149   4.296  20.615  0.00  0.00    +0.000 OA
ATOM     27  C   UNL     1       0.987   3.470  20.651  0.00  0.00    +0.000 C 
ENDBRANCH   6  26
TORSDOF 6
ENDMDL
MODEL 4
REMARK VINA RESULT:      -6.7      7.537     11.905
REMARK  Name = 
REMARK  10 active torsions:
REMARK  status: ('A' for Active; 'I' for Inactive)
REMARK    1  A    between atoms: C_1  and  C_2
REMARK    2  A    between atoms: C_2  and  C_3
REMARK    3  A    between atoms: C_8  and  N_9
REMARK    4  A    between atoms: N_9  and  C_10
REMARK    5  A    between atoms: N_9  and  S_11
REMARK    6  A    between atoms: S_11  and  C_14
REMARK    7  A    between atoms: C_16  and  C_17
REMARK    8  A    between atoms: C_19  and  C_20
REMARK    9  A    between atoms: C_25  and  O_26
REMARK   10  A    between atoms: O_26  and  C_27
REMARK                            x       y       z     vdW  Elec       q    Type
REMARK                         _______ _______ _______ _____ _____    ______ ____
ROOT
ATOM      1  C   UNL     1      -0.329  13.447  20.823  0.00  0.00    +0.000 A 
ATOM      2  C   UNL     1      -1.543  12.958  21.351  0.00  0.00    +0.000 A 
ATOM      3  C   UNL     1      -2.071  13.478  22.546  0.00  0.00    +0.000 A 
ATOM      4  C   UNL     1      -1.320  14.424  23.249  0.00  0.00    +0.000 A 
ATOM      5  C   UNL     1      -0.104  14.885  22.750  0.00  0.00    +0.000 A 
ATOM      6  C   UNL     1       0.393  14.432  21.521  0.00  0.00    +0.000 A 
ENDROOT
BRANCH   3   7
ATOM      7  C   UNL     1      -3.376  13.083  23.043  0.00  0.00    +0.000 A 
ATOM      8  C   UNL     1      -4.676  13.395  22.742  0.00  0.00    +0.000 A 
ATOM      9  C   UNL     1      -5.443  12.705  23.710  0.00  0.00    +0.000 A 
ATOM     10  C   UNL     1      -6.909  12.712  23.906  0.00  0.00    +0.000 C 
ATOM     11  N   UNL     1      -4.664  11.997  24.533  0.00  0.00    +0.000 NA
ATOM     12  O   UNL     1      -3.370  12.232  24.113  0.00  0.00    +0.000 OA
ENDBRANCH   3   7
BRANCH   1  13
ATOM     13  S   UNL     1       0.266  12.700  19.300  0.00  0.00    +0.000 S 
ATOM     14  O   UNL     1       1.692  12.531  19.485  0.00  0.00    +0.000 OA
ATOM     15  O   UNL     1      -0.247  13.441  18.161  0.00  0.00    +0.000 OA
BRANCH  13  16
ATOM     16  N   UNL     1      -0.466  11.119  19.237  0.00  0.00    +0.000 N 
ATOM     17  C   UNL     1      -1.571  10.966  18.279  0.00  0.00    +0.000 C 
BRANCH  16  23
ATOM     18  C   UNL     1       0.929   9.371  20.517  0.00  0.00    +0.000 A 
ATOM     19  C   UNL     1       1.726   8.199  20.393  0.00  0.00    +0.000 A 
ATOM     20  C   UNL     1       2.150   7.723  19.157  0.00  0.00    +0.000 A 
ATOM     21  C   UNL     1       1.793   8.406  18.009  0.00  0.00    +0.000 A 
ATOM     22  C   UNL     1       0.970   9.535  18.099  0.00  0.00    +0.000 A 
ATOM     23  C   UNL     1       0.512  10.029  19.337  0.00  0.00    +0.000 A 
BRANCH  18  25
ATOM     24  C   UNL     1      -0.535   9.161  22.598  0.00  0.00    +0.000 C 
ATOM     25  C   UNL     1       0.681   9.795  21.947  0.00  0.00    +0.000 C 
ENDBRANCH  18  25
ENDBRANCH  16  23
ENDBRANCH  13  16
ENDBRANCH   1  13
BRANCH   6  26
ATOM     26  O   UNL     1       1.573  14.893  21.012  0.00  0.00    +0.000 OA
ATOM     27  C   UNL     1       2.651  15.067  21.931  0.00  0.00    +0.000 C 
ENDBRANCH   6  26
TORSDOF 6
ENDMDL
MODEL 5
REMARK VINA RESULT:      -6.7      2.402      6.954
REMARK  Name = 
REMARK  10 active torsions:
REMARK  status: ('A' for Active; 'I' for Inactive)
REMARK    1  A    between atoms: C_1  and  C_2
REMARK    2  A    between atoms: C_2  and  C_3
REMARK    3  A    between atoms: C_8  and  N_9
REMARK    4  A    between atoms: N_9  and  C_10
REMARK    5  A    between atoms: N_9  and  S_11
REMARK    6  A    between atoms: S_11  and  C_14
REMARK    7  A    between atoms: C_16  and  C_17
REMARK    8  A    between atoms: C_19  and  C_20
REMARK    9  A    between atoms: C_25  and  O_26
REMARK   10  A    between atoms: O_26  and  C_27
REMARK                            x       y       z     vdW  Elec       q    Type
REMARK                         _______ _______ _______ _____ _____    ______ ____
ROOT
ATOM      1  C   UNL     1       4.216   5.281  19.589  0.00  0.00    +0.000 A 
ATOM      2  C   UNL     1       3.644   6.545  19.333  0.00  0.00    +0.000 A 
ATOM      3  C   UNL     1       2.327   6.835  19.729  0.00  0.00    +0.000 A 
ATOM      4  C   UNL     1       1.563   5.813  20.300  0.00  0.00    +0.000 A 
ATOM      5  C   UNL     1       2.112   4.551  20.522  0.00  0.00    +0.000 A 
ATOM      6  C   UNL     1       3.448   4.276  20.204  0.00  0.00    +0.000 A 
ENDROOT
BRANCH   3   7
ATOM      7  C   UNL     1       1.759   8.164  19.591  0.00  0.00    +0.000 A 
ATOM      8  C   UNL     1       1.037   9.010  20.392  0.00  0.00    +0.000 A 
ATOM      9  C   UNL     1       0.732  10.114  19.562  0.00  0.00    +0.000 A 
ATOM     10  C   UNL     1      -0.072  11.314  19.877  0.00  0.00    +0.000 C 
ATOM     11  N   UNL     1       1.255   9.963  18.342  0.00  0.00    +0.000 NA
ATOM     12  O   UNL     1       1.900   8.743  18.361  0.00  0.00    +0.000 OA
ENDBRANCH   3   7
BRANCH   1  13
ATOM     13  S   UNL     1       5.901   5.009  19.024  0.00  0.00    +0.000 S 
ATOM     14  O   UNL     1       5.965   3.609  18.663  0.00  0.00    +0.000 OA
ATOM     15  O   UNL     1       6.834   5.565  19.988  0.00  0.00    +0.000 OA
BRANCH  13  16
ATOM     16  N   UNL     1       6.064   5.956  17.568  0.00  0.00    +0.000 N 
ATOM     17  C   UNL     1       7.056   7.040  17.620  0.00  0.00    +0.000 C 
BRANCH  16  23
ATOM     18  C   UNL     1       4.850   4.511  15.814  0.00  0.00    +0.000 A 
ATOM     19  C   UNL     1       4.933   3.947  14.510  0.00  0.00    +0.000 A 
ATOM     20  C   UNL     1       6.115   3.950  13.779  0.00  0.00    +0.000 A 
ATOM     21  C   UNL     1       7.251   4.515  14.330  0.00  0.00    +0.000 A 
ATOM     22  C   UNL     1       7.186   5.120  15.591  0.00  0.00    +0.000 A 
ATOM     23  C   UNL     1       5.995   5.145  16.346  0.00  0.00    +0.000 A 
BRANCH  18  25
ATOM     24  C   UNL     1       3.235   2.861  16.903  0.00  0.00    +0.000 C 
ATOM     25  C   UNL     1       3.516   4.294  16.492  0.00  0.00    +0.000 C 
ENDBRANCH  18  25
ENDBRANCH  16  23
ENDBRANCH  13  16
ENDBRANCH   1  13
BRANCH   6  26
ATOM     26  O   UNL     1       4.001   3.050  20.438  0.00  0.00    +0.000 OA
ATOM     27  C   UNL     1       3.276   2.163  21.288  0.00  0.00    +0.000 C 
ENDBRANCH   6  26
TORSDOF 6
ENDMDL
MODEL 6
REMARK VINA RESULT:      -6.7      7.235     10.608
REMARK  Name = 
REMARK  10 active torsions:
REMARK  status: ('A' for Active; 'I' for Inactive)
REMARK    1  A    between atoms: C_1  and  C_2
REMARK    2  A    between atoms: C_2  and  C_3
REMARK    3  A    between atoms: C_8  and  N_9
REMARK    4  A    between atoms: N_9  and  C_10
REMARK    5  A    between atoms: N_9  and  S_11
REMARK    6  A    between atoms: S_11  and  C_14
REMARK    7  A    between atoms: C_16  and  C_17
REMARK    8  A    between atoms: C_19  and  C_20
REMARK    9  A    between atoms: C_25  and  O_26
REMARK   10  A    between atoms: O_26  and  C_27
REMARK                            x       y       z     vdW  Elec       q    Type
REMARK                         _______ _______ _______ _____ _____    ______ ____
ROOT
ATOM      1  C   UNL     1      -0.466  12.006  21.497  0.00  0.00    +0.000 A 
ATOM      2  C   UNL     1       0.318  11.119  20.730  0.00  0.00    +0.000 A 
ATOM      3  C   UNL     1       0.512   9.788  21.140  0.00  0.00    +0.000 A 
ATOM      4  C   UNL     1      -0.011   9.389  22.373  0.00  0.00    +0.000 A 
ATOM      5  C   UNL     1      -0.756  10.272  23.152  0.00  0.00    +0.000 A 
ATOM      6  C   UNL     1      -1.022  11.576  22.715  0.00  0.00    +0.000 A 
ENDROOT
BRANCH   3   7
ATOM      7  C   UNL     1       1.207   8.822  20.309  0.00  0.00    +0.000 A 
ATOM      8  C   UNL     1       1.764   7.584  20.499  0.00  0.00    +0.000 A 
ATOM      9  C   UNL     1       2.369   7.270  19.259  0.00  0.00    +0.000 A 
ATOM     10  C   UNL     1       3.162   6.077  18.893  0.00  0.00    +0.000 C 
ATOM     11  N   UNL     1       2.172   8.241  18.363  0.00  0.00    +0.000 NA
ATOM     12  O   UNL     1       1.443   9.212  19.020  0.00  0.00    +0.000 OA
ENDBRANCH   3   7
BRANCH   1  13
ATOM     13  S   UNL     1      -0.634  13.690  20.891  0.00  0.00    +0.000 S 
ATOM     14  O   UNL     1       0.221  14.493  21.740  0.00  0.00    +0.000 OA
ATOM     15  O   UNL     1      -2.041  14.016  20.744  0.00  0.00    +0.000 OA
BRANCH  13  16
ATOM     16  N   UNL     1       0.046  13.680  19.285  0.00  0.00    +0.000 N 
ATOM     17  C   UNL     1      -0.767  13.021  18.253  0.00  0.00    +0.000 C 
BRANCH  16  23
ATOM     18  C   UNL     1       2.101  15.154  18.791  0.00  0.00    +0.000 A 
ATOM     19  C   UNL     1       2.544  16.390  18.242  0.00  0.00    +0.000 A 
ATOM     20  C   UNL     1       1.657  17.406  17.904  0.00  0.00    +0.000 A 
ATOM     21  C   UNL     1       0.302  17.218  18.107  0.00  0.00    +0.000 A 
ATOM     22  C   UNL     1      -0.164  15.994  18.601  0.00  0.00    +0.000 A 
ATOM     23  C   UNL     1       0.712  14.941  18.936  0.00  0.00    +0.000 A 
BRANCH  18  25
ATOM     24  C   UNL     1       3.830  14.540  20.567  0.00  0.00    +0.000 C 
ATOM     25  C   UNL     1       3.225  14.232  19.210  0.00  0.00    +0.000 C 
ENDBRANCH  18  25
ENDBRANCH  16  23
ENDBRANCH  13  16
ENDBRANCH   1  13
BRANCH   6  26
ATOM     26  O   UNL     1      -1.770  12.442  23.460  0.00  0.00    +0.000 OA
ATOM     27  C   UNL     1      -3.172  12.192  23.532  0.00  0.00    +0.000 C 
ENDBRANCH   6  26
TORSDOF 6
ENDMDL
MODEL 7
REMARK VINA RESULT:      -6.7      1.068      1.107
REMARK  Name = 
REMARK  10 active torsions:
REMARK  status: ('A' for Active; 'I' for Inactive)
REMARK    1  A    between atoms: C_1  and  C_2
REMARK    2  A    between atoms: C_2  and  C_3
REMARK    3  A    between atoms: C_8  and  N_9
REMARK    4  A    between atoms: N_9  and  C_10
REMARK    5  A    between atoms: N_9  and  S_11
REMARK    6  A    between atoms: S_11  and  C_14
REMARK    7  A    between atoms: C_16  and  C_17
REMARK    8  A    between atoms: C_19  and  C_20
REMARK    9  A    between atoms: C_25  and  O_26
REMARK   10  A    between atoms: O_26  and  C_27
REMARK                            x       y       z     vdW  Elec       q    Type
REMARK                         _______ _______ _______ _____ _____    ______ ____
ROOT
ATOM      1  C   UNL     1       5.595   4.614  17.085  0.00  0.00    +0.000 A 
ATOM      2  C   UNL     1       5.276   3.998  15.856  0.00  0.00    +0.000 A 
ATOM      3  C   UNL     1       6.064   4.220  14.713  0.00  0.00    +0.000 A 
ATOM      4  C   UNL     1       7.116   5.137  14.797  0.00  0.00    +0.000 A 
ATOM      5  C   UNL     1       7.413   5.775  15.999  0.00  0.00    +0.000 A 
ATOM      6  C   UNL     1       6.683   5.501  17.164  0.00  0.00    +0.000 A 
ENDROOT
BRANCH   3   7
ATOM      7  C   UNL     1       5.833   3.503  13.472  0.00  0.00    +0.000 A 
ATOM      8  C   UNL     1       6.522   2.577  12.732  0.00  0.00    +0.000 A 
ATOM      9  C   UNL     1       5.736   2.393  11.570  0.00  0.00    +0.000 A 
ATOM     10  C   UNL     1       6.012   1.543  10.392  0.00  0.00    +0.000 C 
ATOM     11  N   UNL     1       4.627   3.138  11.610  0.00  0.00    +0.000 NA
ATOM     12  O   UNL     1       4.688   3.831  12.802  0.00  0.00    +0.000 OA
ENDBRANCH   3   7
BRANCH   1  13
ATOM     13  S   UNL     1       4.511   4.277  18.480  0.00  0.00    +0.000 S 
ATOM     14  O   UNL     1       4.945   5.175  19.530  0.00  0.00    +0.000 OA
ATOM     15  O   UNL     1       4.448   2.846  18.713  0.00  0.00    +0.000 OA
BRANCH  13  16
ATOM     16  N   UNL     1       2.920   4.770  17.965  0.00  0.00    +0.000 N 
ATOM     17  C   UNL     1       2.063   3.701  17.431  0.00  0.00    +0.000 C 
BRANCH  16  23
ATOM     18  C   UNL     1       1.706   5.508  20.115  0.00  0.00    +0.000 A 
ATOM     19  C   UNL     1       1.356   6.619  20.933  0.00  0.00    +0.000 A 
ATOM     20  C   UNL     1       1.532   7.931  20.508  0.00  0.00    +0.000 A 
ATOM     21  C   UNL     1       2.060   8.172  19.253  0.00  0.00    +0.000 A 
ATOM     22  C   UNL     1       2.458   7.098  18.448  0.00  0.00    +0.000 A 
ATOM     23  C   UNL     1       2.307   5.759  18.861  0.00  0.00    +0.000 A 
BRANCH  18  25
ATOM     24  C   UNL     1       2.324   3.589  21.682  0.00  0.00    +0.000 C 
ATOM     25  C   UNL     1       1.320   4.170  20.703  0.00  0.00    +0.000 C 
ENDBRANCH  18  25
ENDBRANCH  16  23
ENDBRANCH  13  16
ENDBRANCH   1  13
BRANCH   6  26
ATOM     26  O   UNL     1       6.980   6.104  18.352  0.00  0.00    +0.000 OA
ATOM     27  C   UNL     1       7.925   7.173  18.318  0.00  0.00    +0.000 C 
ENDBRANCH   6  26
TORSDOF 6
ENDMDL
MODEL 8
REMARK VINA RESULT:      -6.6      2.614      6.674
REMARK  Name = 
REMARK  10 active torsions:
REMARK  status: ('A' for Active; 'I' for Inactive)
REMARK    1  A    between atoms: C_1  and  C_2
REMARK    2  A    between atoms: C_2  and  C_3
REMARK    3  A    between atoms: C_8  and  N_9
REMARK    4  A    between atoms: N_9  and  C_10
REMARK    5  A    between atoms: N_9  and  S_11
REMARK    6  A    between atoms: S_11  and  C_14
REMARK    7  A    between atoms: C_16  and  C_17
REMARK    8  A    between atoms: C_19  and  C_20
REMARK    9  A    between atoms: C_25  and  O_26
REMARK   10  A    between atoms: O_26  and  C_27
REMARK                            x       y       z     vdW  Elec       q    Type
REMARK                         _______ _______ _______ _____ _____    ______ ____
ROOT
ATOM      1  C   UNL     1       2.289   4.596  19.031  0.00  0.00    +0.000 A 
ATOM      2  C   UNL     1       2.070   5.914  18.577  0.00  0.00    +0.000 A 
ATOM      3  C   UNL     1       1.915   6.974  19.487  0.00  0.00    +0.000 A 
ATOM      4  C   UNL     1       1.888   6.680  20.853  0.00  0.00    +0.000 A 
ATOM      5  C   UNL     1       2.067   5.375  21.306  0.00  0.00    +0.000 A 
ATOM      6  C   UNL     1       2.302   4.323  20.410  0.00  0.00    +0.000 A 
ENDROOT
BRANCH   3   7
ATOM      7  C   UNL     1       1.815   8.354  19.048  0.00  0.00    +0.000 A 
ATOM      8  C   UNL     1       1.220   9.494  19.522  0.00  0.00    +0.000 A 
ATOM      9  C   UNL     1       1.450  10.463  18.516  0.00  0.00    +0.000 A 
ATOM     10  C   UNL     1       0.992  11.867  18.463  0.00  0.00    +0.000 C 
ATOM     11  N   UNL     1       2.161   9.954  17.506  0.00  0.00    +0.000 NA
ATOM     12  O   UNL     1       2.392   8.634  17.840  0.00  0.00    +0.000 OA
ENDBRANCH   3   7
BRANCH   1  13
ATOM     13  S   UNL     1       2.456   3.312  17.783  0.00  0.00    +0.000 S 
ATOM     14  O   UNL     1       2.263   3.982  16.513  0.00  0.00    +0.000 OA
ATOM     15  O   UNL     1       1.636   2.171  18.146  0.00  0.00    +0.000 OA
BRANCH  13  16
ATOM     16  N   UNL     1       4.115   2.785  17.873  0.00  0.00    +0.000 N 
ATOM     17  C   UNL     1       4.326   1.331  17.820  0.00  0.00    +0.000 C 
BRANCH  16  23
ATOM     18  C   UNL     1       5.920   4.609  17.631  0.00  0.00    +0.000 A 
ATOM     19  C   UNL     1       6.880   5.188  16.756  0.00  0.00    +0.000 A 
ATOM     20  C   UNL     1       6.928   4.875  15.403  0.00  0.00    +0.000 A 
ATOM     21  C   UNL     1       6.016   3.976  14.883  0.00  0.00    +0.000 A 
ATOM     22  C   UNL     1       5.091   3.353  15.731  0.00  0.00    +0.000 A 
ATOM     23  C   UNL     1       5.032   3.640  17.110  0.00  0.00    +0.000 A 
BRANCH  18  25
ATOM     24  C   UNL     1       7.313   5.644  19.504  0.00  0.00    +0.000 C 
ATOM     25  C   UNL     1       5.949   5.173  19.034  0.00  0.00    +0.000 C 
ENDBRANCH  18  25
ENDBRANCH  16  23
ENDBRANCH  13  16
ENDBRANCH   1  13
BRANCH   6  26
ATOM     26  O   UNL     1       2.501   3.044  20.845  0.00  0.00    +0.000 OA
ATOM     27  C   UNL     1       1.544   2.515  21.761  0.00  0.00    +0.000 C 
ENDBRANCH   6  26
TORSDOF 6
ENDMDL
MODEL 9
REMARK VINA RESULT:      -6.6      2.752      4.898
REMARK  Name = 
REMARK  10 active torsions:
REMARK  status: ('A' for Active; 'I' for Inactive)
REMARK    1  A    between atoms: C_1  and  C_2
REMARK    2  A    between atoms: C_2  and  C_3
REMARK    3  A    between atoms: C_8  and  N_9
REMARK    4  A    between atoms: N_9  and  C_10
REMARK    5  A    between atoms: N_9  and  S_11
REMARK    6  A    between atoms: S_11  and  C_14
REMARK    7  A    between atoms: C_16  and  C_17
REMARK    8  A    between atoms: C_19  and  C_20
REMARK    9  A    between atoms: C_25  and  O_26
REMARK   10  A    between atoms: O_26  and  C_27
REMARK                            x       y       z     vdW  Elec       q    Type
REMARK                         _______ _______ _______ _____ _____    ______ ____
ROOT
ATOM      1  C   UNL     1       5.885   5.235  17.714  0.00  0.00    +0.000 A 
ATOM      2  C   UNL     1       6.520   6.388  18.225  0.00  0.00    +0.000 A 
ATOM      3  C   UNL     1       7.399   7.141  17.427  0.00  0.00    +0.000 A 
ATOM      4  C   UNL     1       7.704   6.671  16.146  0.00  0.00    +0.000 A 
ATOM      5  C   UNL     1       7.108   5.513  15.650  0.00  0.00    +0.000 A 
ATOM      6  C   UNL     1       6.170   4.800  16.408  0.00  0.00    +0.000 A 
ENDROOT
BRANCH   3   7
ATOM      7  C   UNL     1       7.965   8.396  17.885  0.00  0.00    +0.000 A 
ATOM      8  C   UNL     1       7.953   9.696  17.446  0.00  0.00    +0.000 A 
ATOM      9  C   UNL     1       8.811  10.382  18.338  0.00  0.00    +0.000 A 
ATOM     10  C   UNL     1       9.218  11.803  18.321  0.00  0.00    +0.000 C 
ATOM     11  N   UNL     1       9.293   9.560  19.275  0.00  0.00    +0.000 NA
ATOM     12  O   UNL     1       8.762   8.318  18.992  0.00  0.00    +0.000 OA
ENDBRANCH   3   7
BRANCH   1  13
ATOM     13  S   UNL     1       4.795   4.335  18.824  0.00  0.00    +0.000 S 
ATOM     14  O   UNL     1       4.921   4.995  20.107  0.00  0.00    +0.000 OA
ATOM     15  O   UNL     1       5.042   2.910  18.701  0.00  0.00    +0.000 OA
BRANCH  13  16
ATOM     16  N   UNL     1       3.181   4.615  18.225  0.00  0.00    +0.000 N 
ATOM     17  C   UNL     1       2.458   3.423  17.760  0.00  0.00    +0.000 C 
BRANCH  16  23
ATOM     18  C   UNL     1       1.683   5.362  20.183  0.00  0.00    +0.000 A 
ATOM     19  C   UNL     1       1.209   6.478  20.928  0.00  0.00    +0.000 A 
ATOM     20  C   UNL     1       1.417   7.787  20.507  0.00  0.00    +0.000 A 
ATOM     21  C   UNL     1       2.101   8.019  19.329  0.00  0.00    +0.000 A 
ATOM     22  C   UNL     1       2.620   6.941  18.601  0.00  0.00    +0.000 A 
ATOM     23  C   UNL     1       2.439   5.606  19.015  0.00  0.00    +0.000 A 
BRANCH  18  25
ATOM     24  C   UNL     1       2.251   3.358  21.659  0.00  0.00    +0.000 C 
ATOM     25  C   UNL     1       1.246   4.025  20.739  0.00  0.00    +0.000 C 
ENDBRANCH  18  25
ENDBRANCH  16  23
ENDBRANCH  13  16
ENDBRANCH   1  13
BRANCH   6  26
ATOM     26  O   UNL     1       5.564   3.677  15.922  0.00  0.00    +0.000 OA
ATOM     27  C   UNL     1       5.493   3.540  14.504  0.00  0.00    +0.000 C 
ENDBRANCH   6  26
TORSDOF 6
ENDMDL
