MODEL 1
REMARK VINA RESULT:      -7.8      0.000      0.000
REMARK  Name = 
REMARK  7 active torsions:
REMARK  status: ('A' for Active; 'I' for Inactive)
REMARK    1  A    between atoms: C_1  and  C_2
REMARK    2  A    between atoms: C_4  and  N_5
REMARK    3  A    between atoms: C_6  and  C_8
REMARK    4  A    between atoms: C_8  and  N_9
REMARK    5  A    between atoms: C_13  and  C_14
REMARK    6  A    between atoms: C_18  and  C_19
REMARK    7  A    between atoms: N_22  and  C_23
REMARK                            x       y       z     vdW  Elec       q    Type
REMARK                         _______ _______ _______ _____ _____    ______ ____
ROOT
ATOM      1  N   UNL     1       5.896   6.102  17.957  0.00  0.00    +0.000 N 
ATOM      2  N   UNL     1       7.164   6.410  18.323  0.00  0.00    +0.000 NA
ATOM      3  C   UNL     1       7.391   5.512  19.285  0.00  0.00    +0.000 A 
ATOM      4  N   UNL     1       6.320   4.742  19.606  0.00  0.00    +0.000 NA
ATOM      5  C   UNL     1       5.370   5.112  18.766  0.00  0.00    +0.000 A 
ENDROOT
BRANCH   5   6
ATOM      6  C   UNL     1       3.989   4.610  18.790  0.00  0.00    +0.000 A 
ATOM      7  C   UNL     1       3.111   4.732  17.706  0.00  0.00    +0.000 A 
ATOM      8  C   UNL     1       1.787   4.294  17.800  0.00  0.00    +0.000 A 
ATOM      9  C   UNL     1       1.327   3.702  18.974  0.00  0.00    +0.000 A 
ATOM     10  C   UNL     1       2.196   3.532  20.053  0.00  0.00    +0.000 A 
ATOM     11  C   UNL     1       3.524   3.968  19.952  0.00  0.00    +0.000 A 
BRANCH  10  12
ATOM     12  C   UNL     1       1.721   2.936  21.271  0.00  0.00    +0.000 C 
ATOM     13  N   UNL     1       1.363   2.442  22.255  0.00  0.00    +0.000 NA
ENDBRANCH  10  12
ENDBRANCH   5   6
BRANCH   1  14
ATOM     14  C   UNL     1       5.225   6.866  16.927  0.00  0.00    +0.000 C 
BRANCH  14  16
ATOM     15  N   UNL     1       5.940   5.055  15.308  0.00  0.00    +0.000 N 
ATOM     16  C   UNL     1       5.344   6.350  15.523  0.00  0.00    +0.000 C 
ATOM     17  O   UNL     1       5.023   7.054  14.572  0.00  0.00    +0.000 OA
ATOM     18  H   UNL     1       6.085   4.486  16.148  0.00  0.00    +0.000 HD
BRANCH  15  22
ATOM     19  C   UNL     1       5.597   2.067  11.340  0.00  0.00    +0.000 C 
ATOM     20  C   UNL     1       5.989   3.136  12.290  0.00  0.00    +0.000 A 
ATOM     21  C   UNL     1       5.300   3.538  13.452  0.00  0.00    +0.000 A 
ATOM     22  C   UNL     1       6.108   4.468  14.062  0.00  0.00    +0.000 A 
ATOM     23  N   UNL     1       7.139   4.678  13.172  0.00  0.00    +0.000 N 
ATOM     24  C   UNL     1       8.159   5.696  13.202  0.00  0.00    +0.000 C 
ATOM     25  N   UNL     1       7.111   3.840  12.116  0.00  0.00    +0.000 NA
ENDBRANCH  15  22
ENDBRANCH  14  16
ENDBRANCH   1  14
TORSDOF 5
ENDMDL
MODEL 2
REMARK VINA RESULT:      -7.6      3.016      4.046
REMARK  Name = 
REMARK  7 active torsions:
REMARK  status: ('A' for Active; 'I' for Inactive)
REMARK    1  A    between atoms: C_1  and  C_2
REMARK    2  A    between atoms: C_4  and  N_5
REMARK    3  A    between atoms: C_6  and  C_8
REMARK    4  A    between atoms: C_8  and  N_9
REMARK    5  A    between atoms: C_13  and  C_14
REMARK    6  A    between atoms: C_18  and  C_19
REMARK    7  A    between atoms: N_22  and  C_23
REMARK                            x       y       z     vdW  Elec       q    Type
REMARK                         _______ _______ _______ _____ _____    ______ ____
ROOT
ATOM      1  N   UNL     1       3.410   3.513  19.395  0.00  0.00    +0.000 N 
ATOM      2  N   UNL     1       3.125   2.193  19.501  0.00  0.00    +0.000 NA
ATOM      3  C   UNL     1       1.831   2.171  19.170  0.00  0.00    +0.000 A 
ATOM      4  N   UNL     1       1.277   3.394  18.968  0.00  0.00    +0.000 NA
ATOM      5  C   UNL     1       2.275   4.248  19.109  0.00  0.00    +0.000 A 
ENDROOT
BRANCH   5   6
ATOM      6  C   UNL     1       2.137   5.710  19.064  0.00  0.00    +0.000 A 
ATOM      7  C   UNL     1       2.346   6.463  17.902  0.00  0.00    +0.000 A 
ATOM      8  C   UNL     1       2.265   7.859  17.925  0.00  0.00    +0.000 A 
ATOM      9  C   UNL     1       1.945   8.522  19.108  0.00  0.00    +0.000 A 
ATOM     10  C   UNL     1       1.692   7.790  20.268  0.00  0.00    +0.000 A 
ATOM     11  C   UNL     1       1.770   6.390  20.239  0.00  0.00    +0.000 A 
BRANCH  10  12
ATOM     12  C   UNL     1       1.378   8.471  21.493  0.00  0.00    +0.000 C 
ATOM     13  N   UNL     1       1.098   9.017  22.474  0.00  0.00    +0.000 NA
ENDBRANCH  10  12
ENDBRANCH   5   6
BRANCH   1  14
ATOM     14  C   UNL     1       4.739   4.002  19.697  0.00  0.00    +0.000 C 
BRANCH  14  16
ATOM     15  N   UNL     1       5.057   4.466  17.228  0.00  0.00    +0.000 N 
ATOM     16  C   UNL     1       5.645   4.251  18.526  0.00  0.00    +0.000 C 
ATOM     17  O   UNL     1       6.862   4.186  18.656  0.00  0.00    +0.000 OA
ATOM     18  H   UNL     1       4.042   4.611  17.216  0.00  0.00    +0.000 HD
BRANCH  15  22
ATOM     19  C   UNL     1       7.070   4.127  12.686  0.00  0.00    +0.000 C 
ATOM     20  C   UNL     1       6.711   4.563  14.057  0.00  0.00    +0.000 A 
ATOM     21  C   UNL     1       5.632   4.105  14.841  0.00  0.00    +0.000 A 
ATOM     22  C   UNL     1       5.783   4.704  16.069  0.00  0.00    +0.000 A 
ATOM     23  N   UNL     1       6.831   5.584  15.906  0.00  0.00    +0.000 N 
ATOM     24  C   UNL     1       7.285   6.616  16.805  0.00  0.00    +0.000 C 
ATOM     25  N   UNL     1       7.439   5.474  14.708  0.00  0.00    +0.000 NA
ENDBRANCH  15  22
ENDBRANCH  14  16
ENDBRANCH   1  14
TORSDOF 5
ENDMDL
MODEL 3
REMARK VINA RESULT:      -7.6      4.142      6.747
REMARK  Name = 
REMARK  7 active torsions:
REMARK  status: ('A' for Active; 'I' for Inactive)
REMARK    1  A    between atoms: C_1  and  C_2
REMARK    2  A    between atoms: C_4  and  N_5
REMARK    3  A    between atoms: C_6  and  C_8
REMARK    4  A    between atoms: C_8  and  N_9
REMARK    5  A    between atoms: C_13  and  C_14
REMARK    6  A    between atoms: C_18  and  C_19
REMARK    7  A    between atoms: N_22  and  C_23
REMARK                            x       y       z     vdW  Elec       q    Type
REMARK                         _______ _______ _______ _____ _____    ______ ____
ROOT
ATOM      1  N   UNL     1       6.884   6.118  17.020  0.00  0.00    +0.000 N 
ATOM      2  N   UNL     1       7.587   5.555  16.008  0.00  0.00    +0.000 NA
ATOM      3  C   UNL     1       6.609   5.090  15.228  0.00  0.00    +0.000 A 
ATOM      4  N   UNL     1       5.359   5.237  15.738  0.00  0.00    +0.000 NA
ATOM      5  C   UNL     1       5.529   5.889  16.874  0.00  0.00    +0.000 A 
ENDROOT
BRANCH   5   6
ATOM      6  C   UNL     1       4.455   6.202  17.827  0.00  0.00    +0.000 A 
ATOM      7  C   UNL     1       4.168   5.407  18.945  0.00  0.00    +0.000 A 
ATOM      8  C   UNL     1       3.096   5.713  19.788  0.00  0.00    +0.000 A 
ATOM      9  C   UNL     1       2.309   6.836  19.541  0.00  0.00    +0.000 A 
ATOM     10  C   UNL     1       2.602   7.666  18.458  0.00  0.00    +0.000 A 
ATOM     11  C   UNL     1       3.681   7.358  17.618  0.00  0.00    +0.000 A 
BRANCH  10  12
ATOM     12  C   UNL     1       1.784   8.815  18.191  0.00  0.00    +0.000 C 
ATOM     13  N   UNL     1       1.146   9.754  17.964  0.00  0.00    +0.000 NA
ENDBRANCH  10  12
ENDBRANCH   5   6
BRANCH   1  14
ATOM     14  C   UNL     1       7.570   6.740  18.133  0.00  0.00    +0.000 C 
BRANCH  14  16
ATOM     15  N   UNL     1       8.815   8.793  18.937  0.00  0.00    +0.000 N 
ATOM     16  C   UNL     1       7.922   8.191  17.979  0.00  0.00    +0.000 C 
ATOM     17  O   UNL     1       7.390   8.871  17.109  0.00  0.00    +0.000 OA
ATOM     18  H   UNL     1       9.298   8.144  19.567  0.00  0.00    +0.000 HD
BRANCH  15  22
ATOM     19  C   UNL     1      10.663  13.203  17.548  0.00  0.00    +0.000 C 
ATOM     20  C   UNL     1      10.055  12.090  18.317  0.00  0.00    +0.000 A 
ATOM     21  C   UNL     1       9.562  10.872  17.807  0.00  0.00    +0.000 A 
ATOM     22  C   UNL     1       9.216  10.121  18.906  0.00  0.00    +0.000 A 
ATOM     23  N   UNL     1       9.373  10.972  19.979  0.00  0.00    +0.000 N 
ATOM     24  C   UNL     1       8.959  10.779  21.346  0.00  0.00    +0.000 C 
ATOM     25  N   UNL     1       9.931  12.153  19.645  0.00  0.00    +0.000 NA
ENDBRANCH  15  22
ENDBRANCH  14  16
ENDBRANCH   1  14
TORSDOF 5
ENDMDL
MODEL 4
REMARK VINA RESULT:      -7.5      2.707      2.974
REMARK  Name = 
REMARK  7 active torsions:
REMARK  status: ('A' for Active; 'I' for Inactive)
REMARK    1  A    between atoms: C_1  and  C_2
REMARK    2  A    between atoms: C_4  and  N_5
REMARK    3  A    between atoms: C_6  and  C_8
REMARK    4  A    between atoms: C_8  and  N_9
REMARK    5  A    between atoms: C_13  and  C_14
REMARK    6  A    between atoms: C_18  and  C_19
REMARK    7  A    between atoms: N_22  and  C_23
REMARK                            x       y       z     vdW  Elec       q    Type
REMARK                         _______ _______ _______ _____ _____    ______ ____
ROOT
ATOM      1  N   UNL     1       5.002   5.374  18.356  0.00  0.00    +0.000 N 
ATOM      2  N   UNL     1       5.567   4.213  18.765  0.00  0.00    +0.000 NA
ATOM      3  C   UNL     1       4.615   3.716  19.559  0.00  0.00    +0.000 A 
ATOM      4  N   UNL     1       3.550   4.537  19.748  0.00  0.00    +0.000 NA
ATOM      5  C   UNL     1       3.791   5.589  18.986  0.00  0.00    +0.000 A 
ENDROOT
BRANCH   5   6
ATOM      6  C   UNL     1       2.948   6.792  18.929  0.00  0.00    +0.000 A 
ATOM      7  C   UNL     1       2.805   7.572  17.775  0.00  0.00    +0.000 A 
ATOM      8  C   UNL     1       2.041   8.743  17.789  0.00  0.00    +0.000 A 
ATOM      9  C   UNL     1       1.385   9.137  18.953  0.00  0.00    +0.000 A 
ATOM     10  C   UNL     1       1.479   8.353  20.104  0.00  0.00    +0.000 A 
ATOM     11  C   UNL     1       2.243   7.177  20.083  0.00  0.00    +0.000 A 
BRANCH  10  12
ATOM     12  C   UNL     1       0.818   8.764  21.310  0.00  0.00    +0.000 C 
ATOM     13  N   UNL     1       0.307   9.089  22.297  0.00  0.00    +0.000 NA
ENDBRANCH  10  12
ENDBRANCH   5   6
BRANCH   1  14
ATOM     14  C   UNL     1       5.722   6.268  17.473  0.00  0.00    +0.000 C 
BRANCH  14  16
ATOM     15  N   UNL     1       6.223   4.722  15.531  0.00  0.00    +0.000 N 
ATOM     16  C   UNL     1       5.656   5.959  16.006  0.00  0.00    +0.000 C 
ATOM     17  O   UNL     1       5.208   6.783  15.216  0.00  0.00    +0.000 OA
ATOM     18  H   UNL     1       6.482   4.043  16.254  0.00  0.00    +0.000 HD
BRANCH  15  22
ATOM     19  C   UNL     1       5.330   2.351  11.245  0.00  0.00    +0.000 C 
ATOM     20  C   UNL     1       5.863   3.265  12.284  0.00  0.00    +0.000 A 
ATOM     21  C   UNL     1       5.326   3.501  13.566  0.00  0.00    +0.000 A 
ATOM     22  C   UNL     1       6.227   4.321  14.203  0.00  0.00    +0.000 A 
ATOM     23  N   UNL     1       7.153   4.646  13.235  0.00  0.00    +0.000 N 
ATOM     24  C   UNL     1       8.200   5.636  13.289  0.00  0.00    +0.000 C 
ATOM     25  N   UNL     1       6.977   3.973  12.080  0.00  0.00    +0.000 NA
ENDBRANCH  15  22
ENDBRANCH  14  16
ENDBRANCH   1  14
TORSDOF 5
ENDMDL
MODEL 5
REMARK VINA RESULT:      -7.5      3.421      5.947
REMARK  Name = 
REMARK  7 active torsions:
REMARK  status: ('A' for Active; 'I' for Inactive)
REMARK    1  A    between atoms: C_1  and  C_2
REMARK    2  A    between atoms: C_4  and  N_5
REMARK    3  A    between atoms: C_6  and  C_8
REMARK    4  A    between atoms: C_8  and  N_9
REMARK    5  A    between atoms: C_13  and  C_14
REMARK    6  A    between atoms: C_18  and  C_19
REMARK    7  A    between atoms: N_22  and  C_23
REMARK                            x       y       z     vdW  Elec       q    Type
REMARK                         _______ _______ _______ _____ _____    ______ ____
ROOT
ATOM      1  N   UNL     1       5.445   5.854  17.819  0.00  0.00    +0.000 N 
ATOM      2  N   UNL     1       6.556   6.580  18.090  0.00  0.00    +0.000 NA
ATOM      3  C   UNL     1       7.203   5.774  18.936  0.00  0.00    +0.000 A 
ATOM      4  N   UNL     1       6.520   4.653  19.283  0.00  0.00    +0.000 NA
ATOM      5  C   UNL     1       5.406   4.699  18.577  0.00  0.00    +0.000 A 
ENDROOT
BRANCH   5   6
ATOM      6  C   UNL     1       4.305   3.731  18.685  0.00  0.00    +0.000 A 
ATOM      7  C   UNL     1       3.889   2.923  17.619  0.00  0.00    +0.000 A 
ATOM      8  C   UNL     1       2.796   2.062  17.754  0.00  0.00    +0.000 A 
ATOM      9  C   UNL     1       2.118   1.976  18.968  0.00  0.00    +0.000 A 
ATOM     10  C   UNL     1       2.541   2.740  20.056  0.00  0.00    +0.000 A 
ATOM     11  C   UNL     1       3.641   3.599  19.917  0.00  0.00    +0.000 A 
BRANCH  10  12
ATOM     12  C   UNL     1       1.834   2.667  21.304  0.00  0.00    +0.000 C 
ATOM     13  N   UNL     1       1.278   2.584  22.316  0.00  0.00    +0.000 NA
ENDBRANCH  10  12
ENDBRANCH   5   6
BRANCH   1  14
ATOM     14  C   UNL     1       4.426   6.378  16.934  0.00  0.00    +0.000 C 
BRANCH  14  16
ATOM     15  N   UNL     1       3.030   8.216  17.977  0.00  0.00    +0.000 N 
ATOM     16  C   UNL     1       3.149   6.836  17.577  0.00  0.00    +0.000 C 
ATOM     17  O   UNL     1       2.260   6.033  17.837  0.00  0.00    +0.000 OA
ATOM     18  H   UNL     1       3.763   8.844  17.635  0.00  0.00    +0.000 HD
BRANCH  15  22
ATOM     19  C   UNL     1      -0.926  11.039  19.059  0.00  0.00    +0.000 C 
ATOM     20  C   UNL     1       0.152  10.021  19.095  0.00  0.00    +0.000 A 
ATOM     21  C   UNL     1       0.998   9.639  18.035  0.00  0.00    +0.000 A 
ATOM     22  C   UNL     1       1.906   8.761  18.580  0.00  0.00    +0.000 A 
ATOM     23  N   UNL     1       1.467   8.556  19.871  0.00  0.00    +0.000 N 
ATOM     24  C   UNL     1       1.918   7.577  20.828  0.00  0.00    +0.000 C 
ATOM     25  N   UNL     1       0.435   9.352  20.216  0.00  0.00    +0.000 NA
ENDBRANCH  15  22
ENDBRANCH  14  16
ENDBRANCH   1  14
TORSDOF 5
ENDMDL
MODEL 6
REMARK VINA RESULT:      -7.5      3.891      6.340
REMARK  Name = 
REMARK  7 active torsions:
REMARK  status: ('A' for Active; 'I' for Inactive)
REMARK    1  A    between atoms: C_1  and  C_2
REMARK    2  A    between atoms: C_4  and  N_5
REMARK    3  A    between atoms: C_6  and  C_8
REMARK    4  A    between atoms: C_8  and  N_9
REMARK    5  A    between atoms: C_13  and  C_14
REMARK    6  A    between atoms: C_18  and  C_19
REMARK    7  A    between atoms: N_22  and  C_23
REMARK                            x       y       z     vdW  Elec       q    Type
REMARK                         _______ _______ _______ _____ _____    ______ ____
ROOT
ATOM      1  N   UNL     1       6.833   6.131  17.009  0.00  0.00    +0.000 N 
ATOM      2  N   UNL     1       7.587   5.525  16.060  0.00  0.00    +0.000 NA
ATOM      3  C   UNL     1       6.651   5.064  15.226  0.00  0.00    +0.000 A 
ATOM      4  N   UNL     1       5.374   5.255  15.649  0.00  0.00    +0.000 NA
ATOM      5  C   UNL     1       5.485   5.931  16.777  0.00  0.00    +0.000 A 
ENDROOT
BRANCH   5   6
ATOM      6  C   UNL     1       4.360   6.294  17.650  0.00  0.00    +0.000 A 
ATOM      7  C   UNL     1       3.666   7.505  17.540  0.00  0.00    +0.000 A 
ATOM      8  C   UNL     1       2.642   7.831  18.435  0.00  0.00    +0.000 A 
ATOM      9  C   UNL     1       2.279   6.936  19.438  0.00  0.00    +0.000 A 
ATOM     10  C   UNL     1       2.928   5.705  19.541  0.00  0.00    +0.000 A 
ATOM     11  C   UNL     1       3.950   5.381  18.639  0.00  0.00    +0.000 A 
BRANCH  10  12
ATOM     12  C   UNL     1       2.567   4.787  20.585  0.00  0.00    +0.000 C 
ATOM     13  N   UNL     1       2.249   4.047  21.417  0.00  0.00    +0.000 NA
ENDBRANCH  10  12
ENDBRANCH   5   6
BRANCH   1  14
ATOM     14  C   UNL     1       7.461   6.763  18.150  0.00  0.00    +0.000 C 
BRANCH  14  16
ATOM     15  N   UNL     1       8.785   8.774  18.934  0.00  0.00    +0.000 N 
ATOM     16  C   UNL     1       7.869   8.198  17.983  0.00  0.00    +0.000 C 
ATOM     17  O   UNL     1       7.363   8.890  17.106  0.00  0.00    +0.000 OA
ATOM     18  H   UNL     1       9.243   8.113  19.569  0.00  0.00    +0.000 HD
BRANCH  15  22
ATOM     19  C   UNL     1      10.825  13.088  17.514  0.00  0.00    +0.000 C 
ATOM     20  C   UNL     1      10.161  12.012  18.288  0.00  0.00    +0.000 A 
ATOM     21  C   UNL     1       9.632  10.805  17.788  0.00  0.00    +0.000 A 
ATOM     22  C   UNL     1       9.237  10.085  18.891  0.00  0.00    +0.000 A 
ATOM     23  N   UNL     1       9.406  10.947  19.953  0.00  0.00    +0.000 N 
ATOM     24  C   UNL     1       8.959  10.792  21.315  0.00  0.00    +0.000 C 
ATOM     25  N   UNL     1      10.014  12.100  19.613  0.00  0.00    +0.000 NA
ENDBRANCH  15  22
ENDBRANCH  14  16
ENDBRANCH   1  14
TORSDOF 5
ENDMDL
MODEL 7
REMARK VINA RESULT:      -7.4      2.857      4.382
REMARK  Name = 
REMARK  7 active torsions:
REMARK  status: ('A' for Active; 'I' for Inactive)
REMARK    1  A    between atoms: C_1  and  C_2
REMARK    2  A    between atoms: C_4  and  N_5
REMARK    3  A    between atoms: C_6  and  C_8
REMARK    4  A    between atoms: C_8  and  N_9
REMARK    5  A    between atoms: C_13  and  C_14
REMARK    6  A    between atoms: C_18  and  C_19
REMARK    7  A    between atoms: N_22  and  C_23
REMARK                            x       y       z     vdW  Elec       q    Type
REMARK                         _______ _______ _______ _____ _____    ______ ____
ROOT
ATOM      1  N   UNL     1       3.331   3.260  18.977  0.00  0.00    +0.000 N 
ATOM      2  N   UNL     1       3.066   1.982  18.618  0.00  0.00    +0.000 NA
ATOM      3  C   UNL     1       1.757   2.042  18.357  0.00  0.00    +0.000 A 
ATOM      4  N   UNL     1       1.181   3.241  18.629  0.00  0.00    +0.000 NA
ATOM      5  C   UNL     1       2.175   4.016  19.021  0.00  0.00    +0.000 A 
ENDROOT
BRANCH   5   6
ATOM      6  C   UNL     1       2.020   5.395  19.507  0.00  0.00    +0.000 A 
ATOM      7  C   UNL     1       1.665   5.707  20.825  0.00  0.00    +0.000 A 
ATOM      8  C   UNL     1       1.468   7.032  21.223  0.00  0.00    +0.000 A 
ATOM      9  C   UNL     1       1.651   8.070  20.312  0.00  0.00    +0.000 A 
ATOM     10  C   UNL     1       2.046   7.787  19.004  0.00  0.00    +0.000 A 
ATOM     11  C   UNL     1       2.246   6.456  18.612  0.00  0.00    +0.000 A 
BRANCH  10  12
ATOM     12  C   UNL     1       2.220   8.853  18.058  0.00  0.00    +0.000 C 
ATOM     13  N   UNL     1       2.386   9.704  17.291  0.00  0.00    +0.000 NA
ENDBRANCH  10  12
ENDBRANCH   5   6
BRANCH   1  14
ATOM     14  C   UNL     1       4.669   3.647  19.375  0.00  0.00    +0.000 C 
BRANCH  14  16
ATOM     15  N   UNL     1       5.088   4.213  16.943  0.00  0.00    +0.000 N 
ATOM     16  C   UNL     1       5.612   4.032  18.273  0.00  0.00    +0.000 C 
ATOM     17  O   UNL     1       6.818   4.105  18.484  0.00  0.00    +0.000 OA
ATOM     18  H   UNL     1       4.066   4.239  16.866  0.00  0.00    +0.000 HD
BRANCH  15  22
ATOM     19  C   UNL     1       7.360   4.269  12.513  0.00  0.00    +0.000 C 
ATOM     20  C   UNL     1       6.896   4.603  13.881  0.00  0.00    +0.000 A 
ATOM     21  C   UNL     1       5.815   4.025  14.578  0.00  0.00    +0.000 A 
ATOM     22  C   UNL     1       5.854   4.567  15.841  0.00  0.00    +0.000 A 
ATOM     23  N   UNL     1       6.838   5.530  15.782  0.00  0.00    +0.000 N 
ATOM     24  C   UNL     1       7.162   6.544  16.754  0.00  0.00    +0.000 C 
ATOM     25  N   UNL     1       7.515   5.529  14.617  0.00  0.00    +0.000 NA
ENDBRANCH  15  22
ENDBRANCH  14  16
ENDBRANCH   1  14
TORSDOF 5
ENDMDL
MODEL 8
REMARK VINA RESULT:      -7.4      1.952      2.413
REMARK  Name = 
REMARK  7 active torsions:
REMARK  status: ('A' for Active; 'I' for Inactive)
REMARK    1  A    between atoms: C_1  and  C_2
REMARK    2  A    between atoms: C_4  and  N_5
REMARK    3  A    between atoms: C_6  and  C_8
REMARK    4  A    between atoms: C_8  and  N_9
REMARK    5  A    between atoms: C_13  and  C_14
REMARK    6  A    between atoms: C_18  and  C_19
REMARK    7  A    between atoms: N_22  and  C_23
REMARK                            x       y       z     vdW  Elec       q    Type
REMARK                         _______ _______ _______ _____ _____    ______ ____
ROOT
ATOM      1  N   UNL     1       4.764   6.436  17.694  0.00  0.00    +0.000 N 
ATOM      2  N   UNL     1       4.449   7.723  17.412  0.00  0.00    +0.000 NA
ATOM      3  C   UNL     1       3.131   7.730  17.629  0.00  0.00    +0.000 A 
ATOM      4  N   UNL     1       2.599   6.516  17.924  0.00  0.00    +0.000 NA
ATOM      5  C   UNL     1       3.631   5.693  17.968  0.00  0.00    +0.000 A 
ENDROOT
BRANCH   5   6
ATOM      6  C   UNL     1       3.536   4.241  18.170  0.00  0.00    +0.000 A 
ATOM      7  C   UNL     1       2.734   3.408  17.379  0.00  0.00    +0.000 A 
ATOM      8  C   UNL     1       2.628   2.042  17.652  0.00  0.00    +0.000 A 
ATOM      9  C   UNL     1       3.346   1.480  18.705  0.00  0.00    +0.000 A 
ATOM     10  C   UNL     1       4.184   2.282  19.481  0.00  0.00    +0.000 A 
ATOM     11  C   UNL     1       4.290   3.652  19.201  0.00  0.00    +0.000 A 
BRANCH  10  12
ATOM     12  C   UNL     1       4.913   1.710  20.578  0.00  0.00    +0.000 C 
ATOM     13  N   UNL     1       5.479   1.252  21.478  0.00  0.00    +0.000 NA
ENDBRANCH  10  12
ENDBRANCH   5   6
BRANCH   1  14
ATOM     14  C   UNL     1       6.129   5.971  17.564  0.00  0.00    +0.000 C 
BRANCH  14  16
ATOM     15  N   UNL     1       5.877   5.456  15.098  0.00  0.00    +0.000 N 
ATOM     16  C   UNL     1       6.432   5.101  16.380  0.00  0.00    +0.000 C 
ATOM     17  O   UNL     1       7.066   4.060  16.518  0.00  0.00    +0.000 OA
ATOM     18  H   UNL     1       5.451   6.386  15.039  0.00  0.00    +0.000 HD
BRANCH  15  22
ATOM     19  C   UNL     1       5.578   2.100  11.432  0.00  0.00    +0.000 C 
ATOM     20  C   UNL     1       5.981   3.236  12.295  0.00  0.00    +0.000 A 
ATOM     21  C   UNL     1       5.252   3.795  13.364  0.00  0.00    +0.000 A 
ATOM     22  C   UNL     1       6.080   4.735  13.930  0.00  0.00    +0.000 A 
ATOM     23  N   UNL     1       7.173   4.792  13.092  0.00  0.00    +0.000 N 
ATOM     24  C   UNL     1       8.252   5.748  13.088  0.00  0.00    +0.000 C 
ATOM     25  N   UNL     1       7.154   3.853  12.125  0.00  0.00    +0.000 NA
ENDBRANCH  15  22
ENDBRANCH  14  16
ENDBRANCH   1  14
TORSDOF 5
ENDMDL
MODEL 9
REMARK VINA RESULT:      -7.4      1.576      1.997
REMARK  Name = 
REMARK  7 active torsions:
REMARK  status: ('A' for Active; 'I' for Inactive)
REMARK    1  A    between atoms: C_1  and  C_2
REMARK    2  A    between atoms: C_4  and  N_5
REMARK    3  A    between atoms: C_6  and  C_8
REMARK    4  A    between atoms: C_8  and  N_9
REMARK    5  A    between atoms: C_13  and  C_14
REMARK    6  A    between atoms: C_18  and  C_19
REMARK    7  A    between atoms: N_22  and  C_23
REMARK                            x       y       z     vdW  Elec       q    Type
REMARK                         _______ _______ _______ _____ _____    ______ ____
ROOT
ATOM      1  N   UNL     1       5.101   6.248  17.686  0.00  0.00    +0.000 N 
ATOM      2  N   UNL     1       5.042   7.531  17.254  0.00  0.00    +0.000 NA
ATOM      3  C   UNL     1       3.744   7.806  17.406  0.00  0.00    +0.000 A 
ATOM      4  N   UNL     1       2.985   6.753  17.804  0.00  0.00    +0.000 NA
ATOM      5  C   UNL     1       3.841   5.764  17.983  0.00  0.00    +0.000 A 
ENDROOT
BRANCH   5   6
ATOM      6  C   UNL     1       3.466   4.387  18.335  0.00  0.00    +0.000 A 
ATOM      7  C   UNL     1       3.587   3.310  17.447  0.00  0.00    +0.000 A 
ATOM      8  C   UNL     1       3.158   2.029  17.807  0.00  0.00    +0.000 A 
ATOM      9  C   UNL     1       2.627   1.800  19.074  0.00  0.00    +0.000 A 
ATOM     10  C   UNL     1       2.536   2.848  19.991  0.00  0.00    +0.000 A 
ATOM     11  C   UNL     1       2.971   4.130  19.626  0.00  0.00    +0.000 A 
BRANCH  10  12
ATOM     12  C   UNL     1       1.974   2.619  21.292  0.00  0.00    +0.000 C 
ATOM     13  N   UNL     1       1.501   2.453  22.336  0.00  0.00    +0.000 NA
ENDBRANCH  10  12
ENDBRANCH   5   6
BRANCH   1  14
ATOM     14  C   UNL     1       6.356   5.527  17.671  0.00  0.00    +0.000 C 
BRANCH  14  16
ATOM     15  N   UNL     1       5.866   5.015  15.239  0.00  0.00    +0.000 N 
ATOM     16  C   UNL     1       6.713   4.828  16.391  0.00  0.00    +0.000 C 
ATOM     17  O   UNL     1       7.656   4.045  16.352  0.00  0.00    +0.000 OA
ATOM     18  H   UNL     1       5.166   5.758  15.316  0.00  0.00    +0.000 HD
BRANCH  15  22
ATOM     19  C   UNL     1       5.705   2.007  11.274  0.00  0.00    +0.000 C 
ATOM     20  C   UNL     1       6.049   3.085  12.233  0.00  0.00    +0.000 A 
ATOM     21  C   UNL     1       5.314   3.481  13.368  0.00  0.00    +0.000 A 
ATOM     22  C   UNL     1       6.087   4.426  14.002  0.00  0.00    +0.000 A 
ATOM     23  N   UNL     1       7.145   4.647  13.148  0.00  0.00    +0.000 N 
ATOM     24  C   UNL     1       8.149   5.680  13.210  0.00  0.00    +0.000 C 
ATOM     25  N   UNL     1       7.166   3.805  12.095  0.00  0.00    +0.000 NA
ENDBRANCH  15  22
ENDBRANCH  14  16
ENDBRANCH   1  14
TORSDOF 5
ENDMDL
