MODEL 1
REMARK VINA RESULT:      -7.7      0.000      0.000
REMARK  Name = 
REMARK  4 active torsions:
REMARK  status: ('A' for Active; 'I' for Inactive)
REMARK    1  A    between atoms: C_7  and  C_8
REMARK    2  A    between atoms: C_12  and  N_13
REMARK    3  A    between atoms: N_13  and  C_14
REMARK    4  A    between atoms: C_14  and  C_15
REMARK                            x       y       z     vdW  Elec       q    Type
REMARK                         _______ _______ _______ _____ _____    ______ ____
ROOT
ATOM      1  C   UNL     1       4.574   5.627  17.444  0.00  0.00    +0.000 A 
ATOM      2  C   UNL     1       4.609   6.622  16.441  0.00  0.00    +0.000 A 
ATOM      3  N   UNL     1       5.693   7.400  16.498  0.00  0.00    +0.000 NA
ATOM      4  N   UNL     1       6.416   6.883  17.533  0.00  0.00    +0.000 N 
ATOM      5  C   UNL     1       7.675   7.338  18.011  0.00  0.00    +0.000 A 
ATOM      6  C   UNL     1       8.255   6.670  19.021  0.00  0.00    +0.000 A 
ATOM      7  C   UNL     1       7.499   5.515  19.563  0.00  0.00    +0.000 A 
ATOM      8  N   UNL     1       6.342   5.092  19.159  0.00  0.00    +0.000 NA
ATOM      9  C   UNL     1       5.775   5.784  18.119  0.00  0.00    +0.000 A 
ENDROOT
BRANCH   1  16
ATOM     10  F   UNL     1       4.809   2.893  16.684  0.00  0.00    +0.000 F 
ATOM     11  C   UNL     1       3.715   3.289  17.356  0.00  0.00    +0.000 A 
ATOM     12  C   UNL     1       2.747   2.329  17.649  0.00  0.00    +0.000 A 
ATOM     13  C   UNL     1       1.593   2.691  18.343  0.00  0.00    +0.000 A 
ATOM     14  C   UNL     1       1.414   4.015  18.737  0.00  0.00    +0.000 A 
ATOM     15  C   UNL     1       2.388   4.973  18.437  0.00  0.00    +0.000 A 
ATOM     16  C   UNL     1       3.563   4.624  17.751  0.00  0.00    +0.000 A 
ENDBRANCH   1  16
BRANCH   5  17
ATOM     17  N   UNL     1       8.243   8.486  17.433  0.00  0.00    +0.000 N 
ATOM     18  H   UNL     1       9.260   8.370  17.468  0.00  0.00    +0.000 HD
BRANCH  17  19
ATOM     19  C   UNL     1       7.950   9.808  18.005  0.00  0.00    +0.000 C 
BRANCH  19  20
ATOM     20  C   UNL     1       9.172  10.537  18.482  0.00  0.00    +0.000 A 
ATOM     21  C   UNL     1      10.228  11.022  17.734  0.00  0.00    +0.000 A 
ATOM     22  C   UNL     1      11.211  11.671  18.537  0.00  0.00    +0.000 A 
ATOM     23  C   UNL     1      10.874  11.658  19.872  0.00  0.00    +0.000 A 
ATOM     24  S   UNL     1       9.387  10.862  20.151  0.00  0.00    +0.000 S 
ENDBRANCH  19  20
ENDBRANCH  17  19
ENDBRANCH   5  17
TORSDOF 4
ENDMDL
MODEL 2
REMARK VINA RESULT:      -7.6      5.550      7.704
REMARK  Name = 
REMARK  4 active torsions:
REMARK  status: ('A' for Active; 'I' for Inactive)
REMARK    1  A    between atoms: C_7  and  C_8
REMARK    2  A    between atoms: C_12  and  N_13
REMARK    3  A    between atoms: N_13  and  C_14
REMARK    4  A    between atoms: C_14  and  C_15
REMARK                            x       y       z     vdW  Elec       q    Type
REMARK                         _______ _______ _______ _____ _____    ______ ____
ROOT
ATOM      1  C   UNL     1       2.634   7.121  18.439  0.00  0.00    +0.000 A 
ATOM      2  C   UNL     1       2.667   8.069  17.390  0.00  0.00    +0.000 A 
ATOM      3  N   UNL     1       2.020   9.202  17.674  0.00  0.00    +0.000 NA
ATOM      4  N   UNL     1       1.585   9.022  18.954  0.00  0.00    +0.000 N 
ATOM      5  C   UNL     1       0.847   9.942  19.747  0.00  0.00    +0.000 A 
ATOM      6  C   UNL     1       0.543   9.599  21.009  0.00  0.00    +0.000 A 
ATOM      7  C   UNL     1       0.998   8.259  21.453  0.00  0.00    +0.000 A 
ATOM      8  N   UNL     1       1.656   7.395  20.745  0.00  0.00    +0.000 NA
ATOM      9  C   UNL     1       1.963   7.771  19.463  0.00  0.00    +0.000 A 
ENDROOT
BRANCH   1  16
ATOM     10  F   UNL     1       1.271   4.844  17.406  0.00  0.00    +0.000 F 
ATOM     11  C   UNL     1       2.467   4.674  17.994  0.00  0.00    +0.000 A 
ATOM     12  C   UNL     1       2.981   3.380  18.066  0.00  0.00    +0.000 A 
ATOM     13  C   UNL     1       4.217   3.152  18.668  0.00  0.00    +0.000 A 
ATOM     14  C   UNL     1       4.931   4.223  19.200  0.00  0.00    +0.000 A 
ATOM     15  C   UNL     1       4.408   5.518  19.128  0.00  0.00    +0.000 A 
ATOM     16  C   UNL     1       3.171   5.768  18.512  0.00  0.00    +0.000 A 
ENDBRANCH   1  16
BRANCH   5  17
ATOM     17  N   UNL     1       0.433  11.153  19.168  0.00  0.00    +0.000 N 
ATOM     18  H   UNL     1       1.039  11.889  19.544  0.00  0.00    +0.000 HD
BRANCH  17  19
ATOM     19  C   UNL     1      -0.951  11.612  19.352  0.00  0.00    +0.000 C 
BRANCH  19  20
ATOM     20  C   UNL     1      -1.900  11.078  18.320  0.00  0.00    +0.000 A 
ATOM     21  C   UNL     1      -1.651  10.156  17.320  0.00  0.00    +0.000 A 
ATOM     22  C   UNL     1      -2.806   9.885  16.531  0.00  0.00    +0.000 A 
ATOM     23  C   UNL     1      -3.898  10.609  16.952  0.00  0.00    +0.000 A 
ATOM     24  S   UNL     1      -3.528  11.614  18.285  0.00  0.00    +0.000 S 
ENDBRANCH  19  20
ENDBRANCH  17  19
ENDBRANCH   5  17
TORSDOF 4
ENDMDL
MODEL 3
REMARK VINA RESULT:      -7.6      1.291      1.660
REMARK  Name = 
REMARK  4 active torsions:
REMARK  status: ('A' for Active; 'I' for Inactive)
REMARK    1  A    between atoms: C_7  and  C_8
REMARK    2  A    between atoms: C_12  and  N_13
REMARK    3  A    between atoms: N_13  and  C_14
REMARK    4  A    between atoms: C_14  and  C_15
REMARK                            x       y       z     vdW  Elec       q    Type
REMARK                         _______ _______ _______ _____ _____    ______ ____
ROOT
ATOM      1  C   UNL     1       4.463   5.418  17.598  0.00  0.00    +0.000 A 
ATOM      2  C   UNL     1       4.505   6.318  16.509  0.00  0.00    +0.000 A 
ATOM      3  N   UNL     1       5.600   7.083  16.491  0.00  0.00    +0.000 NA
ATOM      4  N   UNL     1       6.321   6.652  17.566  0.00  0.00    +0.000 N 
ATOM      5  C   UNL     1       7.589   7.130  17.996  0.00  0.00    +0.000 A 
ATOM      6  C   UNL     1       8.165   6.549  19.060  0.00  0.00    +0.000 A 
ATOM      7  C   UNL     1       7.397   5.458  19.707  0.00  0.00    +0.000 A 
ATOM      8  N   UNL     1       6.232   5.015  19.347  0.00  0.00    +0.000 NA
ATOM      9  C   UNL     1       5.669   5.619  18.252  0.00  0.00    +0.000 A 
ENDROOT
BRANCH   1  16
ATOM     10  F   UNL     1       2.582   5.921  19.676  0.00  0.00    +0.000 F 
ATOM     11  C   UNL     1       2.535   4.745  19.028  0.00  0.00    +0.000 A 
ATOM     12  C   UNL     1       1.557   3.828  19.410  0.00  0.00    +0.000 A 
ATOM     13  C   UNL     1       1.469   2.593  18.769  0.00  0.00    +0.000 A 
ATOM     14  C   UNL     1       2.365   2.282  17.748  0.00  0.00    +0.000 A 
ATOM     15  C   UNL     1       3.346   3.206  17.372  0.00  0.00    +0.000 A 
ATOM     16  C   UNL     1       3.440   4.460  17.998  0.00  0.00    +0.000 A 
ENDBRANCH   1  16
BRANCH   5  17
ATOM     17  N   UNL     1       8.169   8.214  17.315  0.00  0.00    +0.000 N 
ATOM     18  H   UNL     1       9.169   8.206  17.532  0.00  0.00    +0.000 HD
BRANCH  17  19
ATOM     19  C   UNL     1       7.691   9.579  17.580  0.00  0.00    +0.000 C 
BRANCH  19  20
ATOM     20  C   UNL     1       8.680  10.424  18.327  0.00  0.00    +0.000 A 
ATOM     21  C   UNL     1       9.461  10.074  19.413  0.00  0.00    +0.000 A 
ATOM     22  C   UNL     1      10.293  11.145  19.852  0.00  0.00    +0.000 A 
ATOM     23  C   UNL     1      10.119  12.277  19.089  0.00  0.00    +0.000 A 
ATOM     24  S   UNL     1       8.955  12.050  17.857  0.00  0.00    +0.000 S 
ENDBRANCH  19  20
ENDBRANCH  17  19
ENDBRANCH   5  17
TORSDOF 4
ENDMDL
MODEL 4
REMARK VINA RESULT:      -7.4      1.115      1.246
REMARK  Name = 
REMARK  4 active torsions:
REMARK  status: ('A' for Active; 'I' for Inactive)
REMARK    1  A    between atoms: C_7  and  C_8
REMARK    2  A    between atoms: C_12  and  N_13
REMARK    3  A    between atoms: N_13  and  C_14
REMARK    4  A    between atoms: C_14  and  C_15
REMARK                            x       y       z     vdW  Elec       q    Type
REMARK                         _______ _______ _______ _____ _____    ______ ____
ROOT
ATOM      1  C   UNL     1       4.181   5.476  18.265  0.00  0.00    +0.000 A 
ATOM      2  C   UNL     1       4.072   6.376  17.181  0.00  0.00    +0.000 A 
ATOM      3  N   UNL     1       5.189   7.072  16.951  0.00  0.00    +0.000 NA
ATOM      4  N   UNL     1       6.072   6.592  17.873  0.00  0.00    +0.000 N 
ATOM      5  C   UNL     1       7.425   6.990  18.052  0.00  0.00    +0.000 A 
ATOM      6  C   UNL     1       8.154   6.369  18.993  0.00  0.00    +0.000 A 
ATOM      7  C   UNL     1       7.456   5.325  19.782  0.00  0.00    +0.000 A 
ATOM      8  N   UNL     1       6.220   4.957  19.651  0.00  0.00    +0.000 NA
ATOM      9  C   UNL     1       5.498   5.598  18.677  0.00  0.00    +0.000 A 
ENDROOT
BRANCH   1  16
ATOM     10  F   UNL     1       4.004   2.706  17.626  0.00  0.00    +0.000 F 
ATOM     11  C   UNL     1       3.139   3.225  18.514  0.00  0.00    +0.000 A 
ATOM     12  C   UNL     1       2.195   2.369  19.081  0.00  0.00    +0.000 A 
ATOM     13  C   UNL     1       1.275   2.860  20.006  0.00  0.00    +0.000 A 
ATOM     14  C   UNL     1       1.304   4.208  20.356  0.00  0.00    +0.000 A 
ATOM     15  C   UNL     1       2.251   5.061  19.781  0.00  0.00    +0.000 A 
ATOM     16  C   UNL     1       3.195   4.581  18.857  0.00  0.00    +0.000 A 
ENDBRANCH   1  16
BRANCH   5  17
ATOM     17  N   UNL     1       7.931   8.038  17.266  0.00  0.00    +0.000 N 
ATOM     18  H   UNL     1       8.950   8.028  17.370  0.00  0.00    +0.000 HD
BRANCH  17  19
ATOM     19  C   UNL     1       7.496   9.418  17.527  0.00  0.00    +0.000 C 
BRANCH  19  20
ATOM     20  C   UNL     1       8.522  10.243  18.248  0.00  0.00    +0.000 A 
ATOM     21  C   UNL     1       9.344   9.867  19.294  0.00  0.00    +0.000 A 
ATOM     22  C   UNL     1      10.202  10.924  19.717  0.00  0.00    +0.000 A 
ATOM     23  C   UNL     1      10.005  12.071  18.982  0.00  0.00    +0.000 A 
ATOM     24  S   UNL     1       8.790  11.875  17.796  0.00  0.00    +0.000 S 
ENDBRANCH  19  20
ENDBRANCH  17  19
ENDBRANCH   5  17
TORSDOF 4
ENDMDL
MODEL 5
REMARK VINA RESULT:      -7.3      5.809      8.723
REMARK  Name = 
REMARK  4 active torsions:
REMARK  status: ('A' for Active; 'I' for Inactive)
REMARK    1  A    between atoms: C_7  and  C_8
REMARK    2  A    between atoms: C_12  and  N_13
REMARK    3  A    between atoms: N_13  and  C_14
REMARK    4  A    between atoms: C_14  and  C_15
REMARK                            x       y       z     vdW  Elec       q    Type
REMARK                         _______ _______ _______ _____ _____    ______ ____
ROOT
ATOM      1  C   UNL     1       0.843   9.956  20.078  0.00  0.00    +0.000 A 
ATOM      2  C   UNL     1       0.674   9.398  21.366  0.00  0.00    +0.000 A 
ATOM      3  N   UNL     1       1.171   8.164  21.482  0.00  0.00    +0.000 NA
ATOM      4  N   UNL     1       1.720   7.913  20.259  0.00  0.00    +0.000 N 
ATOM      5  C   UNL     1       2.398   6.733  19.848  0.00  0.00    +0.000 A 
ATOM      6  C   UNL     1       2.910   6.688  18.608  0.00  0.00    +0.000 A 
ATOM      7  C   UNL     1       2.695   7.889  17.765  0.00  0.00    +0.000 A 
ATOM      8  N   UNL     1       2.066   8.969  18.109  0.00  0.00    +0.000 NA
ATOM      9  C   UNL     1       1.560   8.996  19.383  0.00  0.00    +0.000 A 
ENDROOT
BRANCH   1  16
ATOM     10  F   UNL     1      -1.436  10.252  18.396  0.00  0.00    +0.000 F 
ATOM     11  C   UNL     1      -0.714  11.341  18.710  0.00  0.00    +0.000 A 
ATOM     12  C   UNL     1      -1.126  12.568  18.191  0.00  0.00    +0.000 A 
ATOM     13  C   UNL     1      -0.409  13.727  18.486  0.00  0.00    +0.000 A 
ATOM     14  C   UNL     1       0.720  13.649  19.298  0.00  0.00    +0.000 A 
ATOM     15  C   UNL     1       1.130  12.414  19.812  0.00  0.00    +0.000 A 
ATOM     16  C   UNL     1       0.411  11.239  19.536  0.00  0.00    +0.000 A 
ENDBRANCH   1  16
BRANCH   5  17
ATOM     17  N   UNL     1       2.471   5.651  20.741  0.00  0.00    +0.000 N 
ATOM     18  H   UNL     1       3.430   5.293  20.703  0.00  0.00    +0.000 HD
BRANCH  17  19
ATOM     19  C   UNL     1       1.583   4.494  20.557  0.00  0.00    +0.000 C 
BRANCH  19  20
ATOM     20  C   UNL     1       2.126   3.470  19.604  0.00  0.00    +0.000 A 
ATOM     21  C   UNL     1       1.594   3.054  18.397  0.00  0.00    +0.000 A 
ATOM     22  C   UNL     1       2.398   2.063  17.763  0.00  0.00    +0.000 A 
ATOM     23  C   UNL     1       3.515   1.753  18.506  0.00  0.00    +0.000 A 
ATOM     24  S   UNL     1       3.587   2.647  19.961  0.00  0.00    +0.000 S 
ENDBRANCH  19  20
ENDBRANCH  17  19
ENDBRANCH   5  17
TORSDOF 4
ENDMDL
MODEL 6
REMARK VINA RESULT:      -7.2      4.931      7.088
REMARK  Name = 
REMARK  4 active torsions:
REMARK  status: ('A' for Active; 'I' for Inactive)
REMARK    1  A    between atoms: C_7  and  C_8
REMARK    2  A    between atoms: C_12  and  N_13
REMARK    3  A    between atoms: N_13  and  C_14
REMARK    4  A    between atoms: C_14  and  C_15
REMARK                            x       y       z     vdW  Elec       q    Type
REMARK                         _______ _______ _______ _____ _____    ______ ____
ROOT
ATOM      1  C   UNL     1       3.834   5.765  18.604  0.00  0.00    +0.000 A 
ATOM      2  C   UNL     1       3.363   5.166  19.793  0.00  0.00    +0.000 A 
ATOM      3  N   UNL     1       2.478   5.916  20.455  0.00  0.00    +0.000 NA
ATOM      4  N   UNL     1       2.325   7.019  19.667  0.00  0.00    +0.000 N 
ATOM      5  C   UNL     1       1.478   8.134  19.906  0.00  0.00    +0.000 A 
ATOM      6  C   UNL     1       1.431   9.112  18.987  0.00  0.00    +0.000 A 
ATOM      7  C   UNL     1       2.302   8.937  17.800  0.00  0.00    +0.000 A 
ATOM      8  N   UNL     1       3.097   7.940  17.566  0.00  0.00    +0.000 NA
ATOM      9  C   UNL     1       3.120   6.950  18.514  0.00  0.00    +0.000 A 
ENDROOT
BRANCH   1  16
ATOM     10  F   UNL     1       3.325   3.684  16.728  0.00  0.00    +0.000 F 
ATOM     11  C   UNL     1       4.531   4.275  16.731  0.00  0.00    +0.000 A 
ATOM     12  C   UNL     1       5.476   3.834  15.805  0.00  0.00    +0.000 A 
ATOM     13  C   UNL     1       6.743   4.414  15.770  0.00  0.00    +0.000 A 
ATOM     14  C   UNL     1       7.058   5.433  16.666  0.00  0.00    +0.000 A 
ATOM     15  C   UNL     1       6.107   5.869  17.594  0.00  0.00    +0.000 A 
ATOM     16  C   UNL     1       4.821   5.304  17.635  0.00  0.00    +0.000 A 
ENDBRANCH   1  16
BRANCH   5  17
ATOM     17  N   UNL     1       0.754   8.186  21.109  0.00  0.00    +0.000 N 
ATOM     18  H   UNL     1      -0.225   8.364  20.865  0.00  0.00    +0.000 HD
BRANCH  17  19
ATOM     19  C   UNL     1       1.118   9.175  22.134  0.00  0.00    +0.000 C 
BRANCH  19  20
ATOM     20  C   UNL     1       0.097  10.262  22.306  0.00  0.00    +0.000 A 
ATOM     21  C   UNL     1      -0.961  10.313  23.195  0.00  0.00    +0.000 A 
ATOM     22  C   UNL     1      -1.716  11.515  23.072  0.00  0.00    +0.000 A 
ATOM     23  C   UNL     1      -1.213  12.341  22.092  0.00  0.00    +0.000 A 
ATOM     24  S   UNL     1       0.157  11.665  21.323  0.00  0.00    +0.000 S 
ENDBRANCH  19  20
ENDBRANCH  17  19
ENDBRANCH   5  17
TORSDOF 4
ENDMDL
MODEL 7
REMARK VINA RESULT:      -7.2      4.084      5.608
REMARK  Name = 
REMARK  4 active torsions:
REMARK  status: ('A' for Active; 'I' for Inactive)
REMARK    1  A    between atoms: C_7  and  C_8
REMARK    2  A    between atoms: C_12  and  N_13
REMARK    3  A    between atoms: N_13  and  C_14
REMARK    4  A    between atoms: C_14  and  C_15
REMARK                            x       y       z     vdW  Elec       q    Type
REMARK                         _______ _______ _______ _____ _____    ______ ____
ROOT
ATOM      1  C   UNL     1       4.099   3.551  18.525  0.00  0.00    +0.000 A 
ATOM      2  C   UNL     1       4.129   3.028  17.212  0.00  0.00    +0.000 A 
ATOM      3  N   UNL     1       5.192   3.423  16.506  0.00  0.00    +0.000 NA
ATOM      4  N   UNL     1       5.905   4.189  17.381  0.00  0.00    +0.000 N 
ATOM      5  C   UNL     1       7.141   4.846  17.136  0.00  0.00    +0.000 A 
ATOM      6  C   UNL     1       7.715   5.525  18.142  0.00  0.00    +0.000 A 
ATOM      7  C   UNL     1       6.977   5.539  19.428  0.00  0.00    +0.000 A 
ATOM      8  N   UNL     1       5.841   4.964  19.673  0.00  0.00    +0.000 NA
ATOM      9  C   UNL     1       5.279   4.269  18.633  0.00  0.00    +0.000 A 
ENDROOT
BRANCH   1  16
ATOM     10  F   UNL     1       4.533   1.982  20.861  0.00  0.00    +0.000 F 
ATOM     11  C   UNL     1       3.359   2.619  20.715  0.00  0.00    +0.000 A 
ATOM     12  C   UNL     1       2.410   2.476  21.726  0.00  0.00    +0.000 A 
ATOM     13  C   UNL     1       1.175   3.115  21.620  0.00  0.00    +0.000 A 
ATOM     14  C   UNL     1       0.897   3.892  20.498  0.00  0.00    +0.000 A 
ATOM     15  C   UNL     1       1.853   4.028  19.486  0.00  0.00    +0.000 A 
ATOM     16  C   UNL     1       3.107   3.402  19.583  0.00  0.00    +0.000 A 
ENDBRANCH   1  16
BRANCH   5  17
ATOM     17  N   UNL     1       7.691   4.790  15.844  0.00  0.00    +0.000 N 
ATOM     18  H   UNL     1       8.643   5.163  15.906  0.00  0.00    +0.000 HD
BRANCH  17  19
ATOM     19  C   UNL     1       7.031   5.504  14.741  0.00  0.00    +0.000 C 
BRANCH  19  20
ATOM     20  C   UNL     1       6.775   4.642  13.540  0.00  0.00    +0.000 A 
ATOM     21  C   UNL     1       7.550   4.501  12.404  0.00  0.00    +0.000 A 
ATOM     22  C   UNL     1       6.988   3.580  11.473  0.00  0.00    +0.000 A 
ATOM     23  C   UNL     1       5.802   3.050  11.927  0.00  0.00    +0.000 A 
ATOM     24  S   UNL     1       5.368   3.665  13.462  0.00  0.00    +0.000 S 
ENDBRANCH  19  20
ENDBRANCH  17  19
ENDBRANCH   5  17
TORSDOF 4
ENDMDL
MODEL 8
REMARK VINA RESULT:      -7.1      4.246      5.898
REMARK  Name = 
REMARK  4 active torsions:
REMARK  status: ('A' for Active; 'I' for Inactive)
REMARK    1  A    between atoms: C_7  and  C_8
REMARK    2  A    between atoms: C_12  and  N_13
REMARK    3  A    between atoms: N_13  and  C_14
REMARK    4  A    between atoms: C_14  and  C_15
REMARK                            x       y       z     vdW  Elec       q    Type
REMARK                         _______ _______ _______ _____ _____    ______ ____
ROOT
ATOM      1  C   UNL     1       1.881   7.998  19.518  0.00  0.00    +0.000 A 
ATOM      2  C   UNL     1       2.479   8.316  18.277  0.00  0.00    +0.000 A 
ATOM      3  N   UNL     1       3.161   7.303  17.738  0.00  0.00    +0.000 NA
ATOM      4  N   UNL     1       2.976   6.276  18.617  0.00  0.00    +0.000 N 
ATOM      5  C   UNL     1       3.484   4.953  18.509  0.00  0.00    +0.000 A 
ATOM      6  C   UNL     1       3.158   4.063  19.460  0.00  0.00    +0.000 A 
ATOM      7  C   UNL     1       2.301   4.564  20.561  0.00  0.00    +0.000 A 
ATOM      8  N   UNL     1       1.840   5.769  20.692  0.00  0.00    +0.000 NA
ATOM      9  C   UNL     1       2.179   6.657  19.704  0.00  0.00    +0.000 A 
ENDROOT
BRANCH   1  16
ATOM     10  F   UNL     1      -0.039   9.913  18.650  0.00  0.00    +0.000 F 
ATOM     11  C   UNL     1       0.170   9.754  19.967  0.00  0.00    +0.000 A 
ATOM     12  C   UNL     1      -0.573  10.542  20.846  0.00  0.00    +0.000 A 
ATOM     13  C   UNL     1      -0.391  10.415  22.222  0.00  0.00    +0.000 A 
ATOM     14  C   UNL     1       0.539   9.500  22.711  0.00  0.00    +0.000 A 
ATOM     15  C   UNL     1       1.284   8.716  21.825  0.00  0.00    +0.000 A 
ATOM     16  C   UNL     1       1.103   8.821  20.435  0.00  0.00    +0.000 A 
ENDBRANCH   1  16
BRANCH   5  17
ATOM     17  N   UNL     1       4.335   4.641  17.435  0.00  0.00    +0.000 N 
ATOM     18  H   UNL     1       3.948   3.812  16.974  0.00  0.00    +0.000 HD
BRANCH  17  19
ATOM     19  C   UNL     1       5.754   4.355  17.691  0.00  0.00    +0.000 C 
BRANCH  19  20
ATOM     20  C   UNL     1       6.597   5.590  17.827  0.00  0.00    +0.000 A 
ATOM     21  C   UNL     1       6.620   6.707  17.013  0.00  0.00    +0.000 A 
ATOM     22  C   UNL     1       7.550   7.688  17.463  0.00  0.00    +0.000 A 
ATOM     23  C   UNL     1       8.208   7.288  18.604  0.00  0.00    +0.000 A 
ATOM     24  S   UNL     1       7.712   5.736  19.121  0.00  0.00    +0.000 S 
ENDBRANCH  19  20
ENDBRANCH  17  19
ENDBRANCH   5  17
TORSDOF 4
ENDMDL
MODEL 9
REMARK VINA RESULT:      -7.1      4.009      5.666
REMARK  Name = 
REMARK  4 active torsions:
REMARK  status: ('A' for Active; 'I' for Inactive)
REMARK    1  A    between atoms: C_7  and  C_8
REMARK    2  A    between atoms: C_12  and  N_13
REMARK    3  A    between atoms: N_13  and  C_14
REMARK    4  A    between atoms: C_14  and  C_15
REMARK                            x       y       z     vdW  Elec       q    Type
REMARK                         _______ _______ _______ _____ _____    ______ ____
ROOT
ATOM      1  C   UNL     1       4.065   3.544  18.537  0.00  0.00    +0.000 A 
ATOM      2  C   UNL     1       4.105   3.048  17.214  0.00  0.00    +0.000 A 
ATOM      3  N   UNL     1       5.164   3.468  16.518  0.00  0.00    +0.000 NA
ATOM      4  N   UNL     1       5.867   4.224  17.410  0.00  0.00    +0.000 N 
ATOM      5  C   UNL     1       7.096   4.900  17.182  0.00  0.00    +0.000 A 
ATOM      6  C   UNL     1       7.660   5.565  18.203  0.00  0.00    +0.000 A 
ATOM      7  C   UNL     1       6.919   5.546  19.487  0.00  0.00    +0.000 A 
ATOM      8  N   UNL     1       5.789   4.953  19.717  0.00  0.00    +0.000 NA
ATOM      9  C   UNL     1       5.238   4.273  18.662  0.00  0.00    +0.000 A 
ENDROOT
BRANCH   1  16
ATOM     10  F   UNL     1       1.473   4.719  18.455  0.00  0.00    +0.000 F 
ATOM     11  C   UNL     1       1.809   3.961  19.512  0.00  0.00    +0.000 A 
ATOM     12  C   UNL     1       0.860   3.788  20.519  0.00  0.00    +0.000 A 
ATOM     13  C   UNL     1       1.162   3.012  21.637  0.00  0.00    +0.000 A 
ATOM     14  C   UNL     1       2.417   2.415  21.741  0.00  0.00    +0.000 A 
ATOM     15  C   UNL     1       3.365   2.596  20.729  0.00  0.00    +0.000 A 
ATOM     16  C   UNL     1       3.073   3.363  19.589  0.00  0.00    +0.000 A 
ENDBRANCH   1  16
BRANCH   5  17
ATOM     17  N   UNL     1       7.650   4.877  15.891  0.00  0.00    +0.000 N 
ATOM     18  H   UNL     1       8.581   5.299  15.954  0.00  0.00    +0.000 HD
BRANCH  17  19
ATOM     19  C   UNL     1       6.954   5.556  14.788  0.00  0.00    +0.000 C 
BRANCH  19  20
ATOM     20  C   UNL     1       6.706   4.670  13.602  0.00  0.00    +0.000 A 
ATOM     21  C   UNL     1       5.722   3.714  13.436  0.00  0.00    +0.000 A 
ATOM     22  C   UNL     1       5.795   3.075  12.164  0.00  0.00    +0.000 A 
ATOM     23  C   UNL     1       6.834   3.561  11.403  0.00  0.00    +0.000 A 
ATOM     24  S   UNL     1       7.717   4.775  12.221  0.00  0.00    +0.000 S 
ENDBRANCH  19  20
ENDBRANCH  17  19
ENDBRANCH   5  17
TORSDOF 4
ENDMDL
