MODEL 1
REMARK VINA RESULT:      -8.2      0.000      0.000
REMARK  Name = 
REMARK  3 active torsions:
REMARK  status: ('A' for Active; 'I' for Inactive)
REMARK    1  A    between atoms: C_1  and  C_2
REMARK    2  A    between atoms: C_5  and  C_6
REMARK    3  A    between atoms: C_13  and  C_14
REMARK                            x       y       z     vdW  Elec       q    Type
REMARK                         _______ _______ _______ _____ _____    ______ ____
ROOT
ATOM      1  C   UNL     1       2.558   7.161  18.608  0.00  0.00    +0.000 C 
ATOM      2  O   UNL     1       2.237   6.800  19.740  0.00  0.00    +0.000 OA
ATOM      3  N   UNL     1       2.074   8.299  17.996  0.00  0.00    +0.000 N 
ATOM      4  C   UNL     1       1.178   9.168  18.638  0.00  0.00    +0.000 A 
ATOM      5  C   UNL     1       1.341   9.523  19.960  0.00  0.00    +0.000 A 
ATOM      6  C   UNL     1       0.377  10.349  20.486  0.00  0.00    +0.000 A 
ATOM      7  N   UNL     1      -0.690  10.759  19.784  0.00  0.00    +0.000 NA
ATOM      8  C   UNL     1      -0.774  10.349  18.501  0.00  0.00    +0.000 A 
ATOM      9  N   UNL     1       0.166   9.612  17.875  0.00  0.00    +0.000 NA
ATOM     10  H   UNL     1       1.996   8.306  16.989  0.00  0.00    +0.000 HD
ENDROOT
BRANCH   1  15
ATOM     11  C   UNL     1       6.043   3.977  15.221  0.00  0.00    +0.000 C 
ATOM     12  C   UNL     1       5.169   4.787  16.135  0.00  0.00    +0.000 A 
ATOM     13  C   UNL     1       5.301   6.177  16.205  0.00  0.00    +0.000 A 
ATOM     14  C   UNL     1       4.461   6.923  17.036  0.00  0.00    +0.000 A 
ATOM     15  C   UNL     1       3.479   6.293  17.815  0.00  0.00    +0.000 A 
ATOM     16  C   UNL     1       3.356   4.899  17.757  0.00  0.00    +0.000 A 
ATOM     17  C   UNL     1       4.200   4.154  16.923  0.00  0.00    +0.000 A 
ENDBRANCH   1  15
BRANCH   8  18
ATOM     18  C   UNL     1      -2.031  10.619  17.793  0.00  0.00    +0.000 A 
ATOM     19  C   UNL     1      -2.282  10.140  16.496  0.00  0.00    +0.000 A 
ATOM     20  C   UNL     1      -3.468  10.456  15.829  0.00  0.00    +0.000 A 
ATOM     21  C   UNL     1      -4.390  11.255  16.480  0.00  0.00    +0.000 A 
ATOM     22  N   UNL     1      -4.206  11.741  17.723  0.00  0.00    +0.000 NA
ATOM     23  C   UNL     1      -3.037  11.415  18.340  0.00  0.00    +0.000 A 
ENDBRANCH   8  18
TORSDOF 2
ENDMDL
MODEL 2
REMARK VINA RESULT:      -8.0      0.153      1.040
REMARK  Name = 
REMARK  3 active torsions:
REMARK  status: ('A' for Active; 'I' for Inactive)
REMARK    1  A    between atoms: C_1  and  C_2
REMARK    2  A    between atoms: C_5  and  C_6
REMARK    3  A    between atoms: C_13  and  C_14
REMARK                            x       y       z     vdW  Elec       q    Type
REMARK                         _______ _______ _______ _____ _____    ______ ____
ROOT
ATOM      1  C   UNL     1       2.545   7.233  18.511  0.00  0.00    +0.000 C 
ATOM      2  O   UNL     1       2.226   6.806  19.621  0.00  0.00    +0.000 OA
ATOM      3  N   UNL     1       2.047   8.395  17.959  0.00  0.00    +0.000 N 
ATOM      4  C   UNL     1       1.134   9.214  18.643  0.00  0.00    +0.000 A 
ATOM      5  C   UNL     1       1.287   9.499  19.984  0.00  0.00    +0.000 A 
ATOM      6  C   UNL     1       0.309  10.281  20.549  0.00  0.00    +0.000 A 
ATOM      7  N   UNL     1      -0.762  10.712  19.866  0.00  0.00    +0.000 NA
ATOM      8  C   UNL     1      -0.835  10.371  18.562  0.00  0.00    +0.000 A 
ATOM      9  N   UNL     1       0.119   9.683  17.902  0.00  0.00    +0.000 NA
ATOM     10  H   UNL     1       1.972   8.455  16.954  0.00  0.00    +0.000 HD
ENDROOT
BRANCH   1  15
ATOM     11  C   UNL     1       6.274   3.887  15.570  0.00  0.00    +0.000 C 
ATOM     12  C   UNL     1       5.289   4.763  16.288  0.00  0.00    +0.000 A 
ATOM     13  C   UNL     1       4.209   4.207  16.980  0.00  0.00    +0.000 A 
ATOM     14  C   UNL     1       3.316   5.031  17.670  0.00  0.00    +0.000 A 
ATOM     15  C   UNL     1       3.483   6.423  17.676  0.00  0.00    +0.000 A 
ATOM     16  C   UNL     1       4.556   6.983  16.970  0.00  0.00    +0.000 A 
ATOM     17  C   UNL     1       5.450   6.154  16.279  0.00  0.00    +0.000 A 
ENDBRANCH   1  15
BRANCH   8  18
ATOM     18  C   UNL     1      -2.093  10.659  17.864  0.00  0.00    +0.000 A 
ATOM     19  C   UNL     1      -2.355  10.198  16.563  0.00  0.00    +0.000 A 
ATOM     20  C   UNL     1      -3.541  10.532  15.906  0.00  0.00    +0.000 A 
ATOM     21  C   UNL     1      -4.454  11.331  16.571  0.00  0.00    +0.000 A 
ATOM     22  N   UNL     1      -4.259  11.800  17.819  0.00  0.00    +0.000 NA
ATOM     23  C   UNL     1      -3.089  11.457  18.426  0.00  0.00    +0.000 A 
ENDBRANCH   8  18
TORSDOF 2
ENDMDL
MODEL 3
REMARK VINA RESULT:      -8.0      0.600      1.020
REMARK  Name = 
REMARK  3 active torsions:
REMARK  status: ('A' for Active; 'I' for Inactive)
REMARK    1  A    between atoms: C_1  and  C_2
REMARK    2  A    between atoms: C_5  and  C_6
REMARK    3  A    between atoms: C_13  and  C_14
REMARK                            x       y       z     vdW  Elec       q    Type
REMARK                         _______ _______ _______ _____ _____    ______ ____
ROOT
ATOM      1  C   UNL     1       2.556   7.125  18.602  0.00  0.00    +0.000 C 
ATOM      2  O   UNL     1       2.205   6.725  19.713  0.00  0.00    +0.000 OA
ATOM      3  N   UNL     1       2.098   8.291  18.023  0.00  0.00    +0.000 N 
ATOM      4  C   UNL     1       1.196   9.144  18.677  0.00  0.00    +0.000 A 
ATOM      5  C   UNL     1       1.331   9.448  20.015  0.00  0.00    +0.000 A 
ATOM      6  C   UNL     1       0.364  10.263  20.550  0.00  0.00    +0.000 A 
ATOM      7  N   UNL     1      -0.683  10.711  19.840  0.00  0.00    +0.000 NA
ATOM      8  C   UNL     1      -0.741  10.351  18.541  0.00  0.00    +0.000 A 
ATOM      9  N   UNL     1       0.207   9.628  17.909  0.00  0.00    +0.000 NA
ATOM     10  H   UNL     1       2.043   8.336  17.016  0.00  0.00    +0.000 HD
ENDROOT
BRANCH   1  15
ATOM     11  C   UNL     1       6.075   4.024  15.174  0.00  0.00    +0.000 C 
ATOM     12  C   UNL     1       5.192   4.812  16.099  0.00  0.00    +0.000 A 
ATOM     13  C   UNL     1       5.304   6.203  16.180  0.00  0.00    +0.000 A 
ATOM     14  C   UNL     1       4.456   6.929  17.021  0.00  0.00    +0.000 A 
ATOM     15  C   UNL     1       3.487   6.278  17.798  0.00  0.00    +0.000 A 
ATOM     16  C   UNL     1       3.385   4.883  17.729  0.00  0.00    +0.000 A 
ATOM     17  C   UNL     1       4.236   4.157  16.885  0.00  0.00    +0.000 A 
ENDBRANCH   1  15
BRANCH   8  18
ATOM     18  C   UNL     1      -1.978  10.660  17.815  0.00  0.00    +0.000 A 
ATOM     19  C   UNL     1      -3.013  11.423  18.382  0.00  0.00    +0.000 A 
ATOM     20  C   UNL     1      -4.199  11.658  17.684  0.00  0.00    +0.000 A 
ATOM     21  C   UNL     1      -4.331  11.118  16.417  0.00  0.00    +0.000 A 
ATOM     22  N   UNL     1      -3.373  10.380  15.822  0.00  0.00    +0.000 NA
ATOM     23  C   UNL     1      -2.231  10.170  16.534  0.00  0.00    +0.000 A 
ENDBRANCH   8  18
TORSDOF 2
ENDMDL
MODEL 4
REMARK VINA RESULT:      -7.8      0.606      1.456
REMARK  Name = 
REMARK  3 active torsions:
REMARK  status: ('A' for Active; 'I' for Inactive)
REMARK    1  A    between atoms: C_1  and  C_2
REMARK    2  A    between atoms: C_5  and  C_6
REMARK    3  A    between atoms: C_13  and  C_14
REMARK                            x       y       z     vdW  Elec       q    Type
REMARK                         _______ _______ _______ _____ _____    ______ ____
ROOT
ATOM      1  C   UNL     1       2.517   7.237  18.530  0.00  0.00    +0.000 C 
ATOM      2  O   UNL     1       2.165   6.788  19.622  0.00  0.00    +0.000 OA
ATOM      3  N   UNL     1       2.046   8.418  17.996  0.00  0.00    +0.000 N 
ATOM      4  C   UNL     1       1.127   9.231  18.677  0.00  0.00    +0.000 A 
ATOM      5  C   UNL     1       1.250   9.483  20.028  0.00  0.00    +0.000 A 
ATOM      6  C   UNL     1       0.268  10.262  20.588  0.00  0.00    +0.000 A 
ATOM      7  N   UNL     1      -0.781  10.723  19.890  0.00  0.00    +0.000 NA
ATOM      8  C   UNL     1      -0.826  10.415  18.577  0.00  0.00    +0.000 A 
ATOM      9  N   UNL     1       0.135   9.732  17.923  0.00  0.00    +0.000 NA
ATOM     10  H   UNL     1       1.996   8.503  16.991  0.00  0.00    +0.000 HD
ENDROOT
BRANCH   1  15
ATOM     11  C   UNL     1       6.284   3.924  15.601  0.00  0.00    +0.000 C 
ATOM     12  C   UNL     1       5.289   4.792  16.316  0.00  0.00    +0.000 A 
ATOM     13  C   UNL     1       4.206   4.227  16.997  0.00  0.00    +0.000 A 
ATOM     14  C   UNL     1       3.304   5.043  17.684  0.00  0.00    +0.000 A 
ATOM     15  C   UNL     1       3.465   6.436  17.699  0.00  0.00    +0.000 A 
ATOM     16  C   UNL     1       4.540   7.004  17.005  0.00  0.00    +0.000 A 
ATOM     17  C   UNL     1       5.444   6.184  16.316  0.00  0.00    +0.000 A 
ENDBRANCH   1  15
BRANCH   8  18
ATOM     18  C   UNL     1      -2.064  10.736  17.856  0.00  0.00    +0.000 A 
ATOM     19  C   UNL     1      -3.100  11.487  18.436  0.00  0.00    +0.000 A 
ATOM     20  C   UNL     1      -4.286  11.732  17.742  0.00  0.00    +0.000 A 
ATOM     21  C   UNL     1      -4.416  11.215  16.465  0.00  0.00    +0.000 A 
ATOM     22  N   UNL     1      -3.456  10.491  15.857  0.00  0.00    +0.000 NA
ATOM     23  C   UNL     1      -2.315  10.268  16.566  0.00  0.00    +0.000 A 
ENDBRANCH   8  18
TORSDOF 2
ENDMDL
MODEL 5
REMARK VINA RESULT:      -7.5      7.258      9.396
REMARK  Name = 
REMARK  3 active torsions:
REMARK  status: ('A' for Active; 'I' for Inactive)
REMARK    1  A    between atoms: C_1  and  C_2
REMARK    2  A    between atoms: C_5  and  C_6
REMARK    3  A    between atoms: C_13  and  C_14
REMARK                            x       y       z     vdW  Elec       q    Type
REMARK                         _______ _______ _______ _____ _____    ______ ____
ROOT
ATOM      1  C   UNL     1       8.103   8.224  18.268  0.00  0.00    +0.000 C 
ATOM      2  O   UNL     1       8.611   7.364  18.989  0.00  0.00    +0.000 OA
ATOM      3  N   UNL     1       7.148   7.959  17.309  0.00  0.00    +0.000 N 
ATOM      4  C   UNL     1       6.650   6.665  17.090  0.00  0.00    +0.000 A 
ATOM      5  C   UNL     1       6.336   5.826  18.138  0.00  0.00    +0.000 A 
ATOM      6  C   UNL     1       5.893   4.572  17.795  0.00  0.00    +0.000 A 
ATOM      7  N   UNL     1       5.808   4.154  16.524  0.00  0.00    +0.000 NA
ATOM      8  C   UNL     1       6.151   5.039  15.563  0.00  0.00    +0.000 A 
ATOM      9  N   UNL     1       6.511   6.316  15.801  0.00  0.00    +0.000 NA
ATOM     10  H   UNL     1       7.110   8.553  16.493  0.00  0.00    +0.000 HD
ENDROOT
BRANCH   1  15
ATOM     11  C   UNL     1       9.841  13.707  19.085  0.00  0.00    +0.000 C 
ATOM     12  C   UNL     1       9.424  12.286  18.838  0.00  0.00    +0.000 A 
ATOM     13  C   UNL     1       9.857  11.257  19.679  0.00  0.00    +0.000 A 
ATOM     14  C   UNL     1       9.438   9.943  19.457  0.00  0.00    +0.000 A 
ATOM     15  C   UNL     1       8.584   9.633  18.389  0.00  0.00    +0.000 A 
ATOM     16  C   UNL     1       8.162  10.661  17.536  0.00  0.00    +0.000 A 
ATOM     17  C   UNL     1       8.584  11.978  17.761  0.00  0.00    +0.000 A 
ENDBRANCH   1  15
BRANCH   8  18
ATOM     18  C   UNL     1       6.259   4.530  14.191  0.00  0.00    +0.000 A 
ATOM     19  C   UNL     1       5.311   3.654  13.636  0.00  0.00    +0.000 A 
ATOM     20  C   UNL     1       5.469   3.147  12.345  0.00  0.00    +0.000 A 
ATOM     21  C   UNL     1       6.586   3.530  11.624  0.00  0.00    +0.000 A 
ATOM     22  N   UNL     1       7.526   4.368  12.102  0.00  0.00    +0.000 NA
ATOM     23  C   UNL     1       7.340   4.839  13.367  0.00  0.00    +0.000 A 
ENDBRANCH   8  18
TORSDOF 2
ENDMDL
MODEL 6
REMARK VINA RESULT:      -7.5      3.152      8.622
REMARK  Name = 
REMARK  3 active torsions:
REMARK  status: ('A' for Active; 'I' for Inactive)
REMARK    1  A    between atoms: C_1  and  C_2
REMARK    2  A    between atoms: C_5  and  C_6
REMARK    3  A    between atoms: C_13  and  C_14
REMARK                            x       y       z     vdW  Elec       q    Type
REMARK                         _______ _______ _______ _____ _____    ______ ____
ROOT
ATOM      1  C   UNL     1      -0.173  10.332  19.785  0.00  0.00    +0.000 C 
ATOM      2  O   UNL     1      -0.531  10.257  18.609  0.00  0.00    +0.000 OA
ATOM      3  N   UNL     1       0.871   9.608  20.321  0.00  0.00    +0.000 N 
ATOM      4  C   UNL     1       1.642   8.726  19.547  0.00  0.00    +0.000 A 
ATOM      5  C   UNL     1       2.063   9.061  18.277  0.00  0.00    +0.000 A 
ATOM      6  C   UNL     1       2.778   8.099  17.606  0.00  0.00    +0.000 A 
ATOM      7  N   UNL     1       3.023   6.885  18.120  0.00  0.00    +0.000 NA
ATOM      8  C   UNL     1       2.560   6.641  19.364  0.00  0.00    +0.000 A 
ATOM      9  N   UNL     1       1.927   7.552  20.131  0.00  0.00    +0.000 NA
ATOM     10  H   UNL     1       0.831   9.361  21.299  0.00  0.00    +0.000 HD
ENDROOT
BRANCH   1  15
ATOM     11  C   UNL     1      -3.310  13.452  23.550  0.00  0.00    +0.000 C 
ATOM     12  C   UNL     1      -2.471  12.685  22.570  0.00  0.00    +0.000 A 
ATOM     13  C   UNL     1      -1.530  11.750  23.012  0.00  0.00    +0.000 A 
ATOM     14  C   UNL     1      -0.777  11.019  22.090  0.00  0.00    +0.000 A 
ATOM     15  C   UNL     1      -0.945  11.214  20.711  0.00  0.00    +0.000 A 
ATOM     16  C   UNL     1      -1.876  12.162  20.267  0.00  0.00    +0.000 A 
ATOM     17  C   UNL     1      -2.630  12.893  21.194  0.00  0.00    +0.000 A 
ENDBRANCH   1  15
BRANCH   8  18
ATOM     18  C   UNL     1       2.642   5.259  19.850  0.00  0.00    +0.000 A 
ATOM     19  C   UNL     1       1.758   4.746  20.815  0.00  0.00    +0.000 A 
ATOM     20  C   UNL     1       1.894   3.442  21.295  0.00  0.00    +0.000 A 
ATOM     21  C   UNL     1       2.924   2.665  20.795  0.00  0.00    +0.000 A 
ATOM     22  N   UNL     1       3.800   3.101  19.868  0.00  0.00    +0.000 NA
ATOM     23  C   UNL     1       3.638   4.380  19.426  0.00  0.00    +0.000 A 
ENDBRANCH   8  18
TORSDOF 2
ENDMDL
MODEL 7
REMARK VINA RESULT:      -7.4      1.265      1.839
REMARK  Name = 
REMARK  3 active torsions:
REMARK  status: ('A' for Active; 'I' for Inactive)
REMARK    1  A    between atoms: C_1  and  C_2
REMARK    2  A    between atoms: C_5  and  C_6
REMARK    3  A    between atoms: C_13  and  C_14
REMARK                            x       y       z     vdW  Elec       q    Type
REMARK                         _______ _______ _______ _____ _____    ______ ____
ROOT
ATOM      1  C   UNL     1       2.918   6.365  18.515  0.00  0.00    +0.000 C 
ATOM      2  O   UNL     1       2.440   5.570  19.325  0.00  0.00    +0.000 OA
ATOM      3  N   UNL     1       2.643   7.717  18.507  0.00  0.00    +0.000 N 
ATOM      4  C   UNL     1       1.796   8.311  19.456  0.00  0.00    +0.000 A 
ATOM      5  C   UNL     1       1.863   7.975  20.792  0.00  0.00    +0.000 A 
ATOM      6  C   UNL     1       0.957   8.598  21.616  0.00  0.00    +0.000 A 
ATOM      7  N   UNL     1       0.026   9.449  21.161  0.00  0.00    +0.000 NA
ATOM      8  C   UNL     1       0.027   9.707  19.836  0.00  0.00    +0.000 A 
ATOM      9  N   UNL     1       0.931   9.213  18.966  0.00  0.00    +0.000 NA
ATOM     10  H   UNL     1       2.671   8.206  17.624  0.00  0.00    +0.000 HD
ENDROOT
BRANCH   1  15
ATOM     11  C   UNL     1       6.550   4.120  14.575  0.00  0.00    +0.000 C 
ATOM     12  C   UNL     1       5.579   4.710  15.557  0.00  0.00    +0.000 A 
ATOM     13  C   UNL     1       4.804   3.886  16.379  0.00  0.00    +0.000 A 
ATOM     14  C   UNL     1       3.927   4.446  17.312  0.00  0.00    +0.000 A 
ATOM     15  C   UNL     1       3.805   5.837  17.435  0.00  0.00    +0.000 A 
ATOM     16  C   UNL     1       4.569   6.664  16.602  0.00  0.00    +0.000 A 
ATOM     17  C   UNL     1       5.448   6.100  15.668  0.00  0.00    +0.000 A 
ENDBRANCH   1  15
BRANCH   8  18
ATOM     18  C   UNL     1      -1.107  10.470  19.301  0.00  0.00    +0.000 A 
ATOM     19  C   UNL     1      -1.726  10.145  18.082  0.00  0.00    +0.000 A 
ATOM     20  C   UNL     1      -2.770  10.920  17.576  0.00  0.00    +0.000 A 
ATOM     21  C   UNL     1      -3.181  12.021  18.307  0.00  0.00    +0.000 A 
ATOM     22  N   UNL     1      -2.629  12.380  19.482  0.00  0.00    +0.000 NA
ATOM     23  C   UNL     1      -1.610  11.602  19.943  0.00  0.00    +0.000 A 
ENDBRANCH   8  18
TORSDOF 2
ENDMDL
MODEL 8
REMARK VINA RESULT:      -7.4      1.094      1.860
REMARK  Name = 
REMARK  3 active torsions:
REMARK  status: ('A' for Active; 'I' for Inactive)
REMARK    1  A    between atoms: C_1  and  C_2
REMARK    2  A    between atoms: C_5  and  C_6
REMARK    3  A    between atoms: C_13  and  C_14
REMARK                            x       y       z     vdW  Elec       q    Type
REMARK                         _______ _______ _______ _____ _____    ______ ____
ROOT
ATOM      1  C   UNL     1       2.735   6.637  18.716  0.00  0.00    +0.000 C 
ATOM      2  O   UNL     1       2.318   5.918  19.624  0.00  0.00    +0.000 OA
ATOM      3  N   UNL     1       2.395   7.965  18.567  0.00  0.00    +0.000 N 
ATOM      4  C   UNL     1       1.545   8.624  19.470  0.00  0.00    +0.000 A 
ATOM      5  C   UNL     1       1.664   8.444  20.832  0.00  0.00    +0.000 A 
ATOM      6  C   UNL     1       0.751   9.113  21.611  0.00  0.00    +0.000 A 
ATOM      7  N   UNL     1      -0.232   9.865  21.093  0.00  0.00    +0.000 NA
ATOM      8  C   UNL     1      -0.279   9.972  19.749  0.00  0.00    +0.000 A 
ATOM      9  N   UNL     1       0.625   9.424  18.911  0.00  0.00    +0.000 NA
ATOM     10  H   UNL     1       2.375   8.353  17.635  0.00  0.00    +0.000 HD
ENDROOT
BRANCH   1  15
ATOM     11  C   UNL     1       6.312   4.067  14.927  0.00  0.00    +0.000 C 
ATOM     12  C   UNL     1       5.359   4.745  15.869  0.00  0.00    +0.000 A 
ATOM     13  C   UNL     1       4.449   4.000  16.625  0.00  0.00    +0.000 A 
ATOM     14  C   UNL     1       3.589   4.638  17.522  0.00  0.00    +0.000 A 
ATOM     15  C   UNL     1       3.618   6.032  17.674  0.00  0.00    +0.000 A 
ATOM     16  C   UNL     1       4.518   6.782  16.906  0.00  0.00    +0.000 A 
ATOM     17  C   UNL     1       5.380   6.138  16.008  0.00  0.00    +0.000 A 
ENDBRANCH   1  15
BRANCH   8  18
ATOM     18  C   UNL     1      -1.463  10.617  19.169  0.00  0.00    +0.000 A 
ATOM     19  C   UNL     1      -2.068  11.743  19.753  0.00  0.00    +0.000 A 
ATOM     20  C   UNL     1      -3.224  12.303  19.205  0.00  0.00    +0.000 A 
ATOM     21  C   UNL     1      -3.759  11.720  18.071  0.00  0.00    +0.000 A 
ATOM     22  N   UNL     1      -3.222  10.642  17.466  0.00  0.00    +0.000 NA
ATOM     23  C   UNL     1      -2.097  10.121  18.031  0.00  0.00    +0.000 A 
ENDBRANCH   8  18
TORSDOF 2
ENDMDL
MODEL 9
REMARK VINA RESULT:      -7.4      3.212      8.634
REMARK  Name = 
REMARK  3 active torsions:
REMARK  status: ('A' for Active; 'I' for Inactive)
REMARK    1  A    between atoms: C_1  and  C_2
REMARK    2  A    between atoms: C_5  and  C_6
REMARK    3  A    between atoms: C_13  and  C_14
REMARK                            x       y       z     vdW  Elec       q    Type
REMARK                         _______ _______ _______ _____ _____    ______ ____
ROOT
ATOM      1  C   UNL     1      -0.154  10.204  19.910  0.00  0.00    +0.000 C 
ATOM      2  O   UNL     1      -0.578  10.103  18.759  0.00  0.00    +0.000 OA
ATOM      3  N   UNL     1       0.922   9.493  20.400  0.00  0.00    +0.000 N 
ATOM      4  C   UNL     1       1.649   8.596  19.602  0.00  0.00    +0.000 A 
ATOM      5  C   UNL     1       1.995   8.904  18.303  0.00  0.00    +0.000 A 
ATOM      6  C   UNL     1       2.673   7.929  17.612  0.00  0.00    +0.000 A 
ATOM      7  N   UNL     1       2.951   6.727  18.136  0.00  0.00    +0.000 NA
ATOM      8  C   UNL     1       2.561   6.508  19.410  0.00  0.00    +0.000 A 
ATOM      9  N   UNL     1       1.971   7.434  20.193  0.00  0.00    +0.000 NA
ATOM     10  H   UNL     1       0.940   9.267  21.384  0.00  0.00    +0.000 HD
ENDROOT
BRANCH   1  15
ATOM     11  C   UNL     1      -2.778  13.990  23.450  0.00  0.00    +0.000 C 
ATOM     12  C   UNL     1      -2.135  12.979  22.545  0.00  0.00    +0.000 A 
ATOM     13  C   UNL     1      -2.248  13.090  21.155  0.00  0.00    +0.000 A 
ATOM     14  C   UNL     1      -1.619  12.161  20.322  0.00  0.00    +0.000 A 
ATOM     15  C   UNL     1      -0.873  11.103  20.861  0.00  0.00    +0.000 A 
ATOM     16  C   UNL     1      -0.773  10.982  22.253  0.00  0.00    +0.000 A 
ATOM     17  C   UNL     1      -1.404  11.915  23.087  0.00  0.00    +0.000 A 
ENDBRANCH   1  15
BRANCH   8  18
ATOM     18  C   UNL     1       2.675   5.137  19.920  0.00  0.00    +0.000 A 
ATOM     19  C   UNL     1       1.865   4.651  20.960  0.00  0.00    +0.000 A 
ATOM     20  C   UNL     1       2.033   3.357  21.457  0.00  0.00    +0.000 A 
ATOM     21  C   UNL     1       3.019   2.564  20.898  0.00  0.00    +0.000 A 
ATOM     22  N   UNL     1       3.824   2.975  19.898  0.00  0.00    +0.000 NA
ATOM     23  C   UNL     1       3.634   4.244  19.442  0.00  0.00    +0.000 A 
ENDBRANCH   8  18
TORSDOF 2
ENDMDL
