MODEL 1
REMARK VINA RESULT:      -8.3      0.000      0.000
REMARK  Name = 
REMARK  11 active torsions:
REMARK  status: ('A' for Active; 'I' for Inactive)
REMARK    1  A    between atoms: C_1  and  C_2
REMARK    2  A    between atoms: C_2  and  N_3
REMARK    3  A    between atoms: N_3  and  C_4
REMARK    4  A    between atoms: N_3  and  C_24
REMARK    5  A    between atoms: C_4  and  C_5
REMARK    6  A    between atoms: C_5  and  C_6
REMARK    7  A    between atoms: C_6  and  N_7
REMARK    8  A    between atoms: C_8  and  C_10
REMARK    9  A    between atoms: N_13  and  S_14
REMARK   10  A    between atoms: S_14  and  C_17
REMARK   11  A    between atoms: C_28  and  C_29
REMARK                            x       y       z     vdW  Elec       q    Type
REMARK                         _______ _______ _______ _____ _____    ______ ____
ROOT
ATOM      1  N   UNL     1       6.763   7.759  17.286  0.00  0.00    +0.000 N 
ATOM      2  C   UNL     1       6.592   6.500  16.756  0.00  0.00    +0.000 C 
ATOM      3  O   UNL     1       7.454   5.632  16.841  0.00  0.00    +0.000 OA
ATOM      4  H   UNL     1       5.941   8.330  17.440  0.00  0.00    +0.000 HD
ENDROOT
BRANCH   2   5
ATOM      5  C   UNL     1       5.237   6.272  16.082  0.00  0.00    +0.000 C 
ATOM      6  C   UNL     1       4.088   6.487  17.071  0.00  0.00    +0.000 C 
ATOM      7  C   UNL     1       4.071   5.421  18.166  0.00  0.00    +0.000 C 
ATOM      8  N   UNL     1       4.063   4.046  17.583  0.00  0.00    +0.000 NA
ATOM      9  C   UNL     1       5.137   3.805  16.588  0.00  0.00    +0.000 C 
ATOM     10  C   UNL     1       5.108   4.865  15.493  0.00  0.00    +0.000 C 
BRANCH   8  11
ATOM     11  S   UNL     1       4.033   2.818  18.796  0.00  0.00    +0.000 S 
ATOM     12  O   UNL     1       3.908   1.531  18.136  0.00  0.00    +0.000 OA
ATOM     13  O   UNL     1       5.102   3.065  19.739  0.00  0.00    +0.000 OA
BRANCH  11  14
ATOM     14  C   UNL     1       2.572   2.946  19.737  0.00  0.00    +0.000 A 
ATOM     15  C   UNL     1       1.306   3.171  19.234  0.00  0.00    +0.000 A 
ATOM     16  N   UNL     1       0.487   3.201  20.328  0.00  0.00    +0.000 N 
ATOM     17  C   UNL     1       1.263   2.994  21.434  0.00  0.00    +0.000 A 
ATOM     18  N   UNL     1       2.526   2.837  21.119  0.00  0.00    +0.000 NA
ATOM     19  H   UNL     1      -0.514   3.348  20.326  0.00  0.00    +0.000 HD
ENDBRANCH  11  14
ENDBRANCH   8  11
ENDBRANCH   2   5
BRANCH   1  20
ATOM     20  C   UNL     1       8.014   8.101  17.936  0.00  0.00    +0.000 C 
BRANCH  20  21
ATOM     21  C   UNL     1       8.470   9.532  17.678  0.00  0.00    +0.000 C 
BRANCH  21  22
ATOM     22  C   UNL     1       9.047  10.187  18.936  0.00  0.00    +0.000 C 
BRANCH  22  23
ATOM     23  N   UNL     1       9.639  11.496  18.637  0.00  0.00    +0.000 N 
BRANCH  23  24
ATOM     24  C   UNL     1       8.871  12.669  18.726  0.00  0.00    +0.000 A 
ATOM     25  C   UNL     1       8.046  13.098  17.669  0.00  0.00    +0.000 A 
ATOM     26  C   UNL     1       7.262  14.253  17.742  0.00  0.00    +0.000 A 
ATOM     27  C   UNL     1       7.278  15.035  18.888  0.00  0.00    +0.000 A 
ATOM     28  C   UNL     1       8.081  14.660  19.963  0.00  0.00    +0.000 A 
ATOM     29  C   UNL     1       8.119  15.488  21.214  0.00  0.00    +0.000 C 
ATOM     30  C   UNL     1       8.865  13.493  19.869  0.00  0.00    +0.000 A 
ENDBRANCH  23  24
BRANCH  23  32
ATOM     31  C   UNL     1      12.096  11.600  19.340  0.00  0.00    +0.000 C 
ATOM     32  C   UNL     1      11.052  11.625  18.236  0.00  0.00    +0.000 C 
ENDBRANCH  23  32
ENDBRANCH  22  23
ENDBRANCH  21  22
ENDBRANCH  20  21
ENDBRANCH   1  20
TORSDOF 9
ENDMDL
MODEL 2
REMARK VINA RESULT:      -8.0      1.953      2.630
REMARK  Name = 
REMARK  11 active torsions:
REMARK  status: ('A' for Active; 'I' for Inactive)
REMARK    1  A    between atoms: C_1  and  C_2
REMARK    2  A    between atoms: C_2  and  N_3
REMARK    3  A    between atoms: N_3  and  C_4
REMARK    4  A    between atoms: N_3  and  C_24
REMARK    5  A    between atoms: C_4  and  C_5
REMARK    6  A    between atoms: C_5  and  C_6
REMARK    7  A    between atoms: C_6  and  N_7
REMARK    8  A    between atoms: C_8  and  C_10
REMARK    9  A    between atoms: N_13  and  S_14
REMARK   10  A    between atoms: S_14  and  C_17
REMARK   11  A    between atoms: C_28  and  C_29
REMARK                            x       y       z     vdW  Elec       q    Type
REMARK                         _______ _______ _______ _____ _____    ______ ____
ROOT
ATOM      1  N   UNL     1       7.986   8.050  18.105  0.00  0.00    +0.000 N 
ATOM      2  C   UNL     1       7.454   6.927  17.513  0.00  0.00    +0.000 C 
ATOM      3  O   UNL     1       6.877   6.969  16.432  0.00  0.00    +0.000 OA
ATOM      4  H   UNL     1       8.681   7.926  18.831  0.00  0.00    +0.000 HD
ENDROOT
BRANCH   2   5
ATOM      5  C   UNL     1       7.665   5.632  18.301  0.00  0.00    +0.000 C 
ATOM      6  C   UNL     1       7.329   4.407  17.445  0.00  0.00    +0.000 C 
ATOM      7  C   UNL     1       5.837   4.330  17.121  0.00  0.00    +0.000 C 
ATOM      8  N   UNL     1       5.010   4.396  18.362  0.00  0.00    +0.000 NA
ATOM      9  C   UNL     1       5.329   5.547  19.243  0.00  0.00    +0.000 C 
ATOM     10  C   UNL     1       6.817   5.577  19.574  0.00  0.00    +0.000 C 
BRANCH   8  11
ATOM     11  S   UNL     1       3.318   4.301  18.031  0.00  0.00    +0.000 S 
ATOM     12  O   UNL     1       2.804   5.651  17.900  0.00  0.00    +0.000 OA
ATOM     13  O   UNL     1       3.100   3.322  16.987  0.00  0.00    +0.000 OA
BRANCH  11  14
ATOM     14  C   UNL     1       2.474   3.666  19.417  0.00  0.00    +0.000 A 
ATOM     15  C   UNL     1       1.107   3.696  19.611  0.00  0.00    +0.000 A 
ATOM     16  N   UNL     1       0.906   3.096  20.823  0.00  0.00    +0.000 N 
ATOM     17  C   UNL     1       2.128   2.727  21.313  0.00  0.00    +0.000 A 
ATOM     18  N   UNL     1       3.098   3.055  20.494  0.00  0.00    +0.000 NA
ATOM     19  H   UNL     1       0.015   2.949  21.281  0.00  0.00    +0.000 HD
ENDBRANCH  11  14
ENDBRANCH   8  11
ENDBRANCH   2   5
BRANCH   1  20
ATOM     20  C   UNL     1       7.834   9.341  17.461  0.00  0.00    +0.000 C 
BRANCH  20  21
ATOM     21  C   UNL     1       8.405  10.501  18.268  0.00  0.00    +0.000 C 
BRANCH  21  22
ATOM     22  C   UNL     1       9.412  10.030  19.321  0.00  0.00    +0.000 C 
BRANCH  22  23
ATOM     23  N   UNL     1      10.214  11.147  19.834  0.00  0.00    +0.000 N 
BRANCH  23  24
ATOM     24  C   UNL     1       9.722  11.972  20.859  0.00  0.00    +0.000 A 
ATOM     25  C   UNL     1       8.792  11.505  21.806  0.00  0.00    +0.000 A 
ATOM     26  C   UNL     1       8.301  12.304  22.844  0.00  0.00    +0.000 A 
ATOM     27  C   UNL     1       8.725  13.619  22.971  0.00  0.00    +0.000 A 
ATOM     28  C   UNL     1       9.640  14.136  22.057  0.00  0.00    +0.000 A 
ATOM     29  C   UNL     1      10.114  15.555  22.169  0.00  0.00    +0.000 C 
ATOM     30  C   UNL     1      10.122  13.314  21.018  0.00  0.00    +0.000 A 
ENDBRANCH  23  24
BRANCH  23  32
ATOM     31  C   UNL     1      11.639  12.002  17.891  0.00  0.00    +0.000 C 
ATOM     32  C   UNL     1      11.556  11.437  19.298  0.00  0.00    +0.000 C 
ENDBRANCH  23  32
ENDBRANCH  22  23
ENDBRANCH  21  22
ENDBRANCH  20  21
ENDBRANCH   1  20
TORSDOF 9
ENDMDL
MODEL 3
REMARK VINA RESULT:      -8.0      4.887      7.055
REMARK  Name = 
REMARK  11 active torsions:
REMARK  status: ('A' for Active; 'I' for Inactive)
REMARK    1  A    between atoms: C_1  and  C_2
REMARK    2  A    between atoms: C_2  and  N_3
REMARK    3  A    between atoms: N_3  and  C_4
REMARK    4  A    between atoms: N_3  and  C_24
REMARK    5  A    between atoms: C_4  and  C_5
REMARK    6  A    between atoms: C_5  and  C_6
REMARK    7  A    between atoms: C_6  and  N_7
REMARK    8  A    between atoms: C_8  and  C_10
REMARK    9  A    between atoms: N_13  and  S_14
REMARK   10  A    between atoms: S_14  and  C_17
REMARK   11  A    between atoms: C_28  and  C_29
REMARK                            x       y       z     vdW  Elec       q    Type
REMARK                         _______ _______ _______ _____ _____    ______ ____
ROOT
ATOM      1  N   UNL     1       4.150   7.219  17.733  0.00  0.00    +0.000 N 
ATOM      2  C   UNL     1       5.045   6.727  16.810  0.00  0.00    +0.000 C 
ATOM      3  O   UNL     1       4.976   7.007  15.619  0.00  0.00    +0.000 OA
ATOM      4  H   UNL     1       4.408   7.195  18.711  0.00  0.00    +0.000 HD
ENDROOT
BRANCH   2   5
ATOM      5  C   UNL     1       6.138   5.832  17.398  0.00  0.00    +0.000 C 
ATOM      6  C   UNL     1       6.298   4.549  16.578  0.00  0.00    +0.000 C 
ATOM      7  C   UNL     1       5.069   3.646  16.685  0.00  0.00    +0.000 C 
ATOM      8  N   UNL     1       4.727   3.365  18.111  0.00  0.00    +0.000 NA
ATOM      9  C   UNL     1       4.601   4.579  18.954  0.00  0.00    +0.000 C 
ATOM     10  C   UNL     1       5.854   5.441  18.851  0.00  0.00    +0.000 C 
BRANCH   8  11
ATOM     11  S   UNL     1       3.348   2.338  18.266  0.00  0.00    +0.000 S 
ATOM     12  O   UNL     1       2.355   2.761  17.297  0.00  0.00    +0.000 OA
ATOM     13  O   UNL     1       3.793   0.962  18.317  0.00  0.00    +0.000 OA
BRANCH  11  14
ATOM     14  C   UNL     1       2.573   2.609  19.803  0.00  0.00    +0.000 A 
ATOM     15  C   UNL     1       3.174   2.490  21.041  0.00  0.00    +0.000 A 
ATOM     16  N   UNL     1       2.193   2.788  21.944  0.00  0.00    +0.000 N 
ATOM     17  C   UNL     1       1.055   3.076  21.243  0.00  0.00    +0.000 A 
ATOM     18  N   UNL     1       1.244   2.978  19.949  0.00  0.00    +0.000 NA
ATOM     19  H   UNL     1       2.285   2.796  22.952  0.00  0.00    +0.000 HD
ENDBRANCH  11  14
ENDBRANCH   8  11
ENDBRANCH   2   5
BRANCH   1  20
ATOM     20  C   UNL     1       3.059   8.067  17.293  0.00  0.00    +0.000 C 
BRANCH  20  21
ATOM     21  C   UNL     1       2.123   8.497  18.416  0.00  0.00    +0.000 C 
BRANCH  21  22
ATOM     22  C   UNL     1       1.345   9.768  18.062  0.00  0.00    +0.000 C 
BRANCH  22  23
ATOM     23  N   UNL     1       0.160   9.927  18.912  0.00  0.00    +0.000 N 
BRANCH  23  24
ATOM     24  C   UNL     1      -1.065  10.346  18.366  0.00  0.00    +0.000 A 
ATOM     25  C   UNL     1      -1.935  11.202  19.067  0.00  0.00    +0.000 A 
ATOM     26  C   UNL     1      -3.151  11.645  18.537  0.00  0.00    +0.000 A 
ATOM     27  C   UNL     1      -3.548  11.239  17.271  0.00  0.00    +0.000 A 
ATOM     28  C   UNL     1      -2.728  10.388  16.535  0.00  0.00    +0.000 A 
ATOM     29  C   UNL     1      -3.134   9.931  15.164  0.00  0.00    +0.000 C 
ATOM     30  C   UNL     1      -1.507   9.952  17.088  0.00  0.00    +0.000 A 
ENDBRANCH  23  24
BRANCH  23  32
ATOM     31  C   UNL     1       0.775  10.736  21.259  0.00  0.00    +0.000 C 
ATOM     32  C   UNL     1       0.211   9.650  20.359  0.00  0.00    +0.000 C 
ENDBRANCH  23  32
ENDBRANCH  22  23
ENDBRANCH  21  22
ENDBRANCH  20  21
ENDBRANCH   1  20
TORSDOF 9
ENDMDL
MODEL 4
REMARK VINA RESULT:      -8.0      4.964      6.919
REMARK  Name = 
REMARK  11 active torsions:
REMARK  status: ('A' for Active; 'I' for Inactive)
REMARK    1  A    between atoms: C_1  and  C_2
REMARK    2  A    between atoms: C_2  and  N_3
REMARK    3  A    between atoms: N_3  and  C_4
REMARK    4  A    between atoms: N_3  and  C_24
REMARK    5  A    between atoms: C_4  and  C_5
REMARK    6  A    between atoms: C_5  and  C_6
REMARK    7  A    between atoms: C_6  and  N_7
REMARK    8  A    between atoms: C_8  and  C_10
REMARK    9  A    between atoms: N_13  and  S_14
REMARK   10  A    between atoms: S_14  and  C_17
REMARK   11  A    between atoms: C_28  and  C_29
REMARK                            x       y       z     vdW  Elec       q    Type
REMARK                         _______ _______ _______ _____ _____    ______ ____
ROOT
ATOM      1  N   UNL     1       4.227   7.121  17.782  0.00  0.00    +0.000 N 
ATOM      2  C   UNL     1       5.116   6.679  16.828  0.00  0.00    +0.000 C 
ATOM      3  O   UNL     1       5.060   7.050  15.661  0.00  0.00    +0.000 OA
ATOM      4  H   UNL     1       4.479   7.017  18.757  0.00  0.00    +0.000 HD
ENDROOT
BRANCH   2   5
ATOM      5  C   UNL     1       6.184   5.715  17.351  0.00  0.00    +0.000 C 
ATOM      6  C   UNL     1       6.272   4.463  16.473  0.00  0.00    +0.000 C 
ATOM      7  C   UNL     1       5.010   3.607  16.573  0.00  0.00    +0.000 C 
ATOM      8  N   UNL     1       4.689   3.279  17.993  0.00  0.00    +0.000 NA
ATOM      9  C   UNL     1       4.632   4.460  18.890  0.00  0.00    +0.000 C 
ATOM     10  C   UNL     1       5.917   5.274  18.792  0.00  0.00    +0.000 C 
BRANCH   8  11
ATOM     11  S   UNL     1       3.273   2.302  18.139  0.00  0.00    +0.000 S 
ATOM     12  O   UNL     1       2.399   2.600  17.020  0.00  0.00    +0.000 OA
ATOM     13  O   UNL     1       3.671   0.941  18.426  0.00  0.00    +0.000 OA
BRANCH  11  14
ATOM     14  C   UNL     1       2.349   2.796  19.532  0.00  0.00    +0.000 A 
ATOM     15  C   UNL     1       1.160   3.499  19.503  0.00  0.00    +0.000 A 
ATOM     16  N   UNL     1       0.812   3.664  20.814  0.00  0.00    +0.000 N 
ATOM     17  C   UNL     1       1.775   3.068  21.579  0.00  0.00    +0.000 A 
ATOM     18  N   UNL     1       2.720   2.535  20.843  0.00  0.00    +0.000 NA
ATOM     19  H   UNL     1      -0.011   4.141  21.162  0.00  0.00    +0.000 HD
ENDBRANCH  11  14
ENDBRANCH   8  11
ENDBRANCH   2   5
BRANCH   1  20
ATOM     20  C   UNL     1       3.159   8.025  17.403  0.00  0.00    +0.000 C 
BRANCH  20  21
ATOM     21  C   UNL     1       2.133   8.261  18.505  0.00  0.00    +0.000 C 
BRANCH  21  22
ATOM     22  C   UNL     1       1.247   9.477  18.217  0.00  0.00    +0.000 C 
BRANCH  22  23
ATOM     23  N   UNL     1       0.401   9.810  19.368  0.00  0.00    +0.000 N 
BRANCH  23  24
ATOM     24  C   UNL     1      -0.805  10.510  19.194  0.00  0.00    +0.000 A 
ATOM     25  C   UNL     1      -1.143  11.614  19.998  0.00  0.00    +0.000 A 
ATOM     26  C   UNL     1      -2.330  12.336  19.833  0.00  0.00    +0.000 A 
ATOM     27  C   UNL     1      -3.235  11.972  18.847  0.00  0.00    +0.000 A 
ATOM     28  C   UNL     1      -2.954  10.883  18.026  0.00  0.00    +0.000 A 
ATOM     29  C   UNL     1      -3.916  10.465  16.953  0.00  0.00    +0.000 C 
ATOM     30  C   UNL     1      -1.753  10.168  18.209  0.00  0.00    +0.000 A 
ENDBRANCH  23  24
BRANCH  23  32
ATOM     31  C   UNL     1      -0.266   8.714  21.580  0.00  0.00    +0.000 C 
ATOM     32  C   UNL     1       0.782   9.421  20.738  0.00  0.00    +0.000 C 
ENDBRANCH  23  32
ENDBRANCH  22  23
ENDBRANCH  21  22
ENDBRANCH  20  21
ENDBRANCH   1  20
TORSDOF 9
ENDMDL
MODEL 5
REMARK VINA RESULT:      -8.0      5.060      8.003
REMARK  Name = 
REMARK  11 active torsions:
REMARK  status: ('A' for Active; 'I' for Inactive)
REMARK    1  A    between atoms: C_1  and  C_2
REMARK    2  A    between atoms: C_2  and  N_3
REMARK    3  A    between atoms: N_3  and  C_4
REMARK    4  A    between atoms: N_3  and  C_24
REMARK    5  A    between atoms: C_4  and  C_5
REMARK    6  A    between atoms: C_5  and  C_6
REMARK    7  A    between atoms: C_6  and  N_7
REMARK    8  A    between atoms: C_8  and  C_10
REMARK    9  A    between atoms: N_13  and  S_14
REMARK   10  A    between atoms: S_14  and  C_17
REMARK   11  A    between atoms: C_28  and  C_29
REMARK                            x       y       z     vdW  Elec       q    Type
REMARK                         _______ _______ _______ _____ _____    ______ ____
ROOT
ATOM      1  N   UNL     1       1.456   6.068  20.030  0.00  0.00    +0.000 N 
ATOM      2  C   UNL     1       1.946   4.852  20.450  0.00  0.00    +0.000 C 
ATOM      3  O   UNL     1       2.339   4.667  21.597  0.00  0.00    +0.000 OA
ATOM      4  H   UNL     1       0.895   6.093  19.188  0.00  0.00    +0.000 HD
ENDROOT
BRANCH   2   5
ATOM      5  C   UNL     1       1.935   3.757  19.381  0.00  0.00    +0.000 C 
ATOM      6  C   UNL     1       3.127   2.811  19.551  0.00  0.00    +0.000 C 
ATOM      7  C   UNL     1       4.456   3.509  19.262  0.00  0.00    +0.000 C 
ATOM      8  N   UNL     1       4.442   4.164  17.921  0.00  0.00    +0.000 NA
ATOM      9  C   UNL     1       3.281   5.061  17.697  0.00  0.00    +0.000 C 
ATOM     10  C   UNL     1       1.972   4.327  17.961  0.00  0.00    +0.000 C 
BRANCH   8  11
ATOM     11  S   UNL     1       5.934   4.954  17.559  0.00  0.00    +0.000 S 
ATOM     12  O   UNL     1       5.713   6.387  17.611  0.00  0.00    +0.000 OA
ATOM     13  O   UNL     1       6.989   4.340  18.336  0.00  0.00    +0.000 OA
BRANCH  11  14
ATOM     14  C   UNL     1       6.377   4.660  15.900  0.00  0.00    +0.000 A 
ATOM     15  C   UNL     1       5.871   3.657  15.096  0.00  0.00    +0.000 A 
ATOM     16  N   UNL     1       6.505   3.809  13.895  0.00  0.00    +0.000 N 
ATOM     17  C   UNL     1       7.353   4.875  14.004  0.00  0.00    +0.000 A 
ATOM     18  N   UNL     1       7.305   5.415  15.198  0.00  0.00    +0.000 NA
ATOM     19  H   UNL     1       6.374   3.237  13.070  0.00  0.00    +0.000 HD
ENDBRANCH  11  14
ENDBRANCH   8  11
ENDBRANCH   2   5
BRANCH   1  20
ATOM     20  C   UNL     1       1.432   7.189  20.950  0.00  0.00    +0.000 C 
BRANCH  20  21
ATOM     21  C   UNL     1       1.353   8.547  20.262  0.00  0.00    +0.000 C 
BRANCH  21  22
ATOM     22  C   UNL     1       0.348   9.480  20.944  0.00  0.00    +0.000 C 
BRANCH  22  23
ATOM     23  N   UNL     1       0.172  10.725  20.187  0.00  0.00    +0.000 N 
BRANCH  23  24
ATOM     24  C   UNL     1      -0.998  10.954  19.444  0.00  0.00    +0.000 A 
ATOM     25  C   UNL     1      -1.975  11.876  19.866  0.00  0.00    +0.000 A 
ATOM     26  C   UNL     1      -3.140  12.133  19.135  0.00  0.00    +0.000 A 
ATOM     27  C   UNL     1      -3.375  11.464  17.943  0.00  0.00    +0.000 A 
ATOM     28  C   UNL     1      -2.445  10.536  17.481  0.00  0.00    +0.000 A 
ATOM     29  C   UNL     1      -2.675   9.796  16.196  0.00  0.00    +0.000 C 
ATOM     30  C   UNL     1      -1.278  10.291  18.233  0.00  0.00    +0.000 A 
ENDBRANCH  23  24
BRANCH  23  32
ATOM     31  C   UNL     1       1.742  12.222  18.832  0.00  0.00    +0.000 C 
ATOM     32  C   UNL     1       1.209  11.772  20.181  0.00  0.00    +0.000 C 
ENDBRANCH  23  32
ENDBRANCH  22  23
ENDBRANCH  21  22
ENDBRANCH  20  21
ENDBRANCH   1  20
TORSDOF 9
ENDMDL
MODEL 6
REMARK VINA RESULT:      -7.9      4.926      7.218
REMARK  Name = 
REMARK  11 active torsions:
REMARK  status: ('A' for Active; 'I' for Inactive)
REMARK    1  A    between atoms: C_1  and  C_2
REMARK    2  A    between atoms: C_2  and  N_3
REMARK    3  A    between atoms: N_3  and  C_4
REMARK    4  A    between atoms: N_3  and  C_24
REMARK    5  A    between atoms: C_4  and  C_5
REMARK    6  A    between atoms: C_5  and  C_6
REMARK    7  A    between atoms: C_6  and  N_7
REMARK    8  A    between atoms: C_8  and  C_10
REMARK    9  A    between atoms: N_13  and  S_14
REMARK   10  A    between atoms: S_14  and  C_17
REMARK   11  A    between atoms: C_28  and  C_29
REMARK                            x       y       z     vdW  Elec       q    Type
REMARK                         _______ _______ _______ _____ _____    ______ ____
ROOT
ATOM      1  N   UNL     1       3.167   8.064  17.808  0.00  0.00    +0.000 N 
ATOM      2  C   UNL     1       3.294   6.692  17.792  0.00  0.00    +0.000 C 
ATOM      3  O   UNL     1       2.363   5.946  18.072  0.00  0.00    +0.000 OA
ATOM      4  H   UNL     1       3.853   8.614  17.307  0.00  0.00    +0.000 HD
ENDROOT
BRANCH   2   5
ATOM      5  C   UNL     1       4.677   6.186  17.374  0.00  0.00    +0.000 C 
ATOM      6  C   UNL     1       4.562   4.944  16.485  0.00  0.00    +0.000 C 
ATOM      7  C   UNL     1       4.014   3.742  17.254  0.00  0.00    +0.000 C 
ATOM      8  N   UNL     1       4.811   3.481  18.490  0.00  0.00    +0.000 NA
ATOM      9  C   UNL     1       4.982   4.668  19.362  0.00  0.00    +0.000 C 
ATOM     10  C   UNL     1       5.559   5.839  18.575  0.00  0.00    +0.000 C 
BRANCH   8  11
ATOM     11  S   UNL     1       4.223   2.121  19.376  0.00  0.00    +0.000 S 
ATOM     12  O   UNL     1       3.760   1.126  18.427  0.00  0.00    +0.000 OA
ATOM     13  O   UNL     1       5.188   1.776  20.398  0.00  0.00    +0.000 OA
BRANCH  11  14
ATOM     14  C   UNL     1       2.784   2.560  20.256  0.00  0.00    +0.000 A 
ATOM     15  C   UNL     1       2.645   2.548  21.630  0.00  0.00    +0.000 A 
ATOM     16  N   UNL     1       1.361   2.956  21.861  0.00  0.00    +0.000 N 
ATOM     17  C   UNL     1       0.777   3.200  20.650  0.00  0.00    +0.000 A 
ATOM     18  N   UNL     1       1.602   2.971  19.657  0.00  0.00    +0.000 NA
ATOM     19  H   UNL     1       0.917   3.061  22.765  0.00  0.00    +0.000 HD
ENDBRANCH  11  14
ENDBRANCH   8  11
ENDBRANCH   2   5
BRANCH   1  20
ATOM     20  C   UNL     1       1.907   8.662  18.204  0.00  0.00    +0.000 C 
BRANCH  20  21
ATOM     21  C   UNL     1       1.819  10.156  17.916  0.00  0.00    +0.000 C 
BRANCH  21  22
ATOM     22  C   UNL     1       1.219  10.935  19.090  0.00  0.00    +0.000 C 
BRANCH  22  23
ATOM     23  N   UNL     1      -0.076  10.380  19.498  0.00  0.00    +0.000 N 
BRANCH  23  24
ATOM     24  C   UNL     1      -1.242  10.665  18.768  0.00  0.00    +0.000 A 
ATOM     25  C   UNL     1      -2.217  11.560  19.247  0.00  0.00    +0.000 A 
ATOM     26  C   UNL     1      -3.377  11.871  18.531  0.00  0.00    +0.000 A 
ATOM     27  C   UNL     1      -3.610  11.288  17.294  0.00  0.00    +0.000 A 
ATOM     28  C   UNL     1      -2.681  10.390  16.774  0.00  0.00    +0.000 A 
ATOM     29  C   UNL     1      -2.907   9.742  15.439  0.00  0.00    +0.000 C 
ATOM     30  C   UNL     1      -1.518  10.089  17.512  0.00  0.00    +0.000 A 
ENDBRANCH  23  24
BRANCH  23  32
ATOM     31  C   UNL     1      -0.013  10.145  22.044  0.00  0.00    +0.000 C 
ATOM     32  C   UNL     1      -0.198   9.505  20.678  0.00  0.00    +0.000 C 
ENDBRANCH  23  32
ENDBRANCH  22  23
ENDBRANCH  21  22
ENDBRANCH  20  21
ENDBRANCH   1  20
TORSDOF 9
ENDMDL
MODEL 7
REMARK VINA RESULT:      -7.8      5.011      7.892
REMARK  Name = 
REMARK  11 active torsions:
REMARK  status: ('A' for Active; 'I' for Inactive)
REMARK    1  A    between atoms: C_1  and  C_2
REMARK    2  A    between atoms: C_2  and  N_3
REMARK    3  A    between atoms: N_3  and  C_4
REMARK    4  A    between atoms: N_3  and  C_24
REMARK    5  A    between atoms: C_4  and  C_5
REMARK    6  A    between atoms: C_5  and  C_6
REMARK    7  A    between atoms: C_6  and  N_7
REMARK    8  A    between atoms: C_8  and  C_10
REMARK    9  A    between atoms: N_13  and  S_14
REMARK   10  A    between atoms: S_14  and  C_17
REMARK   11  A    between atoms: C_28  and  C_29
REMARK                            x       y       z     vdW  Elec       q    Type
REMARK                         _______ _______ _______ _____ _____    ______ ____
ROOT
ATOM      1  N   UNL     1       1.443   6.417  20.100  0.00  0.00    +0.000 N 
ATOM      2  C   UNL     1       1.902   5.158  20.418  0.00  0.00    +0.000 C 
ATOM      3  O   UNL     1       2.341   4.884  21.530  0.00  0.00    +0.000 OA
ATOM      4  H   UNL     1       0.844   6.519  19.291  0.00  0.00    +0.000 HD
ENDROOT
BRANCH   2   5
ATOM      5  C   UNL     1       1.792   4.136  19.285  0.00  0.00    +0.000 C 
ATOM      6  C   UNL     1       2.884   3.068  19.400  0.00  0.00    +0.000 C 
ATOM      7  C   UNL     1       4.277   3.650  19.156  0.00  0.00    +0.000 C 
ATOM      8  N   UNL     1       4.337   4.382  17.856  0.00  0.00    +0.000 NA
ATOM      9  C   UNL     1       3.272   5.400  17.684  0.00  0.00    +0.000 C 
ATOM     10  C   UNL     1       1.895   4.783  17.902  0.00  0.00    +0.000 C 
BRANCH   8  11
ATOM     11  S   UNL     1       5.902   5.042  17.546  0.00  0.00    +0.000 S 
ATOM     12  O   UNL     1       5.804   6.489  17.602  0.00  0.00    +0.000 OA
ATOM     13  O   UNL     1       6.876   4.335  18.349  0.00  0.00    +0.000 OA
BRANCH  11  14
ATOM     14  C   UNL     1       6.369   4.720  15.898  0.00  0.00    +0.000 A 
ATOM     15  C   UNL     1       5.921   3.666  15.125  0.00  0.00    +0.000 A 
ATOM     16  N   UNL     1       6.552   3.813  13.922  0.00  0.00    +0.000 N 
ATOM     17  C   UNL     1       7.342   4.926  13.999  0.00  0.00    +0.000 A 
ATOM     18  N   UNL     1       7.259   5.500  15.175  0.00  0.00    +0.000 NA
ATOM     19  H   UNL     1       6.457   3.209  13.116  0.00  0.00    +0.000 HD
ENDBRANCH  11  14
ENDBRANCH   8  11
ENDBRANCH   2   5
BRANCH   1  20
ATOM     20  C   UNL     1       1.512   7.477  21.088  0.00  0.00    +0.000 C 
BRANCH  20  21
ATOM     21  C   UNL     1       0.725   8.725  20.706  0.00  0.00    +0.000 C 
BRANCH  21  22
ATOM     22  C   UNL     1       1.242   9.359  19.411  0.00  0.00    +0.000 C 
BRANCH  22  23
ATOM     23  N   UNL     1       0.579  10.639  19.138  0.00  0.00    +0.000 N 
BRANCH  23  24
ATOM     24  C   UNL     1      -0.737  10.675  18.648  0.00  0.00    +0.000 A 
ATOM     25  C   UNL     1      -1.139   9.901  17.544  0.00  0.00    +0.000 A 
ATOM     26  C   UNL     1      -2.447   9.909  17.049  0.00  0.00    +0.000 A 
ATOM     27  C   UNL     1      -3.412  10.706  17.646  0.00  0.00    +0.000 A 
ATOM     28  C   UNL     1      -3.069  11.497  18.739  0.00  0.00    +0.000 A 
ATOM     29  C   UNL     1      -4.092  12.370  19.404  0.00  0.00    +0.000 C 
ATOM     30  C   UNL     1      -1.745  11.475  19.222  0.00  0.00    +0.000 A 
ENDBRANCH  23  24
BRANCH  23  32
ATOM     31  C   UNL     1       2.277  12.372  18.329  0.00  0.00    +0.000 C 
ATOM     32  C   UNL     1       1.265  11.923  19.369  0.00  0.00    +0.000 C 
ENDBRANCH  23  32
ENDBRANCH  22  23
ENDBRANCH  21  22
ENDBRANCH  20  21
ENDBRANCH   1  20
TORSDOF 9
ENDMDL
MODEL 8
REMARK VINA RESULT:      -7.8      4.778      6.993
REMARK  Name = 
REMARK  11 active torsions:
REMARK  status: ('A' for Active; 'I' for Inactive)
REMARK    1  A    between atoms: C_1  and  C_2
REMARK    2  A    between atoms: C_2  and  N_3
REMARK    3  A    between atoms: N_3  and  C_4
REMARK    4  A    between atoms: N_3  and  C_24
REMARK    5  A    between atoms: C_4  and  C_5
REMARK    6  A    between atoms: C_5  and  C_6
REMARK    7  A    between atoms: C_6  and  N_7
REMARK    8  A    between atoms: C_8  and  C_10
REMARK    9  A    between atoms: N_13  and  S_14
REMARK   10  A    between atoms: S_14  and  C_17
REMARK   11  A    between atoms: C_28  and  C_29
REMARK                            x       y       z     vdW  Elec       q    Type
REMARK                         _______ _______ _______ _____ _____    ______ ____
ROOT
ATOM      1  N   UNL     1       3.129   7.926  17.947  0.00  0.00    +0.000 N 
ATOM      2  C   UNL     1       3.251   6.559  17.830  0.00  0.00    +0.000 C 
ATOM      3  O   UNL     1       2.304   5.801  18.008  0.00  0.00    +0.000 OA
ATOM      4  H   UNL     1       3.839   8.509  17.524  0.00  0.00    +0.000 HD
ENDROOT
BRANCH   2   5
ATOM      5  C   UNL     1       4.649   6.077  17.438  0.00  0.00    +0.000 C 
ATOM      6  C   UNL     1       4.573   4.818  16.570  0.00  0.00    +0.000 C 
ATOM      7  C   UNL     1       4.042   3.617  17.353  0.00  0.00    +0.000 C 
ATOM      8  N   UNL     1       4.828   3.395  18.602  0.00  0.00    +0.000 NA
ATOM      9  C   UNL     1       4.962   4.600  19.456  0.00  0.00    +0.000 C 
ATOM     10  C   UNL     1       5.524   5.770  18.655  0.00  0.00    +0.000 C 
BRANCH   8  11
ATOM     11  S   UNL     1       4.259   2.038  19.505  0.00  0.00    +0.000 S 
ATOM     12  O   UNL     1       3.838   1.013  18.568  0.00  0.00    +0.000 OA
ATOM     13  O   UNL     1       5.214   1.737  20.550  0.00  0.00    +0.000 OA
BRANCH  11  14
ATOM     14  C   UNL     1       2.794   2.456  20.350  0.00  0.00    +0.000 A 
ATOM     15  C   UNL     1       1.578   2.743  19.762  0.00  0.00    +0.000 A 
ATOM     16  N   UNL     1       0.735   3.016  20.802  0.00  0.00    +0.000 N 
ATOM     17  C   UNL     1       1.447   2.888  21.961  0.00  0.00    +0.000 A 
ATOM     18  N   UNL     1       2.694   2.552  21.730  0.00  0.00    +0.000 NA
ATOM     19  H   UNL     1      -0.243   3.270  20.733  0.00  0.00    +0.000 HD
ENDBRANCH  11  14
ENDBRANCH   8  11
ENDBRANCH   2   5
BRANCH   1  20
ATOM     20  C   UNL     1       1.854   8.502  18.331  0.00  0.00    +0.000 C 
BRANCH  20  21
ATOM     21  C   UNL     1       1.648   8.589  19.838  0.00  0.00    +0.000 C 
BRANCH  21  22
ATOM     22  C   UNL     1       0.460   9.482  20.207  0.00  0.00    +0.000 C 
BRANCH  22  23
ATOM     23  N   UNL     1       0.262  10.547  19.218  0.00  0.00    +0.000 N 
BRANCH  23  24
ATOM     24  C   UNL     1      -0.996  10.754  18.628  0.00  0.00    +0.000 A 
ATOM     25  C   UNL     1      -1.967  11.583  19.222  0.00  0.00    +0.000 A 
ATOM     26  C   UNL     1      -3.220  11.815  18.646  0.00  0.00    +0.000 A 
ATOM     27  C   UNL     1      -3.554  11.216  17.440  0.00  0.00    +0.000 A 
ATOM     28  C   UNL     1      -2.633  10.381  16.811  0.00  0.00    +0.000 A 
ATOM     29  C   UNL     1      -2.969   9.718  15.507  0.00  0.00    +0.000 C 
ATOM     30  C   UNL     1      -1.377  10.159  17.409  0.00  0.00    +0.000 A 
ENDBRANCH  23  24
BRANCH  23  32
ATOM     31  C   UNL     1       1.414  12.821  19.432  0.00  0.00    +0.000 C 
ATOM     32  C   UNL     1       1.368  11.434  18.813  0.00  0.00    +0.000 C 
ENDBRANCH  23  32
ENDBRANCH  22  23
ENDBRANCH  21  22
ENDBRANCH  20  21
ENDBRANCH   1  20
TORSDOF 9
ENDMDL
MODEL 9
REMARK VINA RESULT:      -7.8      5.163      7.408
REMARK  Name = 
REMARK  11 active torsions:
REMARK  status: ('A' for Active; 'I' for Inactive)
REMARK    1  A    between atoms: C_1  and  C_2
REMARK    2  A    between atoms: C_2  and  N_3
REMARK    3  A    between atoms: N_3  and  C_4
REMARK    4  A    between atoms: N_3  and  C_24
REMARK    5  A    between atoms: C_4  and  C_5
REMARK    6  A    between atoms: C_5  and  C_6
REMARK    7  A    between atoms: C_6  and  N_7
REMARK    8  A    between atoms: C_8  and  C_10
REMARK    9  A    between atoms: N_13  and  S_14
REMARK   10  A    between atoms: S_14  and  C_17
REMARK   11  A    between atoms: C_28  and  C_29
REMARK                            x       y       z     vdW  Elec       q    Type
REMARK                         _______ _______ _______ _____ _____    ______ ____
ROOT
ATOM      1  N   UNL     1       3.257   7.795  18.311  0.00  0.00    +0.000 N 
ATOM      2  C   UNL     1       3.242   6.502  17.835  0.00  0.00    +0.000 C 
ATOM      3  O   UNL     1       2.212   5.841  17.771  0.00  0.00    +0.000 OA
ATOM      4  H   UNL     1       4.050   8.380  18.084  0.00  0.00    +0.000 HD
ENDROOT
BRANCH   2   5
ATOM      5  C   UNL     1       4.604   5.980  17.373  0.00  0.00    +0.000 C 
ATOM      6  C   UNL     1       4.450   4.709  16.532  0.00  0.00    +0.000 C 
ATOM      7  C   UNL     1       3.935   3.534  17.364  0.00  0.00    +0.000 C 
ATOM      8  N   UNL     1       4.785   3.312  18.571  0.00  0.00    +0.000 NA
ATOM      9  C   UNL     1       4.996   4.528  19.395  0.00  0.00    +0.000 C 
ATOM     10  C   UNL     1       5.539   5.670  18.545  0.00  0.00    +0.000 C 
BRANCH   8  11
ATOM     11  S   UNL     1       4.236   1.984  19.527  0.00  0.00    +0.000 S 
ATOM     12  O   UNL     1       3.809   0.925  18.632  0.00  0.00    +0.000 OA
ATOM     13  O   UNL     1       5.207   1.725  20.569  0.00  0.00    +0.000 OA
BRANCH  11  14
ATOM     14  C   UNL     1       2.780   2.424  20.378  0.00  0.00    +0.000 A 
ATOM     15  C   UNL     1       1.563   2.715  19.793  0.00  0.00    +0.000 A 
ATOM     16  N   UNL     1       0.728   3.006  20.836  0.00  0.00    +0.000 N 
ATOM     17  C   UNL     1       1.447   2.882  21.992  0.00  0.00    +0.000 A 
ATOM     18  N   UNL     1       2.689   2.533  21.757  0.00  0.00    +0.000 NA
ATOM     19  H   UNL     1      -0.247   3.267  20.770  0.00  0.00    +0.000 HD
ENDBRANCH  11  14
ENDBRANCH   8  11
ENDBRANCH   2   5
BRANCH   1  20
ATOM     20  C   UNL     1       2.028   8.394  18.795  0.00  0.00    +0.000 C 
BRANCH  20  21
ATOM     21  C   UNL     1       1.346   9.302  17.779  0.00  0.00    +0.000 C 
BRANCH  21  22
ATOM     22  C   UNL     1       0.832  10.597  18.416  0.00  0.00    +0.000 C 
BRANCH  22  23
ATOM     23  N   UNL     1      -0.477  10.401  19.048  0.00  0.00    +0.000 N 
BRANCH  23  24
ATOM     24  C   UNL     1      -1.661  10.539  18.304  0.00  0.00    +0.000 A 
ATOM     25  C   UNL     1      -1.844   9.882  17.073  0.00  0.00    +0.000 A 
ATOM     26  C   UNL     1      -3.019   9.991  16.323  0.00  0.00    +0.000 A 
ATOM     27  C   UNL     1      -4.067  10.777  16.781  0.00  0.00    +0.000 A 
ATOM     28  C   UNL     1      -3.938  11.455  17.991  0.00  0.00    +0.000 A 
ATOM     29  C   UNL     1      -5.055  12.313  18.509  0.00  0.00    +0.000 C 
ATOM     30  C   UNL     1      -2.745  11.332  18.731  0.00  0.00    +0.000 A 
ENDBRANCH  23  24
BRANCH  23  32
ATOM     31  C   UNL     1      -0.394  11.168  21.486  0.00  0.00    +0.000 C 
ATOM     32  C   UNL     1      -0.596  10.053  20.475  0.00  0.00    +0.000 C 
ENDBRANCH  23  32
ENDBRANCH  22  23
ENDBRANCH  21  22
ENDBRANCH  20  21
ENDBRANCH   1  20
TORSDOF 9
ENDMDL
