MODEL 1
REMARK VINA RESULT:      -7.4      0.000      0.000
REMARK  Name = 
REMARK  13 active torsions:
REMARK  status: ('A' for Active; 'I' for Inactive)
REMARK    1  A    between atoms: C_2  and  C_3
REMARK    2  A    between atoms: C_3  and  C_4
REMARK    3  A    between atoms: C_7  and  O_8
REMARK    4  A    between atoms: O_8  and  C_9
REMARK    5  A    between atoms: C_9  and  C_10
REMARK    6  A    between atoms: C_10  and  C_11
REMARK    7  A    between atoms: C_11  and  C_12
REMARK    8  A    between atoms: N_14  and  C_15
REMARK    9  A    between atoms: C_15  and  C_16
REMARK   10  A    between atoms: C_19  and  O_20
REMARK   11  A    between atoms: O_20  and  C_21
REMARK   12  A    between atoms: C_26  and  O_27
REMARK   13  A    between atoms: O_27  and  C_28
REMARK                            x       y       z     vdW  Elec       q    Type
REMARK                         _______ _______ _______ _____ _____    ______ ____
ROOT
ATOM      1  C   UNL     1       2.074   6.565  20.555  0.00  0.00    +0.000 C 
ENDROOT
BRANCH   1   2
ATOM      2  C   UNL     1       1.498   7.923  20.423  0.00  0.00    +0.000 A 
ATOM      3  C   UNL     1       1.626   8.812  19.380  0.00  0.00    +0.000 A 
ATOM      4  N   UNL     1       0.855   9.869  19.755  0.00  0.00    +0.000 N 
ATOM      5  N   UNL     1       0.289   9.659  20.957  0.00  0.00    +0.000 NA
ATOM      6  N   UNL     1       0.690   8.470  21.383  0.00  0.00    +0.000 NA
BRANCH   4   7
ATOM      7  C   UNL     1       0.487  11.029  18.965  0.00  0.00    +0.000 C 
BRANCH   7   8
ATOM      8  C   UNL     1      -0.963  11.024  18.557  0.00  0.00    +0.000 A 
ATOM      9  C   UNL     1      -1.438  10.090  17.626  0.00  0.00    +0.000 A 
ATOM     10  C   UNL     1      -2.798  10.034  17.311  0.00  0.00    +0.000 A 
ATOM     11  C   UNL     1      -3.707  10.893  17.932  0.00  0.00    +0.000 A 
ATOM     12  C   UNL     1      -3.240  11.847  18.833  0.00  0.00    +0.000 A 
ATOM     13  C   UNL     1      -1.878  11.912  19.145  0.00  0.00    +0.000 A 
BRANCH  11  14
ATOM     14  O   UNL     1      -5.013  10.737  17.557  0.00  0.00    +0.000 OA
ATOM     15  C   UNL     1      -5.974  11.021  18.568  0.00  0.00    +0.000 C 
ENDBRANCH  11  14
ENDBRANCH   7   8
ENDBRANCH   4   7
ENDBRANCH   1   2
BRANCH   1  16
ATOM     16  C   UNL     1       2.540   5.924  19.241  0.00  0.00    +0.000 C 
BRANCH  16  17
ATOM     17  C   UNL     1       2.805   4.449  19.502  0.00  0.00    +0.000 C 
BRANCH  17  18
ATOM     18  O   UNL     1       4.199   4.120  19.553  0.00  0.00    +0.000 OA
BRANCH  18  22
ATOM     19  C   UNL     1       6.147   4.434  15.838  0.00  0.00    +0.000 A 
ATOM     20  C   UNL     1       4.814   4.046  15.898  0.00  0.00    +0.000 A 
ATOM     21  C   UNL     1       4.170   3.941  17.121  0.00  0.00    +0.000 A 
ATOM     22  C   UNL     1       4.831   4.221  18.325  0.00  0.00    +0.000 A 
ATOM     23  C   UNL     1       6.168   4.669  18.276  0.00  0.00    +0.000 A 
ATOM     24  C   UNL     1       6.821   4.741  17.029  0.00  0.00    +0.000 A 
BRANCH  23  25
ATOM     25  O   UNL     1       6.793   4.979  19.458  0.00  0.00    +0.000 OA
ATOM     26  C   UNL     1       7.944   5.820  19.347  0.00  0.00    +0.000 C 
ENDBRANCH  23  25
BRANCH  19  27
ATOM     27  C   UNL     1       6.815   4.571  14.493  0.00  0.00    +0.000 C 
BRANCH  27  29
ATOM     28  C   UNL     1       6.511   3.664  12.167  0.00  0.00    +0.000 C 
ATOM     29  C   UNL     1       6.184   3.673  13.466  0.00  0.00    +0.000 C 
ENDBRANCH  27  29
ENDBRANCH  19  27
ENDBRANCH  18  22
ENDBRANCH  17  18
ENDBRANCH  16  17
ENDBRANCH   1  16
TORSDOF 11
ENDMDL
MODEL 2
REMARK VINA RESULT:      -7.4      1.905      3.511
REMARK  Name = 
REMARK  13 active torsions:
REMARK  status: ('A' for Active; 'I' for Inactive)
REMARK    1  A    between atoms: C_2  and  C_3
REMARK    2  A    between atoms: C_3  and  C_4
REMARK    3  A    between atoms: C_7  and  O_8
REMARK    4  A    between atoms: O_8  and  C_9
REMARK    5  A    between atoms: C_9  and  C_10
REMARK    6  A    between atoms: C_10  and  C_11
REMARK    7  A    between atoms: C_11  and  C_12
REMARK    8  A    between atoms: N_14  and  C_15
REMARK    9  A    between atoms: C_15  and  C_16
REMARK   10  A    between atoms: C_19  and  O_20
REMARK   11  A    between atoms: O_20  and  C_21
REMARK   12  A    between atoms: C_26  and  O_27
REMARK   13  A    between atoms: O_27  and  C_28
REMARK                            x       y       z     vdW  Elec       q    Type
REMARK                         _______ _______ _______ _____ _____    ______ ____
ROOT
ATOM      1  C   UNL     1       2.311   4.456  20.164  0.00  0.00    +0.000 C 
ENDROOT
BRANCH   1   2
ATOM      2  C   UNL     1       2.236   5.904  19.861  0.00  0.00    +0.000 A 
ATOM      3  C   UNL     1       2.574   6.554  18.695  0.00  0.00    +0.000 A 
ATOM      4  N   UNL     1       2.258   7.854  18.943  0.00  0.00    +0.000 N 
ATOM      5  N   UNL     1       1.763   8.009  20.184  0.00  0.00    +0.000 NA
ATOM      6  N   UNL     1       1.759   6.816  20.762  0.00  0.00    +0.000 NA
BRANCH   4   7
ATOM      7  C   UNL     1       2.251   8.964  18.008  0.00  0.00    +0.000 C 
BRANCH   7   8
ATOM      8  C   UNL     1       1.105   9.915  18.236  0.00  0.00    +0.000 A 
ATOM      9  C   UNL     1      -0.178   9.612  17.758  0.00  0.00    +0.000 A 
ATOM     10  C   UNL     1      -1.255  10.456  18.041  0.00  0.00    +0.000 A 
ATOM     11  C   UNL     1      -1.075  11.600  18.820  0.00  0.00    +0.000 A 
ATOM     12  C   UNL     1       0.201  11.927  19.271  0.00  0.00    +0.000 A 
ATOM     13  C   UNL     1       1.284  11.090  18.982  0.00  0.00    +0.000 A 
BRANCH  11  14
ATOM     14  O   UNL     1      -2.203  12.341  19.045  0.00  0.00    +0.000 OA
ATOM     15  C   UNL     1      -3.422  11.733  18.634  0.00  0.00    +0.000 C 
ENDBRANCH  11  14
ENDBRANCH   7   8
ENDBRANCH   4   7
ENDBRANCH   1   2
BRANCH   1  16
ATOM     16  C   UNL     1       2.288   3.530  18.941  0.00  0.00    +0.000 C 
BRANCH  16  17
ATOM     17  C   UNL     1       3.678   2.934  18.773  0.00  0.00    +0.000 C 
BRANCH  17  18
ATOM     18  O   UNL     1       4.347   3.374  17.585  0.00  0.00    +0.000 OA
BRANCH  18  22
ATOM     19  C   UNL     1       7.227   6.362  18.273  0.00  0.00    +0.000 A 
ATOM     20  C   UNL     1       6.894   5.466  19.282  0.00  0.00    +0.000 A 
ATOM     21  C   UNL     1       5.944   4.482  19.058  0.00  0.00    +0.000 A 
ATOM     22  C   UNL     1       5.298   4.353  17.822  0.00  0.00    +0.000 A 
ATOM     23  C   UNL     1       5.666   5.220  16.771  0.00  0.00    +0.000 A 
ATOM     24  C   UNL     1       6.609   6.237  17.020  0.00  0.00    +0.000 A 
BRANCH  23  25
ATOM     25  O   UNL     1       5.055   5.059  15.552  0.00  0.00    +0.000 OA
ATOM     26  C   UNL     1       5.818   4.360  14.565  0.00  0.00    +0.000 C 
ENDBRANCH  23  25
BRANCH  19  27
ATOM     27  C   UNL     1       8.287   7.404  18.532  0.00  0.00    +0.000 C 
BRANCH  27  29
ATOM     28  C   UNL     1       8.601   9.861  18.100  0.00  0.00    +0.000 C 
ATOM     29  C   UNL     1       7.951   8.712  17.873  0.00  0.00    +0.000 C 
ENDBRANCH  27  29
ENDBRANCH  19  27
ENDBRANCH  18  22
ENDBRANCH  17  18
ENDBRANCH  16  17
ENDBRANCH   1  16
TORSDOF 11
ENDMDL
MODEL 3
REMARK VINA RESULT:      -7.2      2.266     10.197
REMARK  Name = 
REMARK  13 active torsions:
REMARK  status: ('A' for Active; 'I' for Inactive)
REMARK    1  A    between atoms: C_2  and  C_3
REMARK    2  A    between atoms: C_3  and  C_4
REMARK    3  A    between atoms: C_7  and  O_8
REMARK    4  A    between atoms: O_8  and  C_9
REMARK    5  A    between atoms: C_9  and  C_10
REMARK    6  A    between atoms: C_10  and  C_11
REMARK    7  A    between atoms: C_11  and  C_12
REMARK    8  A    between atoms: N_14  and  C_15
REMARK    9  A    between atoms: C_15  and  C_16
REMARK   10  A    between atoms: C_19  and  O_20
REMARK   11  A    between atoms: O_20  and  C_21
REMARK   12  A    between atoms: C_26  and  O_27
REMARK   13  A    between atoms: O_27  and  C_28
REMARK                            x       y       z     vdW  Elec       q    Type
REMARK                         _______ _______ _______ _____ _____    ______ ____
ROOT
ATOM      1  C   UNL     1       1.870   8.087  19.609  0.00  0.00    +0.000 C 
ENDROOT
BRANCH   1   2
ATOM      2  C   UNL     1       2.353   6.693  19.733  0.00  0.00    +0.000 A 
ATOM      3  C   UNL     1       3.362   6.070  19.033  0.00  0.00    +0.000 A 
ATOM      4  N   UNL     1       3.420   4.826  19.582  0.00  0.00    +0.000 N 
ATOM      5  N   UNL     1       2.503   4.678  20.555  0.00  0.00    +0.000 NA
ATOM      6  N   UNL     1       1.832   5.817  20.645  0.00  0.00    +0.000 NA
BRANCH   4   7
ATOM      7  C   UNL     1       4.411   3.792  19.346  0.00  0.00    +0.000 C 
BRANCH   7   8
ATOM      8  C   UNL     1       5.291   4.085  18.159  0.00  0.00    +0.000 A 
ATOM      9  C   UNL     1       4.814   3.896  16.855  0.00  0.00    +0.000 A 
ATOM     10  C   UNL     1       5.603   4.246  15.756  0.00  0.00    +0.000 A 
ATOM     11  C   UNL     1       6.868   4.806  15.939  0.00  0.00    +0.000 A 
ATOM     12  C   UNL     1       7.364   4.967  17.231  0.00  0.00    +0.000 A 
ATOM     13  C   UNL     1       6.581   4.610  18.334  0.00  0.00    +0.000 A 
BRANCH  11  14
ATOM     14  O   UNL     1       7.543   5.123  14.792  0.00  0.00    +0.000 OA
ATOM     15  C   UNL     1       7.001   4.574  13.596  0.00  0.00    +0.000 C 
ENDBRANCH  11  14
ENDBRANCH   7   8
ENDBRANCH   4   7
ENDBRANCH   1   2
BRANCH   1  16
ATOM     16  C   UNL     1       2.168   8.765  18.265  0.00  0.00    +0.000 C 
BRANCH  16  17
ATOM     17  C   UNL     1       1.102   9.822  18.021  0.00  0.00    +0.000 C 
BRANCH  17  18
ATOM     18  O   UNL     1       0.038   9.791  18.980  0.00  0.00    +0.000 OA
BRANCH  18  22
ATOM     19  C   UNL     1      -3.600  11.303  17.506  0.00  0.00    +0.000 A 
ATOM     20  C   UNL     1      -2.930  10.299  16.817  0.00  0.00    +0.000 A 
ATOM     21  C   UNL     1      -1.730   9.800  17.301  0.00  0.00    +0.000 A 
ATOM     22  C   UNL     1      -1.160  10.282  18.487  0.00  0.00    +0.000 A 
ATOM     23  C   UNL     1      -1.856  11.262  19.225  0.00  0.00    +0.000 A 
ATOM     24  C   UNL     1      -3.058  11.784  18.706  0.00  0.00    +0.000 A 
BRANCH  23  25
ATOM     25  O   UNL     1      -1.308  11.698  20.405  0.00  0.00    +0.000 OA
ATOM     26  C   UNL     1      -1.452  13.095  20.675  0.00  0.00    +0.000 C 
ENDBRANCH  23  25
BRANCH  19  27
ATOM     27  C   UNL     1      -4.919  11.807  16.975  0.00  0.00    +0.000 C 
BRANCH  27  29
ATOM     28  C   UNL     1      -7.184  12.256  17.969  0.00  0.00    +0.000 C 
ATOM     29  C   UNL     1      -6.037  11.565  17.950  0.00  0.00    +0.000 C 
ENDBRANCH  27  29
ENDBRANCH  19  27
ENDBRANCH  18  22
ENDBRANCH  17  18
ENDBRANCH  16  17
ENDBRANCH   1  16
TORSDOF 11
ENDMDL
MODEL 4
REMARK VINA RESULT:      -7.1      2.815      3.660
REMARK  Name = 
REMARK  13 active torsions:
REMARK  status: ('A' for Active; 'I' for Inactive)
REMARK    1  A    between atoms: C_2  and  C_3
REMARK    2  A    between atoms: C_3  and  C_4
REMARK    3  A    between atoms: C_7  and  O_8
REMARK    4  A    between atoms: O_8  and  C_9
REMARK    5  A    between atoms: C_9  and  C_10
REMARK    6  A    between atoms: C_10  and  C_11
REMARK    7  A    between atoms: C_11  and  C_12
REMARK    8  A    between atoms: N_14  and  C_15
REMARK    9  A    between atoms: C_15  and  C_16
REMARK   10  A    between atoms: C_19  and  O_20
REMARK   11  A    between atoms: O_20  and  C_21
REMARK   12  A    between atoms: C_26  and  O_27
REMARK   13  A    between atoms: O_27  and  C_28
REMARK                            x       y       z     vdW  Elec       q    Type
REMARK                         _______ _______ _______ _____ _____    ______ ____
ROOT
ATOM      1  C   UNL     1       1.460   2.792  19.955  0.00  0.00    +0.000 C 
ENDROOT
BRANCH   1   2
ATOM      2  C   UNL     1       1.569   4.090  19.252  0.00  0.00    +0.000 A 
ATOM      3  C   UNL     1       1.926   5.317  19.766  0.00  0.00    +0.000 A 
ATOM      4  N   UNL     1       1.917   6.140  18.682  0.00  0.00    +0.000 N 
ATOM      5  N   UNL     1       1.570   5.475  17.566  0.00  0.00    +0.000 NA
ATOM      6  N   UNL     1       1.339   4.216  17.909  0.00  0.00    +0.000 NA
BRANCH   4   7
ATOM      7  C   UNL     1       2.374   7.515  18.603  0.00  0.00    +0.000 C 
BRANCH   7   8
ATOM      8  C   UNL     1       1.641   8.431  19.547  0.00  0.00    +0.000 A 
ATOM      9  C   UNL     1       1.547   8.120  20.911  0.00  0.00    +0.000 A 
ATOM     10  C   UNL     1       0.937   9.011  21.799  0.00  0.00    +0.000 A 
ATOM     11  C   UNL     1       0.432  10.231  21.346  0.00  0.00    +0.000 A 
ATOM     12  C   UNL     1       0.491  10.533  19.988  0.00  0.00    +0.000 A 
ATOM     13  C   UNL     1       1.092   9.640  19.095  0.00  0.00    +0.000 A 
BRANCH  11  14
ATOM     14  O   UNL     1      -0.128  11.028  22.306  0.00  0.00    +0.000 OA
ATOM     15  C   UNL     1      -0.977  10.360  23.232  0.00  0.00    +0.000 C 
ENDBRANCH  11  14
ENDBRANCH   7   8
ENDBRANCH   4   7
ENDBRANCH   1   2
BRANCH   1  16
ATOM     16  C   UNL     1       2.666   2.419  20.827  0.00  0.00    +0.000 C 
BRANCH  16  17
ATOM     17  C   UNL     1       3.881   2.283  19.921  0.00  0.00    +0.000 C 
BRANCH  17  18
ATOM     18  O   UNL     1       4.709   3.452  19.899  0.00  0.00    +0.000 OA
BRANCH  18  22
ATOM     19  C   UNL     1       6.098   4.470  16.061  0.00  0.00    +0.000 A 
ATOM     20  C   UNL     1       5.005   3.624  16.208  0.00  0.00    +0.000 A 
ATOM     21  C   UNL     1       4.547   3.286  17.471  0.00  0.00    +0.000 A 
ATOM     22  C   UNL     1       5.158   3.782  18.631  0.00  0.00    +0.000 A 
ATOM     23  C   UNL     1       6.233   4.686  18.497  0.00  0.00    +0.000 A 
ATOM     24  C   UNL     1       6.711   4.996  17.208  0.00  0.00    +0.000 A 
BRANCH  23  25
ATOM     25  O   UNL     1       6.799   5.196  19.639  0.00  0.00    +0.000 OA
ATOM     26  C   UNL     1       8.141   5.670  19.505  0.00  0.00    +0.000 C 
ENDBRANCH  23  25
BRANCH  19  27
ATOM     27  C   UNL     1       6.557   4.848  14.675  0.00  0.00    +0.000 C 
BRANCH  27  29
ATOM     28  C   UNL     1       6.249   3.460  12.601  0.00  0.00    +0.000 C 
ATOM     29  C   UNL     1       5.736   4.169  13.615  0.00  0.00    +0.000 C 
ENDBRANCH  27  29
ENDBRANCH  19  27
ENDBRANCH  18  22
ENDBRANCH  17  18
ENDBRANCH  16  17
ENDBRANCH   1  16
TORSDOF 11
ENDMDL
MODEL 5
REMARK VINA RESULT:      -7.0      6.104      8.161
REMARK  Name = 
REMARK  13 active torsions:
REMARK  status: ('A' for Active; 'I' for Inactive)
REMARK    1  A    between atoms: C_2  and  C_3
REMARK    2  A    between atoms: C_3  and  C_4
REMARK    3  A    between atoms: C_7  and  O_8
REMARK    4  A    between atoms: O_8  and  C_9
REMARK    5  A    between atoms: C_9  and  C_10
REMARK    6  A    between atoms: C_10  and  C_11
REMARK    7  A    between atoms: C_11  and  C_12
REMARK    8  A    between atoms: N_14  and  C_15
REMARK    9  A    between atoms: C_15  and  C_16
REMARK   10  A    between atoms: C_19  and  O_20
REMARK   11  A    between atoms: O_20  and  C_21
REMARK   12  A    between atoms: C_26  and  O_27
REMARK   13  A    between atoms: O_27  and  C_28
REMARK                            x       y       z     vdW  Elec       q    Type
REMARK                         _______ _______ _______ _____ _____    ______ ____
ROOT
ATOM      1  C   UNL     1       8.725   8.839  18.583  0.00  0.00    +0.000 C 
ENDROOT
BRANCH   1   2
ATOM      2  C   UNL     1       9.156  10.227  18.866  0.00  0.00    +0.000 A 
ATOM      3  C   UNL     1       9.489  11.221  17.973  0.00  0.00    +0.000 A 
ATOM      4  N   UNL     1       9.750  12.297  18.764  0.00  0.00    +0.000 N 
ATOM      5  N   UNL     1       9.598  11.996  20.066  0.00  0.00    +0.000 NA
ATOM      6  N   UNL     1       9.247  10.720  20.140  0.00  0.00    +0.000 NA
BRANCH   4   7
ATOM      7  C   UNL     1       9.991  13.668  18.353  0.00  0.00    +0.000 C 
BRANCH   7   8
ATOM      8  C   UNL     1       8.780  14.549  18.511  0.00  0.00    +0.000 A 
ATOM      9  C   UNL     1       8.859  15.744  19.240  0.00  0.00    +0.000 A 
ATOM     10  C   UNL     1       7.756  16.599  19.317  0.00  0.00    +0.000 A 
ATOM     11  C   UNL     1       6.568  16.288  18.653  0.00  0.00    +0.000 A 
ATOM     12  C   UNL     1       6.469  15.087  17.955  0.00  0.00    +0.000 A 
ATOM     13  C   UNL     1       7.568  14.224  17.883  0.00  0.00    +0.000 A 
BRANCH  11  14
ATOM     14  O   UNL     1       5.562  17.205  18.786  0.00  0.00    +0.000 OA
ATOM     15  C   UNL     1       4.247  16.700  18.584  0.00  0.00    +0.000 C 
ENDBRANCH  11  14
ENDBRANCH   7   8
ENDBRANCH   4   7
ENDBRANCH   1   2
BRANCH   1  16
ATOM     16  C   UNL     1       7.516   8.708  17.647  0.00  0.00    +0.000 C 
BRANCH  16  17
ATOM     17  C   UNL     1       7.267   7.228  17.401  0.00  0.00    +0.000 C 
BRANCH  17  18
ATOM     18  O   UNL     1       6.291   6.976  16.383  0.00  0.00    +0.000 OA
BRANCH  18  22
ATOM     19  C   UNL     1       3.547   3.959  17.412  0.00  0.00    +0.000 A 
ATOM     20  C   UNL     1       4.740   3.632  16.779  0.00  0.00    +0.000 A 
ATOM     21  C   UNL     1       5.645   4.625  16.438  0.00  0.00    +0.000 A 
ATOM     22  C   UNL     1       5.395   5.975  16.718  0.00  0.00    +0.000 A 
ATOM     23  C   UNL     1       4.213   6.315  17.411  0.00  0.00    +0.000 A 
ATOM     24  C   UNL     1       3.286   5.301  17.723  0.00  0.00    +0.000 A 
BRANCH  23  25
ATOM     25  O   UNL     1       3.997   7.636  17.716  0.00  0.00    +0.000 OA
ATOM     26  C   UNL     1       2.626   8.026  17.834  0.00  0.00    +0.000 C 
ENDBRANCH  23  25
BRANCH  19  27
ATOM     27  C   UNL     1       2.594   2.856  17.801  0.00  0.00    +0.000 C 
BRANCH  27  29
ATOM     28  C   UNL     1       0.899   3.098  19.643  0.00  0.00    +0.000 C 
ATOM     29  C   UNL     1       1.334   3.403  18.414  0.00  0.00    +0.000 C 
ENDBRANCH  27  29
ENDBRANCH  19  27
ENDBRANCH  18  22
ENDBRANCH  17  18
ENDBRANCH  16  17
ENDBRANCH   1  16
TORSDOF 11
ENDMDL
MODEL 6
REMARK VINA RESULT:      -7.0      6.655      9.406
REMARK  Name = 
REMARK  13 active torsions:
REMARK  status: ('A' for Active; 'I' for Inactive)
REMARK    1  A    between atoms: C_2  and  C_3
REMARK    2  A    between atoms: C_3  and  C_4
REMARK    3  A    between atoms: C_7  and  O_8
REMARK    4  A    between atoms: O_8  and  C_9
REMARK    5  A    between atoms: C_9  and  C_10
REMARK    6  A    between atoms: C_10  and  C_11
REMARK    7  A    between atoms: C_11  and  C_12
REMARK    8  A    between atoms: N_14  and  C_15
REMARK    9  A    between atoms: C_15  and  C_16
REMARK   10  A    between atoms: C_19  and  O_20
REMARK   11  A    between atoms: O_20  and  C_21
REMARK   12  A    between atoms: C_26  and  O_27
REMARK   13  A    between atoms: O_27  and  C_28
REMARK                            x       y       z     vdW  Elec       q    Type
REMARK                         _______ _______ _______ _____ _____    ______ ____
ROOT
ATOM      1  C   UNL     1       8.832   9.069  18.695  0.00  0.00    +0.000 C 
ENDROOT
BRANCH   1   2
ATOM      2  C   UNL     1       9.196  10.493  18.876  0.00  0.00    +0.000 A 
ATOM      3  C   UNL     1       9.924  11.070  19.893  0.00  0.00    +0.000 A 
ATOM      4  N   UNL     1      10.004  12.380  19.534  0.00  0.00    +0.000 N 
ATOM      5  N   UNL     1       9.362  12.610  18.375  0.00  0.00    +0.000 NA
ATOM      6  N   UNL     1       8.849  11.458  17.970  0.00  0.00    +0.000 NA
BRANCH   4   7
ATOM      7  C   UNL     1      10.796  13.427  20.153  0.00  0.00    +0.000 C 
BRANCH   7   8
ATOM      8  C   UNL     1      10.123  14.040  21.353  0.00  0.00    +0.000 A 
ATOM      9  C   UNL     1       9.197  13.301  22.104  0.00  0.00    +0.000 A 
ATOM     10  C   UNL     1       8.635  13.843  23.263  0.00  0.00    +0.000 A 
ATOM     11  C   UNL     1       9.001  15.117  23.702  0.00  0.00    +0.000 A 
ATOM     12  C   UNL     1       9.895  15.870  22.944  0.00  0.00    +0.000 A 
ATOM     13  C   UNL     1      10.452  15.335  21.778  0.00  0.00    +0.000 A 
BRANCH  11  14
ATOM     14  O   UNL     1       8.400  15.536  24.856  0.00  0.00    +0.000 OA
ATOM     15  C   UNL     1       9.014  16.652  25.492  0.00  0.00    +0.000 C 
ENDBRANCH  11  14
ENDBRANCH   7   8
ENDBRANCH   4   7
ENDBRANCH   1   2
BRANCH   1  16
ATOM     16  C   UNL     1       7.814   8.792  17.581  0.00  0.00    +0.000 C 
BRANCH  16  17
ATOM     17  C   UNL     1       7.495   7.304  17.591  0.00  0.00    +0.000 C 
BRANCH  17  18
ATOM     18  O   UNL     1       6.724   6.879  16.461  0.00  0.00    +0.000 OA
BRANCH  18  22
ATOM     19  C   UNL     1       3.422   4.485  17.489  0.00  0.00    +0.000 A 
ATOM     20  C   UNL     1       3.477   5.812  17.895  0.00  0.00    +0.000 A 
ATOM     21  C   UNL     1       4.564   6.603  17.559  0.00  0.00    +0.000 A 
ATOM     22  C   UNL     1       5.632   6.099  16.804  0.00  0.00    +0.000 A 
ATOM     23  C   UNL     1       5.564   4.770  16.337  0.00  0.00    +0.000 A 
ATOM     24  C   UNL     1       4.469   3.966  16.713  0.00  0.00    +0.000 A 
BRANCH  23  25
ATOM     25  O   UNL     1       6.597   4.299  15.564  0.00  0.00    +0.000 OA
ATOM     26  C   UNL     1       6.253   3.945  14.222  0.00  0.00    +0.000 C 
ENDBRANCH  23  25
BRANCH  19  27
ATOM     27  C   UNL     1       2.213   3.655  17.841  0.00  0.00    +0.000 C 
BRANCH  27  29
ATOM     28  C   UNL     1       1.134   3.528  20.109  0.00  0.00    +0.000 C 
ATOM     29  C   UNL     1       1.472   4.227  19.017  0.00  0.00    +0.000 C 
ENDBRANCH  27  29
ENDBRANCH  19  27
ENDBRANCH  18  22
ENDBRANCH  17  18
ENDBRANCH  16  17
ENDBRANCH   1  16
TORSDOF 11
ENDMDL
MODEL 7
REMARK VINA RESULT:      -6.9      6.380      9.979
REMARK  Name = 
REMARK  13 active torsions:
REMARK  status: ('A' for Active; 'I' for Inactive)
REMARK    1  A    between atoms: C_2  and  C_3
REMARK    2  A    between atoms: C_3  and  C_4
REMARK    3  A    between atoms: C_7  and  O_8
REMARK    4  A    between atoms: O_8  and  C_9
REMARK    5  A    between atoms: C_9  and  C_10
REMARK    6  A    between atoms: C_10  and  C_11
REMARK    7  A    between atoms: C_11  and  C_12
REMARK    8  A    between atoms: N_14  and  C_15
REMARK    9  A    between atoms: C_15  and  C_16
REMARK   10  A    between atoms: C_19  and  O_20
REMARK   11  A    between atoms: O_20  and  C_21
REMARK   12  A    between atoms: C_26  and  O_27
REMARK   13  A    between atoms: O_27  and  C_28
REMARK                            x       y       z     vdW  Elec       q    Type
REMARK                         _______ _______ _______ _____ _____    ______ ____
ROOT
ATOM      1  C   UNL     1       7.705   8.510  17.526  0.00  0.00    +0.000 C 
ENDROOT
BRANCH   1   2
ATOM      2  C   UNL     1       7.129   7.149  17.436  0.00  0.00    +0.000 A 
ATOM      3  C   UNL     1       5.938   6.758  16.866  0.00  0.00    +0.000 A 
ATOM      4  N   UNL     1       5.935   5.405  17.013  0.00  0.00    +0.000 N 
ATOM      5  N   UNL     1       7.046   4.979  17.640  0.00  0.00    +0.000 NA
ATOM      6  N   UNL     1       7.780   6.046  17.917  0.00  0.00    +0.000 NA
BRANCH   4   7
ATOM      7  C   UNL     1       4.999   4.449  16.450  0.00  0.00    +0.000 C 
BRANCH   7   8
ATOM      8  C   UNL     1       3.992   3.954  17.455  0.00  0.00    +0.000 A 
ATOM      9  C   UNL     1       3.218   4.861  18.193  0.00  0.00    +0.000 A 
ATOM     10  C   UNL     1       2.228   4.399  19.065  0.00  0.00    +0.000 A 
ATOM     11  C   UNL     1       1.981   3.032  19.199  0.00  0.00    +0.000 A 
ATOM     12  C   UNL     1       2.767   2.123  18.495  0.00  0.00    +0.000 A 
ATOM     13  C   UNL     1       3.765   2.581  17.629  0.00  0.00    +0.000 A 
BRANCH  11  14
ATOM     14  O   UNL     1       0.979   2.698  20.068  0.00  0.00    +0.000 OA
ATOM     15  C   UNL     1       1.328   2.746  21.447  0.00  0.00    +0.000 C 
ENDBRANCH  11  14
ENDBRANCH   7   8
ENDBRANCH   4   7
ENDBRANCH   1   2
BRANCH   1  16
ATOM     16  C   UNL     1       8.709   8.720  18.667  0.00  0.00    +0.000 C 
BRANCH  16  17
ATOM     17  C   UNL     1       8.962  10.214  18.807  0.00  0.00    +0.000 C 
BRANCH  17  18
ATOM     18  O   UNL     1      10.223  10.525  19.409  0.00  0.00    +0.000 OA
BRANCH  18  22
ATOM     19  C   UNL     1      10.322  14.321  21.219  0.00  0.00    +0.000 A 
ATOM     20  C   UNL     1       9.596  13.288  21.800  0.00  0.00    +0.000 A 
ATOM     21  C   UNL     1       9.561  12.037  21.205  0.00  0.00    +0.000 A 
ATOM     22  C   UNL     1      10.250  11.771  20.014  0.00  0.00    +0.000 A 
ATOM     23  C   UNL     1      11.037  12.794  19.443  0.00  0.00    +0.000 A 
ATOM     24  C   UNL     1      11.038  14.071  20.039  0.00  0.00    +0.000 A 
BRANCH  23  25
ATOM     25  O   UNL     1      11.739  12.511  18.298  0.00  0.00    +0.000 OA
ATOM     26  C   UNL     1      11.901  13.601  17.387  0.00  0.00    +0.000 C 
ENDBRANCH  23  25
BRANCH  19  27
ATOM     27  C   UNL     1      10.369  15.664  21.904  0.00  0.00    +0.000 C 
BRANCH  27  29
ATOM     28  C   UNL     1       8.487  16.841  20.723  0.00  0.00    +0.000 C 
ATOM     29  C   UNL     1       9.785  16.747  21.041  0.00  0.00    +0.000 C 
ENDBRANCH  27  29
ENDBRANCH  19  27
ENDBRANCH  18  22
ENDBRANCH  17  18
ENDBRANCH  16  17
ENDBRANCH   1  16
TORSDOF 11
ENDMDL
MODEL 8
REMARK VINA RESULT:      -6.8      5.576      7.422
REMARK  Name = 
REMARK  13 active torsions:
REMARK  status: ('A' for Active; 'I' for Inactive)
REMARK    1  A    between atoms: C_2  and  C_3
REMARK    2  A    between atoms: C_3  and  C_4
REMARK    3  A    between atoms: C_7  and  O_8
REMARK    4  A    between atoms: O_8  and  C_9
REMARK    5  A    between atoms: C_9  and  C_10
REMARK    6  A    between atoms: C_10  and  C_11
REMARK    7  A    between atoms: C_11  and  C_12
REMARK    8  A    between atoms: N_14  and  C_15
REMARK    9  A    between atoms: C_15  and  C_16
REMARK   10  A    between atoms: C_19  and  O_20
REMARK   11  A    between atoms: O_20  and  C_21
REMARK   12  A    between atoms: C_26  and  O_27
REMARK   13  A    between atoms: O_27  and  C_28
REMARK                            x       y       z     vdW  Elec       q    Type
REMARK                         _______ _______ _______ _____ _____    ______ ____
ROOT
ATOM      1  C   UNL     1       9.314   9.633  18.552  0.00  0.00    +0.000 C 
ENDROOT
BRANCH   1   2
ATOM      2  C   UNL     1       9.243  11.029  19.039  0.00  0.00    +0.000 A 
ATOM      3  C   UNL     1       9.153  12.191  18.305  0.00  0.00    +0.000 A 
ATOM      4  N   UNL     1       9.062  13.167  19.248  0.00  0.00    +0.000 N 
ATOM      5  N   UNL     1       9.101  12.653  20.490  0.00  0.00    +0.000 NA
ATOM      6  N   UNL     1       9.227  11.339  20.372  0.00  0.00    +0.000 NA
BRANCH   4   7
ATOM      7  C   UNL     1       8.780  14.577  19.047  0.00  0.00    +0.000 C 
BRANCH   7   8
ATOM      8  C   UNL     1       7.307  14.889  19.072  0.00  0.00    +0.000 A 
ATOM      9  C   UNL     1       6.718  15.455  20.212  0.00  0.00    +0.000 A 
ATOM     10  C   UNL     1       5.369  15.818  20.204  0.00  0.00    +0.000 A 
ATOM     11  C   UNL     1       4.593  15.644  19.056  0.00  0.00    +0.000 A 
ATOM     12  C   UNL     1       5.161  15.053  17.930  0.00  0.00    +0.000 A 
ATOM     13  C   UNL     1       6.509  14.678  17.937  0.00  0.00    +0.000 A 
BRANCH  11  14
ATOM     14  O   UNL     1       3.291  16.051  19.160  0.00  0.00    +0.000 OA
ATOM     15  C   UNL     1       2.667  16.409  17.932  0.00  0.00    +0.000 C 
ENDBRANCH  11  14
ENDBRANCH   7   8
ENDBRANCH   4   7
ENDBRANCH   1   2
BRANCH   1  16
ATOM     16  C   UNL     1       8.024   9.096  17.919  0.00  0.00    +0.000 C 
BRANCH  16  17
ATOM     17  C   UNL     1       8.017   7.582  18.070  0.00  0.00    +0.000 C 
BRANCH  17  18
ATOM     18  O   UNL     1       7.590   6.892  16.889  0.00  0.00    +0.000 OA
BRANCH  18  22
ATOM     19  C   UNL     1       4.740   3.886  17.618  0.00  0.00    +0.000 A 
ATOM     20  C   UNL     1       5.181   4.697  18.657  0.00  0.00    +0.000 A 
ATOM     21  C   UNL     1       6.121   5.688  18.419  0.00  0.00    +0.000 A 
ATOM     22  C   UNL     1       6.651   5.906  17.140  0.00  0.00    +0.000 A 
ATOM     23  C   UNL     1       6.172   5.126  16.066  0.00  0.00    +0.000 A 
ATOM     24  C   UNL     1       5.240   4.101  16.326  0.00  0.00    +0.000 A 
BRANCH  23  25
ATOM     25  O   UNL     1       6.668   5.374  14.810  0.00  0.00    +0.000 OA
ATOM     26  C   UNL     1       6.502   4.319  13.860  0.00  0.00    +0.000 C 
ENDBRANCH  23  25
BRANCH  19  27
ATOM     27  C   UNL     1       3.694   2.836  17.897  0.00  0.00    +0.000 C 
BRANCH  27  29
ATOM     28  C   UNL     1       1.679   4.328  17.709  0.00  0.00    +0.000 C 
ATOM     29  C   UNL     1       2.353   3.229  17.344  0.00  0.00    +0.000 C 
ENDBRANCH  27  29
ENDBRANCH  19  27
ENDBRANCH  18  22
ENDBRANCH  17  18
ENDBRANCH  16  17
ENDBRANCH   1  16
TORSDOF 11
ENDMDL
MODEL 9
REMARK VINA RESULT:      -6.8      1.303      1.739
REMARK  Name = 
REMARK  13 active torsions:
REMARK  status: ('A' for Active; 'I' for Inactive)
REMARK    1  A    between atoms: C_2  and  C_3
REMARK    2  A    between atoms: C_3  and  C_4
REMARK    3  A    between atoms: C_7  and  O_8
REMARK    4  A    between atoms: O_8  and  C_9
REMARK    5  A    between atoms: C_9  and  C_10
REMARK    6  A    between atoms: C_10  and  C_11
REMARK    7  A    between atoms: C_11  and  C_12
REMARK    8  A    between atoms: N_14  and  C_15
REMARK    9  A    between atoms: C_15  and  C_16
REMARK   10  A    between atoms: C_19  and  O_20
REMARK   11  A    between atoms: O_20  and  C_21
REMARK   12  A    between atoms: C_26  and  O_27
REMARK   13  A    between atoms: O_27  and  C_28
REMARK                            x       y       z     vdW  Elec       q    Type
REMARK                         _______ _______ _______ _____ _____    ______ ____
ROOT
ATOM      1  C   UNL     1       2.084   7.480  19.857  0.00  0.00    +0.000 C 
ENDROOT
BRANCH   1   2
ATOM      2  C   UNL     1       1.504   8.780  19.448  0.00  0.00    +0.000 A 
ATOM      3  C   UNL     1       0.569   9.547  20.105  0.00  0.00    +0.000 A 
ATOM      4  N   UNL     1       0.443  10.652  19.321  0.00  0.00    +0.000 N 
ATOM      5  N   UNL     1       1.240  10.578  18.240  0.00  0.00    +0.000 NA
ATOM      6  N   UNL     1       1.887   9.422  18.302  0.00  0.00    +0.000 NA
BRANCH   4   7
ATOM      7  C   UNL     1      -0.287  11.873  19.610  0.00  0.00    +0.000 C 
BRANCH   7   8
ATOM      8  C   UNL     1      -1.754  11.768  19.288  0.00  0.00    +0.000 A 
ATOM      9  C   UNL     1      -2.704  12.438  20.072  0.00  0.00    +0.000 A 
ATOM     10  C   UNL     1      -4.057  12.406  19.722  0.00  0.00    +0.000 A 
ATOM     11  C   UNL     1      -4.480  11.726  18.579  0.00  0.00    +0.000 A 
ATOM     12  C   UNL     1      -3.548  11.030  17.814  0.00  0.00    +0.000 A 
ATOM     13  C   UNL     1      -2.194  11.052  18.165  0.00  0.00    +0.000 A 
BRANCH  11  14
ATOM     14  O   UNL     1      -5.824  11.776  18.328  0.00  0.00    +0.000 OA
ATOM     15  C   UNL     1      -6.651  11.935  19.475  0.00  0.00    +0.000 C 
ENDBRANCH  11  14
ENDBRANCH   7   8
ENDBRANCH   4   7
ENDBRANCH   1   2
BRANCH   1  16
ATOM     16  C   UNL     1       2.911   6.766  18.780  0.00  0.00    +0.000 C 
BRANCH  16  17
ATOM     17  C   UNL     1       3.409   5.450  19.360  0.00  0.00    +0.000 C 
BRANCH  17  18
ATOM     18  O   UNL     1       4.828   5.284  19.262  0.00  0.00    +0.000 OA
BRANCH  18  22
ATOM     19  C   UNL     1       6.183   4.618  15.336  0.00  0.00    +0.000 A 
ATOM     20  C   UNL     1       5.027   3.995  15.792  0.00  0.00    +0.000 A 
ATOM     21  C   UNL     1       4.580   4.212  17.086  0.00  0.00    +0.000 A 
ATOM     22  C   UNL     1       5.265   5.059  17.967  0.00  0.00    +0.000 A 
ATOM     23  C   UNL     1       6.409   5.741  17.500  0.00  0.00    +0.000 A 
ATOM     24  C   UNL     1       6.872   5.487  16.193  0.00  0.00    +0.000 A 
BRANCH  23  25
ATOM     25  O   UNL     1       7.049   6.599  18.359  0.00  0.00    +0.000 OA
ATOM     26  C   UNL     1       7.727   7.698  17.744  0.00  0.00    +0.000 C 
ENDBRANCH  23  25
BRANCH  19  27
ATOM     27  C   UNL     1       6.631   4.390  13.914  0.00  0.00    +0.000 C 
BRANCH  27  29
ATOM     28  C   UNL     1       5.672   2.938  12.098  0.00  0.00    +0.000 C 
ATOM     29  C   UNL     1       5.515   3.857  13.060  0.00  0.00    +0.000 C 
ENDBRANCH  27  29
ENDBRANCH  19  27
ENDBRANCH  18  22
ENDBRANCH  17  18
ENDBRANCH  16  17
ENDBRANCH   1  16
TORSDOF 11
ENDMDL
