MODEL 1
REMARK VINA RESULT:      -9.2      0.000      0.000
REMARK  Name = 
REMARK  6 active torsions:
REMARK  status: ('A' for Active; 'I' for Inactive)
REMARK    1  A    between atoms: C_2  and  C_20
REMARK    2  A    between atoms: N_3  and  C_4
REMARK    3  A    between atoms: C_4  and  C_5
REMARK    4  A    between atoms: C_4  and  C_15
REMARK    5  A    between atoms: C_5  and  C_6
REMARK    6  A    between atoms: C_9  and  N_10
REMARK                            x       y       z     vdW  Elec       q    Type
REMARK                         _______ _______ _______ _____ _____    ______ ____
ROOT
ATOM      1  C   UNL     1       2.875   5.968  19.212  0.00  0.00    +0.000 C 
ENDROOT
BRANCH   1   2
ATOM      2  C   UNL     1       2.145   4.641  19.413  0.00  0.00    +0.000 A 
ATOM      3  N   UNL     1       1.628   3.911  18.443  0.00  0.00    +0.000 NA
ATOM      4  C   UNL     1       0.972   2.815  18.974  0.00  0.00    +0.000 A 
ATOM      5  C   UNL     1       0.998   2.715  20.346  0.00  0.00    +0.000 A 
ATOM      6  S   UNL     1       1.941   3.986  21.001  0.00  0.00    +0.000 S 
ENDBRANCH   1   2
BRANCH   1   9
ATOM      7  O   UNL     1       1.956   8.529  18.466  0.00  0.00    +0.000 OA
ATOM      8  C   UNL     1       1.805   8.186  19.630  0.00  0.00    +0.000 C 
ATOM      9  N   UNL     1       2.259   6.967  20.092  0.00  0.00    +0.000 N 
ATOM     10  H   UNL     1       2.059   6.656  21.040  0.00  0.00    +0.000 HD
BRANCH   8  11
ATOM     11  C   UNL     1       1.107   9.055  20.629  0.00  0.00    +0.000 A 
ATOM     12  C   UNL     1       1.219   8.725  21.989  0.00  0.00    +0.000 A 
ATOM     13  C   UNL     1       0.471   9.414  22.938  0.00  0.00    +0.000 A 
ATOM     14  C   UNL     1      -0.430  10.394  22.526  0.00  0.00    +0.000 A 
ATOM     15  C   UNL     1      -0.536  10.762  21.177  0.00  0.00    +0.000 A 
ATOM     16  C   UNL     1      -1.475  11.733  20.785  0.00  0.00    +0.000 A 
ATOM     17  C   UNL     1      -1.556  12.168  19.463  0.00  0.00    +0.000 A 
ATOM     18  C   UNL     1      -0.671  11.667  18.523  0.00  0.00    +0.000 A 
ATOM     19  C   UNL     1       0.232  10.668  18.888  0.00  0.00    +0.000 A 
ATOM     20  C   UNL     1       0.294  10.147  20.206  0.00  0.00    +0.000 A 
ENDBRANCH   8  11
ENDBRANCH   1   9
BRANCH   1  21
ATOM     21  C   UNL     1       4.410   5.830  19.417  0.00  0.00    +0.000 C 
BRANCH  21  22
ATOM     22  C   UNL     1       5.184   5.682  18.125  0.00  0.00    +0.000 A 
ATOM     23  C   UNL     1       4.789   6.394  16.984  0.00  0.00    +0.000 A 
ATOM     24  C   UNL     1       5.384   6.134  15.748  0.00  0.00    +0.000 A 
ATOM     25  C   UNL     1       6.394   5.167  15.664  0.00  0.00    +0.000 A 
ATOM     26  C   UNL     1       6.843   4.496  16.807  0.00  0.00    +0.000 A 
ATOM     27  C   UNL     1       6.242   4.766  18.035  0.00  0.00    +0.000 A 
BRANCH  25  28
ATOM     28  N   UNL     1       6.959   4.830  14.354  0.00  0.00    +0.000 N 
ATOM     29  O   UNL     1       6.498   3.842  13.763  0.00  0.00    +0.000 OA
ATOM     30  O   UNL     1       7.875   5.543  13.919  0.00  0.00    +0.000 OA
ENDBRANCH  25  28
ENDBRANCH  21  22
ENDBRANCH   1  21
TORSDOF 6
ENDMDL
MODEL 2
REMARK VINA RESULT:      -9.1      0.831      1.236
REMARK  Name = 
REMARK  6 active torsions:
REMARK  status: ('A' for Active; 'I' for Inactive)
REMARK    1  A    between atoms: C_2  and  C_20
REMARK    2  A    between atoms: N_3  and  C_4
REMARK    3  A    between atoms: C_4  and  C_5
REMARK    4  A    between atoms: C_4  and  C_15
REMARK    5  A    between atoms: C_5  and  C_6
REMARK    6  A    between atoms: C_9  and  N_10
REMARK                            x       y       z     vdW  Elec       q    Type
REMARK                         _______ _______ _______ _____ _____    ______ ____
ROOT
ATOM      1  C   UNL     1       2.537   5.870  19.396  0.00  0.00    +0.000 C 
ENDROOT
BRANCH   1   2
ATOM      2  C   UNL     1       2.026   4.517  19.891  0.00  0.00    +0.000 A 
ATOM      3  N   UNL     1       1.929   4.167  21.159  0.00  0.00    +0.000 NA
ATOM      4  C   UNL     1       1.508   2.853  21.256  0.00  0.00    +0.000 A 
ATOM      5  C   UNL     1       1.281   2.212  20.059  0.00  0.00    +0.000 A 
ATOM      6  S   UNL     1       1.523   3.306  18.764  0.00  0.00    +0.000 S 
ENDBRANCH   1   2
BRANCH   1   9
ATOM      7  O   UNL     1       1.884   8.504  18.628  0.00  0.00    +0.000 OA
ATOM      8  C   UNL     1       1.648   8.171  19.781  0.00  0.00    +0.000 C 
ATOM      9  N   UNL     1       1.971   6.915  20.254  0.00  0.00    +0.000 N 
ATOM     10  H   UNL     1       1.699   6.620  21.189  0.00  0.00    +0.000 HD
BRANCH   8  11
ATOM     11  C   UNL     1       0.983   9.095  20.752  0.00  0.00    +0.000 A 
ATOM     12  C   UNL     1       1.076   8.798  22.121  0.00  0.00    +0.000 A 
ATOM     13  C   UNL     1       0.353   9.542  23.048  0.00  0.00    +0.000 A 
ATOM     14  C   UNL     1      -0.504  10.547  22.606  0.00  0.00    +0.000 A 
ATOM     15  C   UNL     1      -0.590  10.882  21.246  0.00  0.00    +0.000 A 
ATOM     16  C   UNL     1      -1.487  11.881  20.825  0.00  0.00    +0.000 A 
ATOM     17  C   UNL     1      -1.546  12.282  19.491  0.00  0.00    +0.000 A 
ATOM     18  C   UNL     1      -0.678  11.720  18.569  0.00  0.00    +0.000 A 
ATOM     19  C   UNL     1       0.182  10.695  18.964  0.00  0.00    +0.000 A 
ATOM     20  C   UNL     1       0.217  10.207  20.296  0.00  0.00    +0.000 A 
ENDBRANCH   8  11
ENDBRANCH   1   9
BRANCH   1  21
ATOM     21  C   UNL     1       4.089   5.915  19.313  0.00  0.00    +0.000 C 
BRANCH  21  22
ATOM     22  C   UNL     1       4.633   5.582  17.940  0.00  0.00    +0.000 A 
ATOM     23  C   UNL     1       5.145   4.303  17.679  0.00  0.00    +0.000 A 
ATOM     24  C   UNL     1       5.806   4.039  16.478  0.00  0.00    +0.000 A 
ATOM     25  C   UNL     1       5.935   5.060  15.529  0.00  0.00    +0.000 A 
ATOM     26  C   UNL     1       5.371   6.322  15.749  0.00  0.00    +0.000 A 
ATOM     27  C   UNL     1       4.713   6.572  16.950  0.00  0.00    +0.000 A 
BRANCH  25  28
ATOM     28  N   UNL     1       6.705   4.810  14.305  0.00  0.00    +0.000 N 
ATOM     29  O   UNL     1       6.313   3.910  13.550  0.00  0.00    +0.000 OA
ATOM     30  O   UNL     1       7.712   5.505  14.105  0.00  0.00    +0.000 OA
ENDBRANCH  25  28
ENDBRANCH  21  22
ENDBRANCH   1  21
TORSDOF 6
ENDMDL
MODEL 3
REMARK VINA RESULT:      -8.7      1.260      1.659
REMARK  Name = 
REMARK  6 active torsions:
REMARK  status: ('A' for Active; 'I' for Inactive)
REMARK    1  A    between atoms: C_2  and  C_20
REMARK    2  A    between atoms: N_3  and  C_4
REMARK    3  A    between atoms: C_4  and  C_5
REMARK    4  A    between atoms: C_4  and  C_15
REMARK    5  A    between atoms: C_5  and  C_6
REMARK    6  A    between atoms: C_9  and  N_10
REMARK                            x       y       z     vdW  Elec       q    Type
REMARK                         _______ _______ _______ _____ _____    ______ ____
ROOT
ATOM      1  C   UNL     1       2.588   6.409  18.731  0.00  0.00    +0.000 C 
ENDROOT
BRANCH   1   2
ATOM      2  C   UNL     1       1.904   5.143  19.247  0.00  0.00    +0.000 A 
ATOM      3  N   UNL     1       1.536   4.942  20.498  0.00  0.00    +0.000 NA
ATOM      4  C   UNL     1       1.021   3.666  20.640  0.00  0.00    +0.000 A 
ATOM      5  C   UNL     1       0.995   2.905  19.494  0.00  0.00    +0.000 A 
ATOM      6  S   UNL     1       1.558   3.835  18.170  0.00  0.00    +0.000 S 
ENDBRANCH   1   2
BRANCH   1   9
ATOM      7  O   UNL     1       2.139   8.878  17.444  0.00  0.00    +0.000 OA
ATOM      8  C   UNL     1       1.679   8.729  18.568  0.00  0.00    +0.000 C 
ATOM      9  N   UNL     1       1.884   7.568  19.287  0.00  0.00    +0.000 N 
ATOM     10  H   UNL     1       1.431   7.421  20.186  0.00  0.00    +0.000 HD
BRANCH   8  11
ATOM     11  C   UNL     1       0.854   9.785  19.233  0.00  0.00    +0.000 A 
ATOM     12  C   UNL     1       1.305  10.308  20.456  0.00  0.00    +0.000 A 
ATOM     13  C   UNL     1       0.500  11.181  21.180  0.00  0.00    +0.000 A 
ATOM     14  C   UNL     1      -0.775  11.490  20.714  0.00  0.00    +0.000 A 
ATOM     15  C   UNL     1      -1.234  11.006  19.480  0.00  0.00    +0.000 A 
ATOM     16  C   UNL     1      -2.538  11.309  19.048  0.00  0.00    +0.000 A 
ATOM     17  C   UNL     1      -2.999  10.898  17.797  0.00  0.00    +0.000 A 
ATOM     18  C   UNL     1      -2.147  10.215  16.945  0.00  0.00    +0.000 A 
ATOM     19  C   UNL     1      -0.868   9.865  17.382  0.00  0.00    +0.000 A 
ATOM     20  C   UNL     1      -0.391  10.200  18.675  0.00  0.00    +0.000 A 
ENDBRANCH   8  11
ENDBRANCH   1   9
BRANCH   1  21
ATOM     21  C   UNL     1       4.114   6.414  19.031  0.00  0.00    +0.000 C 
BRANCH  21  22
ATOM     22  C   UNL     1       4.970   6.092  17.825  0.00  0.00    +0.000 A 
ATOM     23  C   UNL     1       4.731   6.734  16.602  0.00  0.00    +0.000 A 
ATOM     24  C   UNL     1       5.395   6.321  15.446  0.00  0.00    +0.000 A 
ATOM     25  C   UNL     1       6.317   5.271  15.524  0.00  0.00    +0.000 A 
ATOM     26  C   UNL     1       6.615   4.665  16.750  0.00  0.00    +0.000 A 
ATOM     27  C   UNL     1       5.946   5.088  17.897  0.00  0.00    +0.000 A 
BRANCH  25  28
ATOM     28  N   UNL     1       6.951   4.777  14.297  0.00  0.00    +0.000 N 
ATOM     29  O   UNL     1       7.881   5.442  13.819  0.00  0.00    +0.000 OA
ATOM     30  O   UNL     1       6.509   3.730  13.800  0.00  0.00    +0.000 OA
ENDBRANCH  25  28
ENDBRANCH  21  22
ENDBRANCH   1  21
TORSDOF 6
ENDMDL
MODEL 4
REMARK VINA RESULT:      -8.6      1.186      2.238
REMARK  Name = 
REMARK  6 active torsions:
REMARK  status: ('A' for Active; 'I' for Inactive)
REMARK    1  A    between atoms: C_2  and  C_20
REMARK    2  A    between atoms: N_3  and  C_4
REMARK    3  A    between atoms: C_4  and  C_5
REMARK    4  A    between atoms: C_4  and  C_15
REMARK    5  A    between atoms: C_5  and  C_6
REMARK    6  A    between atoms: C_9  and  N_10
REMARK                            x       y       z     vdW  Elec       q    Type
REMARK                         _______ _______ _______ _____ _____    ______ ____
ROOT
ATOM      1  C   UNL     1       2.867   6.366  18.745  0.00  0.00    +0.000 C 
ENDROOT
BRANCH   1   2
ATOM      2  C   UNL     1       2.081   5.208  19.358  0.00  0.00    +0.000 A 
ATOM      3  N   UNL     1       1.804   5.080  20.641  0.00  0.00    +0.000 NA
ATOM      4  C   UNL     1       1.150   3.882  20.867  0.00  0.00    +0.000 A 
ATOM      5  C   UNL     1       0.928   3.108  19.752  0.00  0.00    +0.000 A 
ATOM      6  S   UNL     1       1.480   3.932  18.356  0.00  0.00    +0.000 S 
ENDBRANCH   1   2
BRANCH   1   9
ATOM      7  O   UNL     1       2.220   8.661  17.237  0.00  0.00    +0.000 OA
ATOM      8  C   UNL     1       1.988   8.683  18.437  0.00  0.00    +0.000 C 
ATOM      9  N   UNL     1       2.308   7.621  19.259  0.00  0.00    +0.000 N 
ATOM     10  H   UNL     1       2.039   7.616  20.240  0.00  0.00    +0.000 HD
BRANCH   8  11
ATOM     11  C   UNL     1       1.330   9.856  19.095  0.00  0.00    +0.000 A 
ATOM     12  C   UNL     1       1.486  11.121  18.506  0.00  0.00    +0.000 A 
ATOM     13  C   UNL     1       1.018  12.257  19.158  0.00  0.00    +0.000 A 
ATOM     14  C   UNL     1       0.444  12.138  20.422  0.00  0.00    +0.000 A 
ATOM     15  C   UNL     1       0.249  10.882  21.016  0.00  0.00    +0.000 A 
ATOM     16  C   UNL     1      -0.305  10.794  22.306  0.00  0.00    +0.000 A 
ATOM     17  C   UNL     1      -0.573   9.558  22.894  0.00  0.00    +0.000 A 
ATOM     18  C   UNL     1      -0.329   8.395  22.183  0.00  0.00    +0.000 A 
ATOM     19  C   UNL     1       0.267   8.468  20.922  0.00  0.00    +0.000 A 
ATOM     20  C   UNL     1       0.622   9.703  20.323  0.00  0.00    +0.000 A 
ENDBRANCH   8  11
ENDBRANCH   1   9
BRANCH   1  21
ATOM     21  C   UNL     1       4.397   6.229  18.988  0.00  0.00    +0.000 C 
BRANCH  21  22
ATOM     22  C   UNL     1       5.190   5.960  17.728  0.00  0.00    +0.000 A 
ATOM     23  C   UNL     1       4.850   6.608  16.532  0.00  0.00    +0.000 A 
ATOM     24  C   UNL     1       5.459   6.239  15.331  0.00  0.00    +0.000 A 
ATOM     25  C   UNL     1       6.425   5.226  15.336  0.00  0.00    +0.000 A 
ATOM     26  C   UNL     1       6.821   4.616  16.532  0.00  0.00    +0.000 A 
ATOM     27  C   UNL     1       6.208   4.995  17.724  0.00  0.00    +0.000 A 
BRANCH  25  28
ATOM     28  N   UNL     1       7.001   4.776  14.065  0.00  0.00    +0.000 N 
ATOM     29  O   UNL     1       7.998   5.376  13.637  0.00  0.00    +0.000 OA
ATOM     30  O   UNL     1       6.449   3.830  13.484  0.00  0.00    +0.000 OA
ENDBRANCH  25  28
ENDBRANCH  21  22
ENDBRANCH   1  21
TORSDOF 6
ENDMDL
MODEL 5
REMARK VINA RESULT:      -8.3      1.101      1.554
REMARK  Name = 
REMARK  6 active torsions:
REMARK  status: ('A' for Active; 'I' for Inactive)
REMARK    1  A    between atoms: C_2  and  C_20
REMARK    2  A    between atoms: N_3  and  C_4
REMARK    3  A    between atoms: C_4  and  C_5
REMARK    4  A    between atoms: C_4  and  C_15
REMARK    5  A    between atoms: C_5  and  C_6
REMARK    6  A    between atoms: C_9  and  N_10
REMARK                            x       y       z     vdW  Elec       q    Type
REMARK                         _______ _______ _______ _____ _____    ______ ____
ROOT
ATOM      1  C   UNL     1       3.277   5.647  19.318  0.00  0.00    +0.000 C 
ENDROOT
BRANCH   1   2
ATOM      2  C   UNL     1       2.845   4.344  19.988  0.00  0.00    +0.000 A 
ATOM      3  N   UNL     1       3.586   3.255  20.067  0.00  0.00    +0.000 NA
ATOM      4  C   UNL     1       2.867   2.236  20.665  0.00  0.00    +0.000 A 
ATOM      5  C   UNL     1       1.583   2.557  21.044  0.00  0.00    +0.000 A 
ATOM      6  S   UNL     1       1.282   4.212  20.718  0.00  0.00    +0.000 S 
ENDBRANCH   1   2
BRANCH   1   9
ATOM      7  O   UNL     1       2.055   7.881  18.104  0.00  0.00    +0.000 OA
ATOM      8  C   UNL     1       2.005   7.796  19.323  0.00  0.00    +0.000 C 
ATOM      9  N   UNL     1       2.610   6.758  20.004  0.00  0.00    +0.000 N 
ATOM     10  H   UNL     1       2.496   6.652  21.009  0.00  0.00    +0.000 HD
BRANCH   8  11
ATOM     11  C   UNL     1       1.276   8.801  20.159  0.00  0.00    +0.000 A 
ATOM     12  C   UNL     1       0.681   8.364  21.353  0.00  0.00    +0.000 A 
ATOM     13  C   UNL     1      -0.129   9.227  22.085  0.00  0.00    +0.000 A 
ATOM     14  C   UNL     1      -0.390  10.506  21.599  0.00  0.00    +0.000 A 
ATOM     15  C   UNL     1       0.219  10.974  20.425  0.00  0.00    +0.000 A 
ATOM     16  C   UNL     1      -0.086  12.260  19.941  0.00  0.00    +0.000 A 
ATOM     17  C   UNL     1       0.553  12.778  18.816  0.00  0.00    +0.000 A 
ATOM     18  C   UNL     1       1.536  12.034  18.184  0.00  0.00    +0.000 A 
ATOM     19  C   UNL     1       1.813  10.739  18.625  0.00  0.00    +0.000 A 
ATOM     20  C   UNL     1       1.130  10.149  19.720  0.00  0.00    +0.000 A 
ENDBRANCH   8  11
ENDBRANCH   1   9
BRANCH   1  21
ATOM     21  C   UNL     1       4.824   5.795  19.267  0.00  0.00    +0.000 C 
BRANCH  21  22
ATOM     22  C   UNL     1       5.427   5.415  17.932  0.00  0.00    +0.000 A 
ATOM     23  C   UNL     1       6.813   5.253  17.808  0.00  0.00    +0.000 A 
ATOM     24  C   UNL     1       7.394   5.074  16.551  0.00  0.00    +0.000 A 
ATOM     25  C   UNL     1       6.574   5.040  15.416  0.00  0.00    +0.000 A 
ATOM     26  C   UNL     1       5.182   5.135  15.532  0.00  0.00    +0.000 A 
ATOM     27  C   UNL     1       4.615   5.310  16.792  0.00  0.00    +0.000 A 
BRANCH  25  28
ATOM     28  N   UNL     1       7.188   4.942  14.088  0.00  0.00    +0.000 N 
ATOM     29  O   UNL     1       8.179   5.649  13.856  0.00  0.00    +0.000 OA
ATOM     30  O   UNL     1       6.671   4.168  13.269  0.00  0.00    +0.000 OA
ENDBRANCH  25  28
ENDBRANCH  21  22
ENDBRANCH   1  21
TORSDOF 6
ENDMDL
MODEL 6
REMARK VINA RESULT:      -8.3      1.132      1.380
REMARK  Name = 
REMARK  6 active torsions:
REMARK  status: ('A' for Active; 'I' for Inactive)
REMARK    1  A    between atoms: C_2  and  C_20
REMARK    2  A    between atoms: N_3  and  C_4
REMARK    3  A    between atoms: C_4  and  C_5
REMARK    4  A    between atoms: C_4  and  C_15
REMARK    5  A    between atoms: C_5  and  C_6
REMARK    6  A    between atoms: C_9  and  N_10
REMARK                            x       y       z     vdW  Elec       q    Type
REMARK                         _______ _______ _______ _____ _____    ______ ____
ROOT
ATOM      1  C   UNL     1       2.886   5.590  19.518  0.00  0.00    +0.000 C 
ENDROOT
BRANCH   1   2
ATOM      2  C   UNL     1       2.437   4.312  20.224  0.00  0.00    +0.000 A 
ATOM      3  N   UNL     1       1.238   4.117  20.740  0.00  0.00    +0.000 NA
ATOM      4  C   UNL     1       1.189   2.887  21.372  0.00  0.00    +0.000 A 
ATOM      5  C   UNL     1       2.351   2.150  21.328  0.00  0.00    +0.000 A 
ATOM      6  S   UNL     1       3.526   2.979  20.398  0.00  0.00    +0.000 S 
ENDBRANCH   1   2
BRANCH   1   9
ATOM      7  O   UNL     1       1.923   7.981  18.373  0.00  0.00    +0.000 OA
ATOM      8  C   UNL     1       1.833   7.853  19.586  0.00  0.00    +0.000 C 
ATOM      9  N   UNL     1       2.314   6.734  20.236  0.00  0.00    +0.000 N 
ATOM     10  H   UNL     1       2.163   6.600  21.233  0.00  0.00    +0.000 HD
BRANCH   8  11
ATOM     11  C   UNL     1       1.185   8.892  20.446  0.00  0.00    +0.000 A 
ATOM     12  C   UNL     1       0.670   8.496  21.691  0.00  0.00    +0.000 A 
ATOM     13  C   UNL     1      -0.069   9.391  22.458  0.00  0.00    +0.000 A 
ATOM     14  C   UNL     1      -0.341  10.662  21.960  0.00  0.00    +0.000 A 
ATOM     15  C   UNL     1       0.188  11.091  20.734  0.00  0.00    +0.000 A 
ATOM     16  C   UNL     1      -0.128  12.370  20.241  0.00  0.00    +0.000 A 
ATOM     17  C   UNL     1       0.437  12.849  19.059  0.00  0.00    +0.000 A 
ATOM     18  C   UNL     1       1.358  12.071  18.377  0.00  0.00    +0.000 A 
ATOM     19  C   UNL     1       1.643  10.782  18.829  0.00  0.00    +0.000 A 
ATOM     20  C   UNL     1       1.032  10.232  19.985  0.00  0.00    +0.000 A 
ENDBRANCH   8  11
ENDBRANCH   1   9
BRANCH   1  21
ATOM     21  C   UNL     1       4.433   5.666  19.373  0.00  0.00    +0.000 C 
BRANCH  21  22
ATOM     22  C   UNL     1       4.919   5.481  17.952  0.00  0.00    +0.000 A 
ATOM     23  C   UNL     1       4.889   4.211  17.359  0.00  0.00    +0.000 A 
ATOM     24  C   UNL     1       5.492   3.995  16.119  0.00  0.00    +0.000 A 
ATOM     25  C   UNL     1       6.113   5.067  15.465  0.00  0.00    +0.000 A 
ATOM     26  C   UNL     1       6.093   6.353  16.014  0.00  0.00    +0.000 A 
ATOM     27  C   UNL     1       5.485   6.555  17.251  0.00  0.00    +0.000 A 
BRANCH  25  28
ATOM     28  N   UNL     1       6.824   4.825  14.205  0.00  0.00    +0.000 N 
ATOM     29  O   UNL     1       6.404   3.920  13.469  0.00  0.00    +0.000 OA
ATOM     30  O   UNL     1       7.812   5.530  13.955  0.00  0.00    +0.000 OA
ENDBRANCH  25  28
ENDBRANCH  21  22
ENDBRANCH   1  21
TORSDOF 6
ENDMDL
MODEL 7
REMARK VINA RESULT:      -8.3      1.421      2.537
REMARK  Name = 
REMARK  6 active torsions:
REMARK  status: ('A' for Active; 'I' for Inactive)
REMARK    1  A    between atoms: C_2  and  C_20
REMARK    2  A    between atoms: N_3  and  C_4
REMARK    3  A    between atoms: C_4  and  C_5
REMARK    4  A    between atoms: C_4  and  C_15
REMARK    5  A    between atoms: C_5  and  C_6
REMARK    6  A    between atoms: C_9  and  N_10
REMARK                            x       y       z     vdW  Elec       q    Type
REMARK                         _______ _______ _______ _____ _____    ______ ____
ROOT
ATOM      1  C   UNL     1       3.138   4.873  17.962  0.00  0.00    +0.000 C 
ENDROOT
BRANCH   1   2
ATOM      2  C   UNL     1       2.380   3.937  18.903  0.00  0.00    +0.000 A 
ATOM      3  N   UNL     1       1.075   3.743  18.882  0.00  0.00    +0.000 NA
ATOM      4  C   UNL     1       0.707   2.899  19.915  0.00  0.00    +0.000 A 
ATOM      5  C   UNL     1       1.735   2.452  20.712  0.00  0.00    +0.000 A 
ATOM      6  S   UNL     1       3.229   3.036  20.111  0.00  0.00    +0.000 S 
ENDBRANCH   1   2
BRANCH   1   9
ATOM      7  O   UNL     1       2.927   6.519  20.243  0.00  0.00    +0.000 OA
ATOM      8  C   UNL     1       2.485   6.949  19.186  0.00  0.00    +0.000 C 
ATOM      9  N   UNL     1       2.511   6.196  18.029  0.00  0.00    +0.000 N 
ATOM     10  H   UNL     1       2.215   6.591  17.139  0.00  0.00    +0.000 HD
BRANCH   8  11
ATOM     11  C   UNL     1       1.902   8.323  19.071  0.00  0.00    +0.000 A 
ATOM     12  C   UNL     1       2.209   9.081  17.930  0.00  0.00    +0.000 A 
ATOM     13  C   UNL     1       1.812  10.411  17.849  0.00  0.00    +0.000 A 
ATOM     14  C   UNL     1       1.156  11.002  18.927  0.00  0.00    +0.000 A 
ATOM     15  C   UNL     1       0.810  10.255  20.064  0.00  0.00    +0.000 A 
ATOM     16  C   UNL     1       0.175  10.884  21.150  0.00  0.00    +0.000 A 
ATOM     17  C   UNL     1      -0.241  10.155  22.264  0.00  0.00    +0.000 A 
ATOM     18  C   UNL     1      -0.064   8.782  22.287  0.00  0.00    +0.000 A 
ATOM     19  C   UNL     1       0.608   8.153  21.238  0.00  0.00    +0.000 A 
ATOM     20  C   UNL     1       1.112   8.872  20.123  0.00  0.00    +0.000 A 
ENDBRANCH   8  11
ENDBRANCH   1   9
BRANCH   1  21
ATOM     21  C   UNL     1       4.663   4.899  18.265  0.00  0.00    +0.000 C 
BRANCH  21  22
ATOM     22  C   UNL     1       5.529   4.821  17.026  0.00  0.00    +0.000 A 
ATOM     23  C   UNL     1       6.600   5.711  16.861  0.00  0.00    +0.000 A 
ATOM     24  C   UNL     1       7.294   5.764  15.651  0.00  0.00    +0.000 A 
ATOM     25  C   UNL     1       6.921   4.906  14.609  0.00  0.00    +0.000 A 
ATOM     26  C   UNL     1       5.897   3.968  14.783  0.00  0.00    +0.000 A 
ATOM     27  C   UNL     1       5.214   3.923  15.996  0.00  0.00    +0.000 A 
BRANCH  25  28
ATOM     28  N   UNL     1       7.589   5.021  13.309  0.00  0.00    +0.000 N 
ATOM     29  O   UNL     1       8.562   5.784  13.225  0.00  0.00    +0.000 OA
ATOM     30  O   UNL     1       7.132   4.360  12.365  0.00  0.00    +0.000 OA
ENDBRANCH  25  28
ENDBRANCH  21  22
ENDBRANCH   1  21
TORSDOF 6
ENDMDL
MODEL 8
REMARK VINA RESULT:      -8.1      1.581      2.618
REMARK  Name = 
REMARK  6 active torsions:
REMARK  status: ('A' for Active; 'I' for Inactive)
REMARK    1  A    between atoms: C_2  and  C_20
REMARK    2  A    between atoms: N_3  and  C_4
REMARK    3  A    between atoms: C_4  and  C_5
REMARK    4  A    between atoms: C_4  and  C_15
REMARK    5  A    between atoms: C_5  and  C_6
REMARK    6  A    between atoms: C_9  and  N_10
REMARK                            x       y       z     vdW  Elec       q    Type
REMARK                         _______ _______ _______ _____ _____    ______ ____
ROOT
ATOM      1  C   UNL     1       3.145   4.305  18.281  0.00  0.00    +0.000 C 
ENDROOT
BRANCH   1   2
ATOM      2  C   UNL     1       2.539   3.561  19.470  0.00  0.00    +0.000 A 
ATOM      3  N   UNL     1       1.254   3.529  19.764  0.00  0.00    +0.000 NA
ATOM      4  C   UNL     1       1.055   2.836  20.944  0.00  0.00    +0.000 A 
ATOM      5  C   UNL     1       2.192   2.338  21.539  0.00  0.00    +0.000 A 
ATOM      6  S   UNL     1       3.553   2.674  20.555  0.00  0.00    +0.000 S 
ENDBRANCH   1   2
BRANCH   1   9
ATOM      7  O   UNL     1       3.206   6.256  20.317  0.00  0.00    +0.000 OA
ATOM      8  C   UNL     1       2.660   6.550  19.263  0.00  0.00    +0.000 C 
ATOM      9  N   UNL     1       2.549   5.644  18.227  0.00  0.00    +0.000 N 
ATOM     10  H   UNL     1       2.165   5.921  17.326  0.00  0.00    +0.000 HD
BRANCH   8  11
ATOM     11  C   UNL     1       2.089   7.911  19.019  0.00  0.00    +0.000 A 
ATOM     12  C   UNL     1       2.364   8.536  17.792  0.00  0.00    +0.000 A 
ATOM     13  C   UNL     1       1.980   9.855  17.579  0.00  0.00    +0.000 A 
ATOM     14  C   UNL     1       1.369  10.569  18.607  0.00  0.00    +0.000 A 
ATOM     15  C   UNL     1       1.055   9.957  19.830  0.00  0.00    +0.000 A 
ATOM     16  C   UNL     1       0.466  10.710  20.862  0.00  0.00    +0.000 A 
ATOM     17  C   UNL     1       0.081  10.113  22.062  0.00  0.00    +0.000 A 
ATOM     18  C   UNL     1       0.243   8.748  22.230  0.00  0.00    +0.000 A 
ATOM     19  C   UNL     1       0.871   7.998  21.233  0.00  0.00    +0.000 A 
ATOM     20  C   UNL     1       1.343   8.583  20.030  0.00  0.00    +0.000 A 
ENDBRANCH   8  11
ENDBRANCH   1   9
BRANCH   1  21
ATOM     21  C   UNL     1       4.699   4.325  18.332  0.00  0.00    +0.000 C 
BRANCH  21  22
ATOM     22  C   UNL     1       5.347   4.621  16.997  0.00  0.00    +0.000 A 
ATOM     23  C   UNL     1       4.637   4.403  15.808  0.00  0.00    +0.000 A 
ATOM     24  C   UNL     1       5.279   4.505  14.573  0.00  0.00    +0.000 A 
ATOM     25  C   UNL     1       6.636   4.847  14.533  0.00  0.00    +0.000 A 
ATOM     26  C   UNL     1       7.340   5.131  15.708  0.00  0.00    +0.000 A 
ATOM     27  C   UNL     1       6.687   5.028  16.934  0.00  0.00    +0.000 A 
BRANCH  25  28
ATOM     28  N   UNL     1       7.335   4.868  13.243  0.00  0.00    +0.000 N 
ATOM     29  O   UNL     1       7.025   4.010  12.405  0.00  0.00    +0.000 OA
ATOM     30  O   UNL     1       8.204   5.735  13.073  0.00  0.00    +0.000 OA
ENDBRANCH  25  28
ENDBRANCH  21  22
ENDBRANCH   1  21
TORSDOF 6
ENDMDL
MODEL 9
REMARK VINA RESULT:      -8.0      1.231      2.260
REMARK  Name = 
REMARK  6 active torsions:
REMARK  status: ('A' for Active; 'I' for Inactive)
REMARK    1  A    between atoms: C_2  and  C_20
REMARK    2  A    between atoms: N_3  and  C_4
REMARK    3  A    between atoms: C_4  and  C_5
REMARK    4  A    between atoms: C_4  and  C_15
REMARK    5  A    between atoms: C_5  and  C_6
REMARK    6  A    between atoms: C_9  and  N_10
REMARK                            x       y       z     vdW  Elec       q    Type
REMARK                         _______ _______ _______ _____ _____    ______ ____
ROOT
ATOM      1  C   UNL     1       3.041   5.797  18.878  0.00  0.00    +0.000 C 
ENDROOT
BRANCH   1   2
ATOM      2  C   UNL     1       2.327   4.692  19.655  0.00  0.00    +0.000 A 
ATOM      3  N   UNL     1       1.017   4.549  19.729  0.00  0.00    +0.000 NA
ATOM      4  C   UNL     1       0.704   3.500  20.575  0.00  0.00    +0.000 A 
ATOM      5  C   UNL     1       1.778   2.847  21.135  0.00  0.00    +0.000 A 
ATOM      6  S   UNL     1       3.237   3.508  20.528  0.00  0.00    +0.000 S 
ENDBRANCH   1   2
BRANCH   1   9
ATOM      7  O   UNL     1       2.668   8.066  17.244  0.00  0.00    +0.000 OA
ATOM      8  C   UNL     1       2.296   8.133  18.407  0.00  0.00    +0.000 C 
ATOM      9  N   UNL     1       2.475   7.086  19.288  0.00  0.00    +0.000 N 
ATOM     10  H   UNL     1       2.091   7.120  20.230  0.00  0.00    +0.000 HD
BRANCH   8  11
ATOM     11  C   UNL     1       1.610   9.347  18.951  0.00  0.00    +0.000 A 
ATOM     12  C   UNL     1       1.744  10.556  18.248  0.00  0.00    +0.000 A 
ATOM     13  C   UNL     1       1.250  11.737  18.790  0.00  0.00    +0.000 A 
ATOM     14  C   UNL     1       0.671  11.724  20.057  0.00  0.00    +0.000 A 
ATOM     15  C   UNL     1       0.498  10.524  20.764  0.00  0.00    +0.000 A 
ATOM     16  C   UNL     1      -0.062  10.544  22.055  0.00  0.00    +0.000 A 
ATOM     17  C   UNL     1      -0.308   9.363  22.753  0.00  0.00    +0.000 A 
ATOM     18  C   UNL     1      -0.037   8.144  22.154  0.00  0.00    +0.000 A 
ATOM     19  C   UNL     1       0.565   8.113  20.894  0.00  0.00    +0.000 A 
ATOM     20  C   UNL     1       0.899   9.295  20.184  0.00  0.00    +0.000 A 
ENDBRANCH   8  11
ENDBRANCH   1   9
BRANCH   1  21
ATOM     21  C   UNL     1       4.586   5.724  19.042  0.00  0.00    +0.000 C 
BRANCH  21  22
ATOM     22  C   UNL     1       5.316   5.365  17.766  0.00  0.00    +0.000 A 
ATOM     23  C   UNL     1       6.590   5.892  17.513  0.00  0.00    +0.000 A 
ATOM     24  C   UNL     1       7.196   5.709  16.269  0.00  0.00    +0.000 A 
ATOM     25  C   UNL     1       6.525   4.978  15.281  0.00  0.00    +0.000 A 
ATOM     26  C   UNL     1       5.281   4.391  15.542  0.00  0.00    +0.000 A 
ATOM     27  C   UNL     1       4.689   4.579  16.788  0.00  0.00    +0.000 A 
BRANCH  25  28
ATOM     28  N   UNL     1       7.119   4.860  13.945  0.00  0.00    +0.000 N 
ATOM     29  O   UNL     1       6.631   4.027  13.168  0.00  0.00    +0.000 OA
ATOM     30  O   UNL     1       8.084   5.590  13.677  0.00  0.00    +0.000 OA
ENDBRANCH  25  28
ENDBRANCH  21  22
ENDBRANCH   1  21
TORSDOF 6
ENDMDL
