MODEL 1
REMARK VINA RESULT:      -8.1      0.000      0.000
REMARK  Name = 
REMARK  4 active torsions:
REMARK  status: ('A' for Active; 'I' for Inactive)
REMARK    1  A    between atoms: C_2  and  C_11
REMARK    2  A    between atoms: N_3  and  C_4
REMARK    3  A    between atoms: C_19  and  N_20
REMARK    4  A    between atoms: C_21  and  C_23
REMARK                            x       y       z     vdW  Elec       q    Type
REMARK                         _______ _______ _______ _____ _____    ______ ____
ROOT
ATOM      1  C   UNL     1      -0.231  11.212  21.936  0.00  0.00    +0.000 A 
ATOM      2  O   UNL     1      -1.253  10.914  22.791  0.00  0.00    +0.000 OA
ATOM      3  C   UNL     1      -1.989  12.048  22.939  0.00  0.00    +0.000 A 
ATOM      4  C   UNL     1      -3.144  12.148  23.716  0.00  0.00    +0.000 A 
ATOM      5  C   UNL     1      -3.811  13.377  23.695  0.00  0.00    +0.000 A 
ATOM      6  C   UNL     1      -3.333  14.437  22.928  0.00  0.00    +0.000 A 
ATOM      7  C   UNL     1      -2.162  14.307  22.170  0.00  0.00    +0.000 A 
ATOM      8  C   UNL     1      -1.452  13.087  22.185  0.00  0.00    +0.000 A 
ATOM      9  C   UNL     1      -0.283  12.551  21.561  0.00  0.00    +0.000 A 
ENDROOT
BRANCH   1  11
ATOM     10  O   UNL     1       1.556   9.784  22.399  0.00  0.00    +0.000 OA
ATOM     11  C   UNL     1       0.716  10.172  21.583  0.00  0.00    +0.000 C 
ATOM     12  N   UNL     1       0.620   9.723  20.276  0.00  0.00    +0.000 N 
ATOM     13  H   UNL     1      -0.003  10.243  19.663  0.00  0.00    +0.000 HD
BRANCH  12  14
ATOM     14  C   UNL     1       1.401   8.711  19.670  0.00  0.00    +0.000 A 
ATOM     15  C   UNL     1       1.713   7.505  20.302  0.00  0.00    +0.000 A 
ATOM     16  C   UNL     1       2.523   6.555  19.669  0.00  0.00    +0.000 A 
ATOM     17  C   UNL     1       3.025   6.796  18.392  0.00  0.00    +0.000 A 
ATOM     18  C   UNL     1       2.698   7.982  17.736  0.00  0.00    +0.000 A 
ATOM     19  C   UNL     1       1.884   8.919  18.369  0.00  0.00    +0.000 A 
ATOM     20  F   UNL     1       1.590  10.060  17.725  0.00  0.00    +0.000 F 
ENDBRANCH  12  14
ENDBRANCH   1  11
BRANCH   9  21
ATOM     21  N   UNL     1       0.636  13.129  20.683  0.00  0.00    +0.000 N 
ATOM     22  C   UNL     1       1.536  14.134  20.998  0.00  0.00    +0.000 C 
ATOM     23  O   UNL     1       1.799  14.523  22.130  0.00  0.00    +0.000 OA
ATOM     24  H   UNL     1       0.687  12.689  19.769  0.00  0.00    +0.000 HD
BRANCH  22  25
ATOM     25  C   UNL     1       2.257  14.741  19.834  0.00  0.00    +0.000 A 
ATOM     26  C   UNL     1       3.463  14.151  19.417  0.00  0.00    +0.000 A 
ATOM     27  C   UNL     1       4.138  14.647  18.307  0.00  0.00    +0.000 A 
ATOM     28  C   UNL     1       3.621  15.733  17.607  0.00  0.00    +0.000 A 
ATOM     29  C   UNL     1       2.433  16.359  18.014  0.00  0.00    +0.000 A 
ATOM     30  C   UNL     1       1.942  17.455  17.281  0.00  0.00    +0.000 A 
ATOM     31  C   UNL     1       0.770  18.108  17.657  0.00  0.00    +0.000 A 
ATOM     32  C   UNL     1       0.079  17.679  18.779  0.00  0.00    +0.000 A 
ATOM     33  C   UNL     1       0.549  16.583  19.512  0.00  0.00    +0.000 A 
ATOM     34  C   UNL     1       1.731  15.884  19.152  0.00  0.00    +0.000 A 
ENDBRANCH  22  25
ENDBRANCH   9  21
TORSDOF 4
ENDMDL
MODEL 2
REMARK VINA RESULT:      -8.1      1.475      2.634
REMARK  Name = 
REMARK  4 active torsions:
REMARK  status: ('A' for Active; 'I' for Inactive)
REMARK    1  A    between atoms: C_2  and  C_11
REMARK    2  A    between atoms: N_3  and  C_4
REMARK    3  A    between atoms: C_19  and  N_20
REMARK    4  A    between atoms: C_21  and  C_23
REMARK                            x       y       z     vdW  Elec       q    Type
REMARK                         _______ _______ _______ _____ _____    ______ ____
ROOT
ATOM      1  C   UNL     1      -1.003  12.274  21.658  0.00  0.00    +0.000 A 
ATOM      2  O   UNL     1      -1.690  11.645  22.658  0.00  0.00    +0.000 OA
ATOM      3  C   UNL     1      -2.697  12.478  23.032  0.00  0.00    +0.000 A 
ATOM      4  C   UNL     1      -3.646  12.186  24.012  0.00  0.00    +0.000 A 
ATOM      5  C   UNL     1      -4.652  13.135  24.215  0.00  0.00    +0.000 A 
ATOM      6  C   UNL     1      -4.691  14.308  23.466  0.00  0.00    +0.000 A 
ATOM      7  C   UNL     1      -3.714  14.577  22.499  0.00  0.00    +0.000 A 
ATOM      8  C   UNL     1      -2.672  13.651  22.282  0.00  0.00    +0.000 A 
ATOM      9  C   UNL     1      -1.544  13.532  21.413  0.00  0.00    +0.000 A 
ENDROOT
BRANCH   1  11
ATOM     10  O   UNL     1       1.257  12.099  21.104  0.00  0.00    +0.000 OA
ATOM     11  C   UNL     1       0.130  11.601  21.053  0.00  0.00    +0.000 C 
ATOM     12  N   UNL     1      -0.183  10.424  20.392  0.00  0.00    +0.000 N 
ATOM     13  H   UNL     1      -1.173  10.215  20.285  0.00  0.00    +0.000 HD
BRANCH  12  14
ATOM     14  C   UNL     1       0.720   9.560  19.731  0.00  0.00    +0.000 A 
ATOM     15  C   UNL     1       1.097   9.725  18.396  0.00  0.00    +0.000 A 
ATOM     16  C   UNL     1       1.966   8.815  17.781  0.00  0.00    +0.000 A 
ATOM     17  C   UNL     1       2.475   7.734  18.496  0.00  0.00    +0.000 A 
ATOM     18  C   UNL     1       2.131   7.572  19.838  0.00  0.00    +0.000 A 
ATOM     19  C   UNL     1       1.273   8.486  20.445  0.00  0.00    +0.000 A 
ATOM     20  F   UNL     1       0.945   8.306  21.735  0.00  0.00    +0.000 F 
ENDBRANCH  12  14
ENDBRANCH   1  11
BRANCH   9  21
ATOM     21  N   UNL     1      -1.044  14.394  20.433  0.00  0.00    +0.000 N 
ATOM     22  C   UNL     1      -0.446  15.621  20.663  0.00  0.00    +0.000 C 
ATOM     23  O   UNL     1      -0.084  16.043  21.755  0.00  0.00    +0.000 OA
ATOM     24  H   UNL     1      -1.054  14.017  19.490  0.00  0.00    +0.000 HD
BRANCH  22  25
ATOM     25  C   UNL     1      -0.199  16.456  19.444  0.00  0.00    +0.000 A 
ATOM     26  C   UNL     1      -1.228  17.305  19.000  0.00  0.00    +0.000 A 
ATOM     27  C   UNL     1      -1.024  18.140  17.907  0.00  0.00    +0.000 A 
ATOM     28  C   UNL     1       0.200  18.132  17.245  0.00  0.00    +0.000 A 
ATOM     29  C   UNL     1       1.237  17.277  17.648  0.00  0.00    +0.000 A 
ATOM     30  C   UNL     1       2.460  17.298  16.954  0.00  0.00    +0.000 A 
ATOM     31  C   UNL     1       3.511  16.459  17.319  0.00  0.00    +0.000 A 
ATOM     32  C   UNL     1       3.347  15.580  18.377  0.00  0.00    +0.000 A 
ATOM     33  C   UNL     1       2.140  15.556  19.084  0.00  0.00    +0.000 A 
ATOM     34  C   UNL     1       1.051  16.404  18.751  0.00  0.00    +0.000 A 
ENDBRANCH  22  25
ENDBRANCH   9  21
TORSDOF 4
ENDMDL
MODEL 3
REMARK VINA RESULT:      -8.1      3.861      6.104
REMARK  Name = 
REMARK  4 active torsions:
REMARK  status: ('A' for Active; 'I' for Inactive)
REMARK    1  A    between atoms: C_2  and  C_11
REMARK    2  A    between atoms: N_3  and  C_4
REMARK    3  A    between atoms: C_19  and  N_20
REMARK    4  A    between atoms: C_21  and  C_23
REMARK                            x       y       z     vdW  Elec       q    Type
REMARK                         _______ _______ _______ _____ _____    ______ ____
ROOT
ATOM      1  C   UNL     1      -5.410  12.884  20.548  0.00  0.00    +0.000 A 
ATOM      2  O   UNL     1      -6.411  13.812  20.578  0.00  0.00    +0.000 OA
ATOM      3  C   UNL     1      -6.268  14.513  21.734  0.00  0.00    +0.000 A 
ATOM      4  C   UNL     1      -7.084  15.576  22.123  0.00  0.00    +0.000 A 
ATOM      5  C   UNL     1      -6.744  16.225  23.313  0.00  0.00    +0.000 A 
ATOM      6  C   UNL     1      -5.641  15.820  24.060  0.00  0.00    +0.000 A 
ATOM      7  C   UNL     1      -4.850  14.739  23.647  0.00  0.00    +0.000 A 
ATOM      8  C   UNL     1      -5.177  14.047  22.462  0.00  0.00    +0.000 A 
ATOM      9  C   UNL     1      -4.641  12.960  21.705  0.00  0.00    +0.000 A 
ENDROOT
BRANCH   1  11
ATOM     10  O   UNL     1      -6.223  11.210  19.141  0.00  0.00    +0.000 OA
ATOM     11  C   UNL     1      -5.310  11.994  19.407  0.00  0.00    +0.000 C 
ATOM     12  N   UNL     1      -4.111  12.072  18.717  0.00  0.00    +0.000 N 
ATOM     13  H   UNL     1      -3.381  12.639  19.141  0.00  0.00    +0.000 HD
BRANCH  12  14
ATOM     14  C   UNL     1      -3.749  11.337  17.564  0.00  0.00    +0.000 A 
ATOM     15  C   UNL     1      -4.214  11.646  16.284  0.00  0.00    +0.000 A 
ATOM     16  C   UNL     1      -3.854  10.860  15.183  0.00  0.00    +0.000 A 
ATOM     17  C   UNL     1      -3.018   9.758  15.348  0.00  0.00    +0.000 A 
ATOM     18  C   UNL     1      -2.522   9.454  16.616  0.00  0.00    +0.000 A 
ATOM     19  C   UNL     1      -2.878  10.246  17.704  0.00  0.00    +0.000 A 
ATOM     20  F   UNL     1      -2.399   9.930  18.919  0.00  0.00    +0.000 F 
ENDBRANCH  12  14
ENDBRANCH   1  11
BRANCH   9  21
ATOM     21  N   UNL     1      -3.540  12.133  21.939  0.00  0.00    +0.000 N 
ATOM     22  C   UNL     1      -2.220  12.544  22.012  0.00  0.00    +0.000 C 
ATOM     23  O   UNL     1      -1.840  13.706  22.083  0.00  0.00    +0.000 OA
ATOM     24  H   UNL     1      -3.771  11.168  22.162  0.00  0.00    +0.000 HD
BRANCH  22  25
ATOM     25  C   UNL     1      -1.204  11.443  22.045  0.00  0.00    +0.000 A 
ATOM     26  C   UNL     1      -1.101  10.667  23.213  0.00  0.00    +0.000 A 
ATOM     27  C   UNL     1      -0.212   9.600  23.269  0.00  0.00    +0.000 A 
ATOM     28  C   UNL     1       0.584   9.301  22.167  0.00  0.00    +0.000 A 
ATOM     29  C   UNL     1       0.524  10.072  20.996  0.00  0.00    +0.000 A 
ATOM     30  C   UNL     1       1.344   9.738  19.904  0.00  0.00    +0.000 A 
ATOM     31  C   UNL     1       1.318  10.484  18.728  0.00  0.00    +0.000 A 
ATOM     32  C   UNL     1       0.477  11.582  18.633  0.00  0.00    +0.000 A 
ATOM     33  C   UNL     1      -0.352  11.919  19.708  0.00  0.00    +0.000 A 
ATOM     34  C   UNL     1      -0.365  11.176  20.918  0.00  0.00    +0.000 A 
ENDBRANCH  22  25
ENDBRANCH   9  21
TORSDOF 4
ENDMDL
MODEL 4
REMARK VINA RESULT:      -8.1      1.755      5.833
REMARK  Name = 
REMARK  4 active torsions:
REMARK  status: ('A' for Active; 'I' for Inactive)
REMARK    1  A    between atoms: C_2  and  C_11
REMARK    2  A    between atoms: N_3  and  C_4
REMARK    3  A    between atoms: C_19  and  N_20
REMARK    4  A    between atoms: C_21  and  C_23
REMARK                            x       y       z     vdW  Elec       q    Type
REMARK                         _______ _______ _______ _____ _____    ______ ____
ROOT
ATOM      1  C   UNL     1       0.420  10.042  21.279  0.00  0.00    +0.000 A 
ATOM      2  O   UNL     1       0.750   8.723  21.406  0.00  0.00    +0.000 OA
ATOM      3  C   UNL     1       1.360   8.352  20.249  0.00  0.00    +0.000 A 
ATOM      4  C   UNL     1       1.874   7.081  19.995  0.00  0.00    +0.000 A 
ATOM      5  C   UNL     1       2.531   6.901  18.774  0.00  0.00    +0.000 A 
ATOM      6  C   UNL     1       2.658   7.952  17.868  0.00  0.00    +0.000 A 
ATOM      7  C   UNL     1       2.118   9.213  18.150  0.00  0.00    +0.000 A 
ATOM      8  C   UNL     1       1.430   9.424  19.363  0.00  0.00    +0.000 A 
ATOM      9  C   UNL     1       0.782  10.515  20.021  0.00  0.00    +0.000 A 
ENDROOT
BRANCH   1  11
ATOM     10  O   UNL     1       0.003  10.389  23.548  0.00  0.00    +0.000 OA
ATOM     11  C   UNL     1      -0.240  10.712  22.383  0.00  0.00    +0.000 C 
ATOM     12  N   UNL     1      -1.171  11.665  22.005  0.00  0.00    +0.000 N 
ATOM     13  H   UNL     1      -1.393  11.714  21.014  0.00  0.00    +0.000 HD
BRANCH  12  14
ATOM     14  C   UNL     1      -1.946  12.478  22.866  0.00  0.00    +0.000 A 
ATOM     15  C   UNL     1      -3.251  12.160  23.248  0.00  0.00    +0.000 A 
ATOM     16  C   UNL     1      -3.985  13.021  24.072  0.00  0.00    +0.000 A 
ATOM     17  C   UNL     1      -3.420  14.208  24.531  0.00  0.00    +0.000 A 
ATOM     18  C   UNL     1      -2.107  14.525  24.183  0.00  0.00    +0.000 A 
ATOM     19  C   UNL     1      -1.380  13.659  23.370  0.00  0.00    +0.000 A 
ATOM     20  F   UNL     1      -0.121  13.988  23.038  0.00  0.00    +0.000 F 
ENDBRANCH  12  14
ENDBRANCH   1  11
BRANCH   9  21
ATOM     21  N   UNL     1       0.572  11.836  19.619  0.00  0.00    +0.000 N 
ATOM     22  C   UNL     1       1.236  12.947  20.111  0.00  0.00    +0.000 C 
ATOM     23  O   UNL     1       2.237  12.923  20.817  0.00  0.00    +0.000 OA
ATOM     24  H   UNL     1      -0.063  11.946  18.833  0.00  0.00    +0.000 HD
BRANCH  22  25
ATOM     25  C   UNL     1       0.677  14.271  19.687  0.00  0.00    +0.000 A 
ATOM     26  C   UNL     1      -0.604  14.629  20.144  0.00  0.00    +0.000 A 
ATOM     27  C   UNL     1      -1.140  15.871  19.823  0.00  0.00    +0.000 A 
ATOM     28  C   UNL     1      -0.410  16.763  19.042  0.00  0.00    +0.000 A 
ATOM     29  C   UNL     1       0.861  16.425  18.551  0.00  0.00    +0.000 A 
ATOM     30  C   UNL     1       1.568  17.353  17.766  0.00  0.00    +0.000 A 
ATOM     31  C   UNL     1       2.828  17.051  17.253  0.00  0.00    +0.000 A 
ATOM     32  C   UNL     1       3.392  15.812  17.511  0.00  0.00    +0.000 A 
ATOM     33  C   UNL     1       2.705  14.883  18.299  0.00  0.00    +0.000 A 
ATOM     34  C   UNL     1       1.425  15.158  18.851  0.00  0.00    +0.000 A 
ENDBRANCH  22  25
ENDBRANCH   9  21
TORSDOF 4
ENDMDL
MODEL 5
REMARK VINA RESULT:      -7.9      1.314      1.565
REMARK  Name = 
REMARK  4 active torsions:
REMARK  status: ('A' for Active; 'I' for Inactive)
REMARK    1  A    between atoms: C_2  and  C_11
REMARK    2  A    between atoms: N_3  and  C_4
REMARK    3  A    between atoms: C_19  and  N_20
REMARK    4  A    between atoms: C_21  and  C_23
REMARK                            x       y       z     vdW  Elec       q    Type
REMARK                         _______ _______ _______ _____ _____    ______ ____
ROOT
ATOM      1  C   UNL     1      -0.523  11.564  22.022  0.00  0.00    +0.000 A 
ATOM      2  O   UNL     1      -1.501  11.095  22.853  0.00  0.00    +0.000 OA
ATOM      3  C   UNL     1      -2.330  12.139  23.119  0.00  0.00    +0.000 A 
ATOM      4  C   UNL     1      -3.475  12.060  23.911  0.00  0.00    +0.000 A 
ATOM      5  C   UNL     1      -4.247  13.221  24.017  0.00  0.00    +0.000 A 
ATOM      6  C   UNL     1      -3.878  14.389  23.355  0.00  0.00    +0.000 A 
ATOM      7  C   UNL     1      -2.713  14.438  22.578  0.00  0.00    +0.000 A 
ATOM      8  C   UNL     1      -1.899  13.291  22.467  0.00  0.00    +0.000 A 
ATOM      9  C   UNL     1      -0.699  12.924  21.783  0.00  0.00    +0.000 A 
ENDROOT
BRANCH   1  11
ATOM     10  O   UNL     1       1.497  10.420  22.256  0.00  0.00    +0.000 OA
ATOM     11  C   UNL     1       0.505  10.652  21.561  0.00  0.00    +0.000 C 
ATOM     12  N   UNL     1       0.293  10.138  20.292  0.00  0.00    +0.000 N 
ATOM     13  H   UNL     1      -0.478  10.540  19.764  0.00  0.00    +0.000 HD
BRANCH  12  14
ATOM     14  C   UNL     1       1.119   9.219  19.603  0.00  0.00    +0.000 A 
ATOM     15  C   UNL     1       1.642   9.466  18.332  0.00  0.00    +0.000 A 
ATOM     16  C   UNL     1       2.423   8.503  17.680  0.00  0.00    +0.000 A 
ATOM     17  C   UNL     1       2.696   7.284  18.296  0.00  0.00    +0.000 A 
ATOM     18  C   UNL     1       2.206   7.035  19.578  0.00  0.00    +0.000 A 
ATOM     19  C   UNL     1       1.437   8.001  20.222  0.00  0.00    +0.000 A 
ATOM     20  F   UNL     1       0.965   7.737  21.452  0.00  0.00    +0.000 F 
ENDBRANCH  12  14
ENDBRANCH   1  11
BRANCH   9  21
ATOM     21  N   UNL     1       0.152  13.664  20.958  0.00  0.00    +0.000 N 
ATOM     22  C   UNL     1       0.235  13.560  19.580  0.00  0.00    +0.000 C 
ATOM     23  O   UNL     1      -0.555  12.958  18.863  0.00  0.00    +0.000 OA
ATOM     24  H   UNL     1       0.674  14.396  21.432  0.00  0.00    +0.000 HD
BRANCH  22  25
ATOM     25  C   UNL     1       1.378  14.294  18.947  0.00  0.00    +0.000 A 
ATOM     26  C   UNL     1       2.618  13.639  18.852  0.00  0.00    +0.000 A 
ATOM     27  C   UNL     1       3.692  14.259  18.222  0.00  0.00    +0.000 A 
ATOM     28  C   UNL     1       3.541  15.535  17.688  0.00  0.00    +0.000 A 
ATOM     29  C   UNL     1       2.323  16.226  17.789  0.00  0.00    +0.000 A 
ATOM     30  C   UNL     1       2.209  17.514  17.237  0.00  0.00    +0.000 A 
ATOM     31  C   UNL     1       1.019  18.234  17.324  0.00  0.00    +0.000 A 
ATOM     32  C   UNL     1      -0.070  17.677  17.975  0.00  0.00    +0.000 A 
ATOM     33  C   UNL     1       0.025  16.392  18.521  0.00  0.00    +0.000 A 
ATOM     34  C   UNL     1       1.215  15.622  18.440  0.00  0.00    +0.000 A 
ENDBRANCH  22  25
ENDBRANCH   9  21
TORSDOF 4
ENDMDL
MODEL 6
REMARK VINA RESULT:      -7.8      1.373      2.440
REMARK  Name = 
REMARK  4 active torsions:
REMARK  status: ('A' for Active; 'I' for Inactive)
REMARK    1  A    between atoms: C_2  and  C_11
REMARK    2  A    between atoms: N_3  and  C_4
REMARK    3  A    between atoms: C_19  and  N_20
REMARK    4  A    between atoms: C_21  and  C_23
REMARK                            x       y       z     vdW  Elec       q    Type
REMARK                         _______ _______ _______ _____ _____    ______ ____
ROOT
ATOM      1  C   UNL     1      -0.917  12.200  21.955  0.00  0.00    +0.000 A 
ATOM      2  O   UNL     1      -1.685  11.512  22.851  0.00  0.00    +0.000 OA
ATOM      3  C   UNL     1      -2.654  12.364  23.280  0.00  0.00    +0.000 A 
ATOM      4  C   UNL     1      -3.662  12.028  24.184  0.00  0.00    +0.000 A 
ATOM      5  C   UNL     1      -4.615  13.013  24.457  0.00  0.00    +0.000 A 
ATOM      6  C   UNL     1      -4.548  14.263  23.845  0.00  0.00    +0.000 A 
ATOM      7  C   UNL     1      -3.514  14.572  22.952  0.00  0.00    +0.000 A 
ATOM      8  C   UNL     1      -2.523  13.608  22.670  0.00  0.00    +0.000 A 
ATOM      9  C   UNL     1      -1.367  13.512  21.836  0.00  0.00    +0.000 A 
ENDROOT
BRANCH   1  11
ATOM     10  O   UNL     1       1.338  11.990  21.392  0.00  0.00    +0.000 OA
ATOM     11  C   UNL     1       0.198  11.525  21.320  0.00  0.00    +0.000 C 
ATOM     12  N   UNL     1      -0.147  10.388  20.607  0.00  0.00    +0.000 N 
ATOM     13  H   UNL     1      -1.142  10.210  20.492  0.00  0.00    +0.000 HD
BRANCH  12  14
ATOM     14  C   UNL     1       0.733   9.530  19.907  0.00  0.00    +0.000 A 
ATOM     15  C   UNL     1       1.264   8.362  20.461  0.00  0.00    +0.000 A 
ATOM     16  C   UNL     1       2.162   7.571  19.735  0.00  0.00    +0.000 A 
ATOM     17  C   UNL     1       2.534   7.933  18.442  0.00  0.00    +0.000 A 
ATOM     18  C   UNL     1       1.990   9.080  17.865  0.00  0.00    +0.000 A 
ATOM     19  C   UNL     1       1.091   9.858  18.591  0.00  0.00    +0.000 A 
ATOM     20  F   UNL     1       0.587  10.965  18.021  0.00  0.00    +0.000 F 
ENDBRANCH  12  14
ENDBRANCH   1  11
BRANCH   9  21
ATOM     21  N   UNL     1      -0.771  14.441  20.980  0.00  0.00    +0.000 N 
ATOM     22  C   UNL     1      -0.682  14.333  19.602  0.00  0.00    +0.000 C 
ATOM     23  O   UNL     1      -1.281  13.516  18.913  0.00  0.00    +0.000 OA
ATOM     24  H   UNL     1      -0.470  15.302  21.429  0.00  0.00    +0.000 HD
BRANCH  22  25
ATOM     25  C   UNL     1       0.198  15.343  18.932  0.00  0.00    +0.000 A 
ATOM     26  C   UNL     1      -0.347  16.603  18.628  0.00  0.00    +0.000 A 
ATOM     27  C   UNL     1       0.448  17.591  18.057  0.00  0.00    +0.000 A 
ATOM     28  C   UNL     1       1.787  17.331  17.781  0.00  0.00    +0.000 A 
ATOM     29  C   UNL     1       2.354  16.075  18.049  0.00  0.00    +0.000 A 
ATOM     30  C   UNL     1       3.711  15.852  17.756  0.00  0.00    +0.000 A 
ATOM     31  C   UNL     1       4.307  14.617  18.001  0.00  0.00    +0.000 A 
ATOM     32  C   UNL     1       3.550  13.585  18.533  0.00  0.00    +0.000 A 
ATOM     33  C   UNL     1       2.201  13.797  18.840  0.00  0.00    +0.000 A 
ATOM     34  C   UNL     1       1.561  15.044  18.617  0.00  0.00    +0.000 A 
ENDBRANCH  22  25
ENDBRANCH   9  21
TORSDOF 4
ENDMDL
MODEL 7
REMARK VINA RESULT:      -7.8      3.137      6.326
REMARK  Name = 
REMARK  4 active torsions:
REMARK  status: ('A' for Active; 'I' for Inactive)
REMARK    1  A    between atoms: C_2  and  C_11
REMARK    2  A    between atoms: N_3  and  C_4
REMARK    3  A    between atoms: C_19  and  N_20
REMARK    4  A    between atoms: C_21  and  C_23
REMARK                            x       y       z     vdW  Elec       q    Type
REMARK                         _______ _______ _______ _____ _____    ______ ____
ROOT
ATOM      1  C   UNL     1       0.425  12.105  18.984  0.00  0.00    +0.000 A 
ATOM      2  O   UNL     1       1.654  12.695  19.064  0.00  0.00    +0.000 OA
ATOM      3  C   UNL     1       1.459  14.036  18.955  0.00  0.00    +0.000 A 
ATOM      4  C   UNL     1       2.472  14.993  19.019  0.00  0.00    +0.000 A 
ATOM      5  C   UNL     1       2.076  16.332  18.959  0.00  0.00    +0.000 A 
ATOM      6  C   UNL     1       0.731  16.676  18.844  0.00  0.00    +0.000 A 
ATOM      7  C   UNL     1      -0.261  15.689  18.769  0.00  0.00    +0.000 A 
ATOM      8  C   UNL     1       0.106  14.327  18.805  0.00  0.00    +0.000 A 
ATOM      9  C   UNL     1      -0.563  13.064  18.785  0.00  0.00    +0.000 A 
ENDROOT
BRANCH   1  11
ATOM     10  O   UNL     1      -0.766  10.099  19.034  0.00  0.00    +0.000 OA
ATOM     11  C   UNL     1       0.330  10.661  19.084  0.00  0.00    +0.000 C 
ATOM     12  N   UNL     1       1.539  10.017  19.291  0.00  0.00    +0.000 N 
ATOM     13  H   UNL     1       2.342  10.611  19.479  0.00  0.00    +0.000 HD
BRANCH  12  14
ATOM     14  C   UNL     1       1.744   8.622  19.409  0.00  0.00    +0.000 A 
ATOM     15  C   UNL     1       1.483   7.908  20.580  0.00  0.00    +0.000 A 
ATOM     16  C   UNL     1       1.742   6.534  20.652  0.00  0.00    +0.000 A 
ATOM     17  C   UNL     1       2.258   5.855  19.550  0.00  0.00    +0.000 A 
ATOM     18  C   UNL     1       2.495   6.550  18.364  0.00  0.00    +0.000 A 
ATOM     19  C   UNL     1       2.227   7.915  18.298  0.00  0.00    +0.000 A 
ATOM     20  F   UNL     1       2.474   8.567  17.150  0.00  0.00    +0.000 F 
ENDBRANCH  12  14
ENDBRANCH   1  11
BRANCH   9  21
ATOM     21  N   UNL     1      -1.919  12.745  18.677  0.00  0.00    +0.000 N 
ATOM     22  C   UNL     1      -2.837  12.747  19.714  0.00  0.00    +0.000 C 
ATOM     23  O   UNL     1      -2.649  13.219  20.829  0.00  0.00    +0.000 OA
ATOM     24  H   UNL     1      -2.246  12.591  17.727  0.00  0.00    +0.000 HD
BRANCH  22  25
ATOM     25  C   UNL     1      -4.173  12.151  19.392  0.00  0.00    +0.000 A 
ATOM     26  C   UNL     1      -4.335  11.511  18.151  0.00  0.00    +0.000 A 
ATOM     27  C   UNL     1      -5.540  10.894  17.833  0.00  0.00    +0.000 A 
ATOM     28  C   UNL     1      -6.592  10.914  18.743  0.00  0.00    +0.000 A 
ATOM     29  C   UNL     1      -6.470  11.567  19.980  0.00  0.00    +0.000 A 
ATOM     30  C   UNL     1      -7.556  11.565  20.874  0.00  0.00    +0.000 A 
ATOM     31  C   UNL     1      -7.476  12.208  22.107  0.00  0.00    +0.000 A 
ATOM     32  C   UNL     1      -6.311  12.871  22.458  0.00  0.00    +0.000 A 
ATOM     33  C   UNL     1      -5.219  12.872  21.583  0.00  0.00    +0.000 A 
ATOM     34  C   UNL     1      -5.257  12.217  20.324  0.00  0.00    +0.000 A 
ENDBRANCH  22  25
ENDBRANCH   9  21
TORSDOF 4
ENDMDL
MODEL 8
REMARK VINA RESULT:      -7.8      3.222      6.394
REMARK  Name = 
REMARK  4 active torsions:
REMARK  status: ('A' for Active; 'I' for Inactive)
REMARK    1  A    between atoms: C_2  and  C_11
REMARK    2  A    between atoms: N_3  and  C_4
REMARK    3  A    between atoms: C_19  and  N_20
REMARK    4  A    between atoms: C_21  and  C_23
REMARK                            x       y       z     vdW  Elec       q    Type
REMARK                         _______ _______ _______ _____ _____    ______ ____
ROOT
ATOM      1  C   UNL     1       0.483  12.093  18.873  0.00  0.00    +0.000 A 
ATOM      2  O   UNL     1       1.706  12.695  18.954  0.00  0.00    +0.000 OA
ATOM      3  C   UNL     1       1.493  14.036  18.888  0.00  0.00    +0.000 A 
ATOM      4  C   UNL     1       2.495  15.003  18.968  0.00  0.00    +0.000 A 
ATOM      5  C   UNL     1       2.083  16.339  18.953  0.00  0.00    +0.000 A 
ATOM      6  C   UNL     1       0.732  16.670  18.865  0.00  0.00    +0.000 A 
ATOM      7  C   UNL     1      -0.248  15.673  18.773  0.00  0.00    +0.000 A 
ATOM      8  C   UNL     1       0.135  14.315  18.764  0.00  0.00    +0.000 A 
ATOM      9  C   UNL     1      -0.519  13.045  18.715  0.00  0.00    +0.000 A 
ENDROOT
BRANCH   1  11
ATOM     10  O   UNL     1      -0.685  10.073  18.898  0.00  0.00    +0.000 OA
ATOM     11  C   UNL     1       0.406  10.646  18.930  0.00  0.00    +0.000 C 
ATOM     12  N   UNL     1       1.629  10.009  19.077  0.00  0.00    +0.000 N 
ATOM     13  H   UNL     1       2.432  10.607  19.257  0.00  0.00    +0.000 HD
BRANCH  12  14
ATOM     14  C   UNL     1       1.852   8.614  19.144  0.00  0.00    +0.000 A 
ATOM     15  C   UNL     1       2.273   7.854  18.051  0.00  0.00    +0.000 A 
ATOM     16  C   UNL     1       2.441   6.469  18.165  0.00  0.00    +0.000 A 
ATOM     17  C   UNL     1       2.197   5.827  19.378  0.00  0.00    +0.000 A 
ATOM     18  C   UNL     1       1.805   6.577  20.486  0.00  0.00    +0.000 A 
ATOM     19  C   UNL     1       1.648   7.956  20.367  0.00  0.00    +0.000 A 
ATOM     20  F   UNL     1       1.259   8.658  21.444  0.00  0.00    +0.000 F 
ENDBRANCH  12  14
ENDBRANCH   1  11
BRANCH   9  21
ATOM     21  N   UNL     1      -1.872  12.712  18.614  0.00  0.00    +0.000 N 
ATOM     22  C   UNL     1      -2.788  12.723  19.653  0.00  0.00    +0.000 C 
ATOM     23  O   UNL     1      -2.602  13.214  20.760  0.00  0.00    +0.000 OA
ATOM     24  H   UNL     1      -2.199  12.541  17.668  0.00  0.00    +0.000 HD
BRANCH  22  25
ATOM     25  C   UNL     1      -4.120  12.111  19.344  0.00  0.00    +0.000 A 
ATOM     26  C   UNL     1      -4.273  11.435  18.120  0.00  0.00    +0.000 A 
ATOM     27  C   UNL     1      -5.474  10.803  17.815  0.00  0.00    +0.000 A 
ATOM     28  C   UNL     1      -6.529  10.842  18.721  0.00  0.00    +0.000 A 
ATOM     29  C   UNL     1      -6.416  11.530  19.939  0.00  0.00    +0.000 A 
ATOM     30  C   UNL     1      -7.505  11.547  20.829  0.00  0.00    +0.000 A 
ATOM     31  C   UNL     1      -7.433  12.224  22.044  0.00  0.00    +0.000 A 
ATOM     32  C   UNL     1      -6.273  12.904  22.380  0.00  0.00    +0.000 A 
ATOM     33  C   UNL     1      -5.178  12.887  21.510  0.00  0.00    +0.000 A 
ATOM     34  C   UNL     1      -5.207  12.196  20.269  0.00  0.00    +0.000 A 
ENDBRANCH  22  25
ENDBRANCH   9  21
TORSDOF 4
ENDMDL
MODEL 9
REMARK VINA RESULT:      -7.7      1.530      1.963
REMARK  Name = 
REMARK  4 active torsions:
REMARK  status: ('A' for Active; 'I' for Inactive)
REMARK    1  A    between atoms: C_2  and  C_11
REMARK    2  A    between atoms: N_3  and  C_4
REMARK    3  A    between atoms: C_19  and  N_20
REMARK    4  A    between atoms: C_21  and  C_23
REMARK                            x       y       z     vdW  Elec       q    Type
REMARK                         _______ _______ _______ _____ _____    ______ ____
ROOT
ATOM      1  C   UNL     1       0.439  10.657  20.404  0.00  0.00    +0.000 A 
ATOM      2  O   UNL     1      -0.413  10.116  21.324  0.00  0.00    +0.000 OA
ATOM      3  C   UNL     1      -0.890  11.144  22.076  0.00  0.00    +0.000 A 
ATOM      4  C   UNL     1      -1.816  11.009  23.110  0.00  0.00    +0.000 A 
ATOM      5  C   UNL     1      -2.246  12.187  23.727  0.00  0.00    +0.000 A 
ATOM      6  C   UNL     1      -1.764  13.427  23.316  0.00  0.00    +0.000 A 
ATOM      7  C   UNL     1      -0.823  13.527  22.283  0.00  0.00    +0.000 A 
ATOM      8  C   UNL     1      -0.352  12.356  21.652  0.00  0.00    +0.000 A 
ATOM      9  C   UNL     1       0.544  12.032  20.587  0.00  0.00    +0.000 A 
ENDROOT
BRANCH   1  11
ATOM     10  O   UNL     1       1.155  10.086  18.258  0.00  0.00    +0.000 OA
ATOM     11  C   UNL     1       1.092   9.780  19.451  0.00  0.00    +0.000 C 
ATOM     12  N   UNL     1       1.561   8.592  19.987  0.00  0.00    +0.000 N 
ATOM     13  H   UNL     1       1.296   8.393  20.949  0.00  0.00    +0.000 HD
BRANCH  12  14
ATOM     14  C   UNL     1       2.248   7.565  19.297  0.00  0.00    +0.000 A 
ATOM     15  C   UNL     1       2.972   7.786  18.123  0.00  0.00    +0.000 A 
ATOM     16  C   UNL     1       3.600   6.725  17.460  0.00  0.00    +0.000 A 
ATOM     17  C   UNL     1       3.517   5.430  17.967  0.00  0.00    +0.000 A 
ATOM     18  C   UNL     1       2.823   5.199  19.154  0.00  0.00    +0.000 A 
ATOM     19  C   UNL     1       2.208   6.261  19.812  0.00  0.00    +0.000 A 
ATOM     20  F   UNL     1       1.534   6.015  20.948  0.00  0.00    +0.000 F 
ENDBRANCH  12  14
ENDBRANCH   1  11
BRANCH   9  21
ATOM     21  N   UNL     1       1.343  12.844  19.778  0.00  0.00    +0.000 N 
ATOM     22  C   UNL     1       2.300  13.740  20.225  0.00  0.00    +0.000 C 
ATOM     23  O   UNL     1       2.730  13.809  21.370  0.00  0.00    +0.000 OA
ATOM     24  H   UNL     1       1.253  12.673  18.781  0.00  0.00    +0.000 HD
BRANCH  22  25
ATOM     25  C   UNL     1       2.862  14.656  19.181  0.00  0.00    +0.000 A 
ATOM     26  C   UNL     1       4.153  14.393  18.690  0.00  0.00    +0.000 A 
ATOM     27  C   UNL     1       4.692  15.183  17.680  0.00  0.00    +0.000 A 
ATOM     28  C   UNL     1       3.955  16.241  17.157  0.00  0.00    +0.000 A 
ATOM     29  C   UNL     1       2.675  16.544  17.644  0.00  0.00    +0.000 A 
ATOM     30  C   UNL     1       1.961  17.621  17.089  0.00  0.00    +0.000 A 
ATOM     31  C   UNL     1       0.690  17.959  17.550  0.00  0.00    +0.000 A 
ATOM     32  C   UNL     1       0.121  17.228  18.581  0.00  0.00    +0.000 A 
ATOM     33  C   UNL     1       0.815  16.147  19.136  0.00  0.00    +0.000 A 
ATOM     34  C   UNL     1       2.106  15.764  18.684  0.00  0.00    +0.000 A 
ENDBRANCH  22  25
ENDBRANCH   9  21
TORSDOF 4
ENDMDL
