MODEL 1
REMARK VINA RESULT:      -7.3      0.000      0.000
REMARK  Name = 
REMARK  10 active torsions:
REMARK  status: ('A' for Active; 'I' for Inactive)
REMARK    1  A    between atoms: C_1  and  C_2
REMARK    2  A    between atoms: C_2  and  O_3
REMARK    3  A    between atoms: O_3  and  C_4
REMARK    4  A    between atoms: C_4  and  C_6
REMARK    5  A    between atoms: C_6  and  N_7
REMARK    6  A    between atoms: N_7  and  C_8
REMARK    7  A    between atoms: C_11  and  C_12
REMARK    8  A    between atoms: C_15  and  C_16
REMARK    9  A    between atoms: C_16  and  O_17
REMARK   10  A    between atoms: C_19  and  N_20
REMARK                            x       y       z     vdW  Elec       q    Type
REMARK                         _______ _______ _______ _____ _____    ______ ____
ROOT
ATOM      1  C   UNL     1       4.712   3.825  19.384  0.00  0.00    +0.000 A 
ATOM      2  O   UNL     1       3.678   4.491  19.964  0.00  0.00    +0.000 OA
ATOM      3  C   UNL     1       3.500   5.644  19.271  0.00  0.00    +0.000 A 
ATOM      4  C   UNL     1       2.502   6.587  19.528  0.00  0.00    +0.000 A 
ATOM      5  C   UNL     1       1.461   6.495  20.596  0.00  0.00    +0.000 C 
ATOM      6  N   UNL     1       2.473   7.696  18.745  0.00  0.00    +0.000 NA
ATOM      7  C   UNL     1       3.399   7.843  17.777  0.00  0.00    +0.000 A 
ATOM      8  C   UNL     1       4.432   6.945  17.468  0.00  0.00    +0.000 A 
ATOM      9  C   UNL     1       4.458   5.770  18.256  0.00  0.00    +0.000 A 
ATOM     10  C   UNL     1       5.260   4.580  18.358  0.00  0.00    +0.000 A 
ENDROOT
BRANCH  10  11
ATOM     11  N   UNL     1       6.352   4.247  17.617  0.00  0.00    +0.000 N 
ATOM     12  C   UNL     1       6.455   4.211  16.201  0.00  0.00    +0.000 A 
ATOM     13  C   UNL     1       5.381   3.706  15.456  0.00  0.00    +0.000 A 
ATOM     14  C   UNL     1       5.361   3.843  14.075  0.00  0.00    +0.000 A 
ATOM     15  C   UNL     1       6.430   4.463  13.453  0.00  0.00    +0.000 A 
ATOM     16  C   UNL     1       7.498   4.856  14.240  0.00  0.00    +0.000 A 
ATOM     17  N   UNL     1       7.541   4.716  15.595  0.00  0.00    +0.000 NA
ATOM     18  H   UNL     1       7.210   3.906  18.046  0.00  0.00    +0.000 HD
ENDBRANCH  10  11
BRANCH   1  19
ATOM     19  N   UNL     1       4.992   2.598  19.863  0.00  0.00    +0.000 N 
ATOM     20  H   UNL     1       5.811   2.469  20.456  0.00  0.00    +0.000 HD
BRANCH  19  21
ATOM     21  C   UNL     1       4.463   1.405  19.223  0.00  0.00    +0.000 C 
BRANCH  21  22
ATOM     22  C   UNL     1       3.164   1.689  18.476  0.00  0.00    +0.000 C 
ATOM     23  O   UNL     1       3.069   2.029  17.303  0.00  0.00    +0.000 OA
BRANCH  22  24
ATOM     24  O   UNL     1       2.124   1.625  19.363  0.00  0.00    +0.000 OA
BRANCH  24  26
ATOM     25  C   UNL     1       0.579   3.197  20.269  0.00  0.00    +0.000 C 
ATOM     26  C   UNL     1       0.991   2.434  19.022  0.00  0.00    +0.000 C 
ENDBRANCH  24  26
ENDBRANCH  22  24
ENDBRANCH  21  22
ENDBRANCH  19  21
ENDBRANCH   1  19
BRANCH   8  27
ATOM     27  C   UNL     1       5.327   7.300  16.317  0.00  0.00    +0.000 C 
BRANCH  27  28
ATOM     28  O   UNL     1       6.687   7.416  16.701  0.00  0.00    +0.000 OA
ATOM     29  H   UNL     1       6.908   8.364  16.669  0.00  0.00    +0.000 HD
ENDBRANCH  27  28
ENDBRANCH   8  27
TORSDOF 8
ENDMDL
MODEL 2
REMARK VINA RESULT:      -6.7      2.654      5.795
REMARK  Name = 
REMARK  10 active torsions:
REMARK  status: ('A' for Active; 'I' for Inactive)
REMARK    1  A    between atoms: C_1  and  C_2
REMARK    2  A    between atoms: C_2  and  O_3
REMARK    3  A    between atoms: O_3  and  C_4
REMARK    4  A    between atoms: C_4  and  C_6
REMARK    5  A    between atoms: C_6  and  N_7
REMARK    6  A    between atoms: N_7  and  C_8
REMARK    7  A    between atoms: C_11  and  C_12
REMARK    8  A    between atoms: C_15  and  C_16
REMARK    9  A    between atoms: C_16  and  O_17
REMARK   10  A    between atoms: C_19  and  N_20
REMARK                            x       y       z     vdW  Elec       q    Type
REMARK                         _______ _______ _______ _____ _____    ______ ____
ROOT
ATOM      1  C   UNL     1       3.588   6.721  17.937  0.00  0.00    +0.000 A 
ATOM      2  O   UNL     1       4.715   7.479  17.992  0.00  0.00    +0.000 OA
ATOM      3  C   UNL     1       5.684   6.812  17.315  0.00  0.00    +0.000 A 
ATOM      4  C   UNL     1       6.983   7.281  17.104  0.00  0.00    +0.000 A 
ATOM      5  C   UNL     1       7.530   8.589  17.575  0.00  0.00    +0.000 C 
ATOM      6  N   UNL     1       7.834   6.479  16.415  0.00  0.00    +0.000 NA
ATOM      7  C   UNL     1       7.401   5.279  15.981  0.00  0.00    +0.000 A 
ATOM      8  C   UNL     1       6.119   4.740  16.163  0.00  0.00    +0.000 A 
ATOM      9  C   UNL     1       5.210   5.576  16.854  0.00  0.00    +0.000 A 
ATOM     10  C   UNL     1       3.841   5.521  17.290  0.00  0.00    +0.000 A 
ENDROOT
BRANCH  10  11
ATOM     11  N   UNL     1       2.955   4.500  17.125  0.00  0.00    +0.000 N 
ATOM     12  C   UNL     1       2.414   3.657  18.131  0.00  0.00    +0.000 A 
ATOM     13  C   UNL     1       3.251   3.207  19.161  0.00  0.00    +0.000 A 
ATOM     14  C   UNL     1       2.716   2.556  20.264  0.00  0.00    +0.000 A 
ATOM     15  C   UNL     1       1.350   2.340  20.311  0.00  0.00    +0.000 A 
ATOM     16  C   UNL     1       0.595   2.730  19.218  0.00  0.00    +0.000 A 
ATOM     17  N   UNL     1       1.106   3.357  18.121  0.00  0.00    +0.000 NA
ATOM     18  H   UNL     1       2.650   4.197  16.202  0.00  0.00    +0.000 HD
ENDBRANCH  10  11
BRANCH   1  19
ATOM     19  N   UNL     1       2.469   7.252  18.468  0.00  0.00    +0.000 N 
ATOM     20  H   UNL     1       1.973   7.982  17.958  0.00  0.00    +0.000 HD
BRANCH  19  21
ATOM     21  C   UNL     1       2.201   7.162  19.893  0.00  0.00    +0.000 C 
BRANCH  21  22
ATOM     22  C   UNL     1       1.391   8.352  20.397  0.00  0.00    +0.000 C 
ATOM     23  O   UNL     1       1.115   9.357  19.752  0.00  0.00    +0.000 OA
BRANCH  22  24
ATOM     24  O   UNL     1       1.129   8.175  21.727  0.00  0.00    +0.000 OA
BRANCH  24  26
ATOM     25  C   UNL     1      -0.232   9.536  23.133  0.00  0.00    +0.000 C 
ATOM     26  C   UNL     1       1.144   9.375  22.510  0.00  0.00    +0.000 C 
ENDBRANCH  24  26
ENDBRANCH  22  24
ENDBRANCH  21  22
ENDBRANCH  19  21
ENDBRANCH   1  19
BRANCH   8  27
ATOM     27  C   UNL     1       5.850   3.394  15.556  0.00  0.00    +0.000 C 
BRANCH  27  28
ATOM     28  O   UNL     1       6.281   3.309  14.207  0.00  0.00    +0.000 OA
ATOM     29  H   UNL     1       6.484   2.372  14.036  0.00  0.00    +0.000 HD
ENDBRANCH  27  28
ENDBRANCH   8  27
TORSDOF 8
ENDMDL
MODEL 3
REMARK VINA RESULT:      -6.7      1.768      4.860
REMARK  Name = 
REMARK  10 active torsions:
REMARK  status: ('A' for Active; 'I' for Inactive)
REMARK    1  A    between atoms: C_1  and  C_2
REMARK    2  A    between atoms: C_2  and  O_3
REMARK    3  A    between atoms: O_3  and  C_4
REMARK    4  A    between atoms: C_4  and  C_6
REMARK    5  A    between atoms: C_6  and  N_7
REMARK    6  A    between atoms: N_7  and  C_8
REMARK    7  A    between atoms: C_11  and  C_12
REMARK    8  A    between atoms: C_15  and  C_16
REMARK    9  A    between atoms: C_16  and  O_17
REMARK   10  A    between atoms: C_19  and  N_20
REMARK                            x       y       z     vdW  Elec       q    Type
REMARK                         _______ _______ _______ _____ _____    ______ ____
ROOT
ATOM      1  C   UNL     1       4.010   3.884  16.958  0.00  0.00    +0.000 A 
ATOM      2  O   UNL     1       4.490   3.546  15.732  0.00  0.00    +0.000 OA
ATOM      3  C   UNL     1       5.567   4.334  15.488  0.00  0.00    +0.000 A 
ATOM      4  C   UNL     1       6.369   4.265  14.346  0.00  0.00    +0.000 A 
ATOM      5  C   UNL     1       6.190   3.318  13.204  0.00  0.00    +0.000 C 
ATOM      6  N   UNL     1       7.403   5.139  14.254  0.00  0.00    +0.000 NA
ATOM      7  C   UNL     1       7.603   6.030  15.245  0.00  0.00    +0.000 A 
ATOM      8  C   UNL     1       6.836   6.163  16.412  0.00  0.00    +0.000 A 
ATOM      9  C   UNL     1       5.772   5.240  16.538  0.00  0.00    +0.000 A 
ATOM     10  C   UNL     1       4.728   4.947  17.484  0.00  0.00    +0.000 A 
ENDROOT
BRANCH  10  11
ATOM     11  N   UNL     1       4.469   5.583  18.659  0.00  0.00    +0.000 N 
ATOM     12  C   UNL     1       3.554   6.646  18.881  0.00  0.00    +0.000 A 
ATOM     13  C   UNL     1       3.453   7.664  17.924  0.00  0.00    +0.000 A 
ATOM     14  C   UNL     1       2.433   8.603  18.005  0.00  0.00    +0.000 A 
ATOM     15  C   UNL     1       1.541   8.526  19.059  0.00  0.00    +0.000 A 
ATOM     16  C   UNL     1       1.753   7.550  20.017  0.00  0.00    +0.000 A 
ATOM     17  N   UNL     1       2.757   6.630  19.961  0.00  0.00    +0.000 NA
ATOM     18  H   UNL     1       4.996   5.382  19.507  0.00  0.00    +0.000 HD
ENDBRANCH  10  11
BRANCH   1  19
ATOM     19  N   UNL     1       2.991   3.145  17.439  0.00  0.00    +0.000 N 
ATOM     20  H   UNL     1       2.074   3.576  17.552  0.00  0.00    +0.000 HD
BRANCH  19  21
ATOM     21  C   UNL     1       3.239   1.938  18.209  0.00  0.00    +0.000 C 
BRANCH  21  22
ATOM     22  C   UNL     1       3.933   2.239  19.533  0.00  0.00    +0.000 C 
ATOM     23  O   UNL     1       4.887   1.627  19.999  0.00  0.00    +0.000 OA
BRANCH  22  24
ATOM     24  O   UNL     1       3.240   3.226  20.179  0.00  0.00    +0.000 OA
BRANCH  24  26
ATOM     25  C   UNL     1       1.142   2.855  21.248  0.00  0.00    +0.000 C 
ATOM     26  C   UNL     1       2.651   2.831  21.424  0.00  0.00    +0.000 C 
ENDBRANCH  24  26
ENDBRANCH  22  24
ENDBRANCH  21  22
ENDBRANCH  19  21
ENDBRANCH   1  19
BRANCH   8  27
ATOM     27  C   UNL     1       7.269   7.206  17.400  0.00  0.00    +0.000 C 
BRANCH  27  28
ATOM     28  O   UNL     1       7.663   6.648  18.644  0.00  0.00    +0.000 OA
ATOM     29  H   UNL     1       8.464   6.122  18.474  0.00  0.00    +0.000 HD
ENDBRANCH  27  28
ENDBRANCH   8  27
TORSDOF 8
ENDMDL
MODEL 4
REMARK VINA RESULT:      -6.7      1.848      4.951
REMARK  Name = 
REMARK  10 active torsions:
REMARK  status: ('A' for Active; 'I' for Inactive)
REMARK    1  A    between atoms: C_1  and  C_2
REMARK    2  A    between atoms: C_2  and  O_3
REMARK    3  A    between atoms: O_3  and  C_4
REMARK    4  A    between atoms: C_4  and  C_6
REMARK    5  A    between atoms: C_6  and  N_7
REMARK    6  A    between atoms: N_7  and  C_8
REMARK    7  A    between atoms: C_11  and  C_12
REMARK    8  A    between atoms: C_15  and  C_16
REMARK    9  A    between atoms: C_16  and  O_17
REMARK   10  A    between atoms: C_19  and  N_20
REMARK                            x       y       z     vdW  Elec       q    Type
REMARK                         _______ _______ _______ _____ _____    ______ ____
ROOT
ATOM      1  C   UNL     1       3.547   4.484  17.147  0.00  0.00    +0.000 A 
ATOM      2  O   UNL     1       4.134   4.028  16.009  0.00  0.00    +0.000 OA
ATOM      3  C   UNL     1       5.325   4.665  15.886  0.00  0.00    +0.000 A 
ATOM      4  C   UNL     1       6.253   4.440  14.865  0.00  0.00    +0.000 A 
ATOM      5  C   UNL     1       6.104   3.465  13.743  0.00  0.00    +0.000 C 
ATOM      6  N   UNL     1       7.393   5.176  14.883  0.00  0.00    +0.000 NA
ATOM      7  C   UNL     1       7.575   6.086  15.860  0.00  0.00    +0.000 A 
ATOM      8  C   UNL     1       6.687   6.372  16.908  0.00  0.00    +0.000 A 
ATOM      9  C   UNL     1       5.506   5.592  16.921  0.00  0.00    +0.000 A 
ATOM     10  C   UNL     1       4.320   5.479  17.727  0.00  0.00    +0.000 A 
ENDROOT
BRANCH  10  11
ATOM     11  N   UNL     1       3.994   6.201  18.834  0.00  0.00    +0.000 N 
ATOM     12  C   UNL     1       3.083   7.287  18.918  0.00  0.00    +0.000 A 
ATOM     13  C   UNL     1       3.062   8.233  17.885  0.00  0.00    +0.000 A 
ATOM     14  C   UNL     1       2.054   9.187  17.830  0.00  0.00    +0.000 A 
ATOM     15  C   UNL     1       1.093   9.196  18.826  0.00  0.00    +0.000 A 
ATOM     16  C   UNL     1       1.227   8.290  19.864  0.00  0.00    +0.000 A 
ATOM     17  N   UNL     1       2.218   7.358  19.941  0.00  0.00    +0.000 NA
ATOM     18  H   UNL     1       4.462   6.056  19.728  0.00  0.00    +0.000 HD
ENDBRANCH  10  11
BRANCH   1  19
ATOM     19  N   UNL     1       2.388   3.902  17.512  0.00  0.00    +0.000 N 
ATOM     20  H   UNL     1       1.629   4.482  17.867  0.00  0.00    +0.000 HD
BRANCH  19  21
ATOM     21  C   UNL     1       2.332   2.488  17.843  0.00  0.00    +0.000 C 
BRANCH  21  22
ATOM     22  C   UNL     1       1.300   2.198  18.928  0.00  0.00    +0.000 C 
ATOM     23  O   UNL     1       0.083   2.227  18.787  0.00  0.00    +0.000 OA
BRANCH  22  24
ATOM     24  O   UNL     1       1.950   2.023  20.118  0.00  0.00    +0.000 OA
BRANCH  24  26
ATOM     25  C   UNL     1       2.103   4.090  21.295  0.00  0.00    +0.000 C 
ATOM     26  C   UNL     1       1.393   2.750  21.222  0.00  0.00    +0.000 C 
ENDBRANCH  24  26
ENDBRANCH  22  24
ENDBRANCH  21  22
ENDBRANCH  19  21
ENDBRANCH   1  19
BRANCH   8  27
ATOM     27  C   UNL     1       7.118   7.403  17.909  0.00  0.00    +0.000 C 
BRANCH  27  28
ATOM     28  O   UNL     1       8.168   6.945  18.745  0.00  0.00    +0.000 OA
ATOM     29  H   UNL     1       8.096   7.439  19.581  0.00  0.00    +0.000 HD
ENDBRANCH  27  28
ENDBRANCH   8  27
TORSDOF 8
ENDMDL
MODEL 5
REMARK VINA RESULT:      -6.6      2.697      5.842
REMARK  Name = 
REMARK  10 active torsions:
REMARK  status: ('A' for Active; 'I' for Inactive)
REMARK    1  A    between atoms: C_1  and  C_2
REMARK    2  A    between atoms: C_2  and  O_3
REMARK    3  A    between atoms: O_3  and  C_4
REMARK    4  A    between atoms: C_4  and  C_6
REMARK    5  A    between atoms: C_6  and  N_7
REMARK    6  A    between atoms: N_7  and  C_8
REMARK    7  A    between atoms: C_11  and  C_12
REMARK    8  A    between atoms: C_15  and  C_16
REMARK    9  A    between atoms: C_16  and  O_17
REMARK   10  A    between atoms: C_19  and  N_20
REMARK                            x       y       z     vdW  Elec       q    Type
REMARK                         _______ _______ _______ _____ _____    ______ ____
ROOT
ATOM      1  C   UNL     1       3.572   6.659  17.980  0.00  0.00    +0.000 A 
ATOM      2  O   UNL     1       4.685   7.437  18.026  0.00  0.00    +0.000 OA
ATOM      3  C   UNL     1       5.657   6.794  17.329  0.00  0.00    +0.000 A 
ATOM      4  C   UNL     1       6.944   7.289  17.105  0.00  0.00    +0.000 A 
ATOM      5  C   UNL     1       7.474   8.602  17.580  0.00  0.00    +0.000 C 
ATOM      6  N   UNL     1       7.800   6.508  16.398  0.00  0.00    +0.000 NA
ATOM      7  C   UNL     1       7.383   5.304  15.958  0.00  0.00    +0.000 A 
ATOM      8  C   UNL     1       6.114   4.740  16.153  0.00  0.00    +0.000 A 
ATOM      9  C   UNL     1       5.200   5.554  16.864  0.00  0.00    +0.000 A 
ATOM     10  C   UNL     1       3.838   5.469  17.318  0.00  0.00    +0.000 A 
ENDROOT
BRANCH  10  11
ATOM     11  N   UNL     1       2.969   4.434  17.156  0.00  0.00    +0.000 N 
ATOM     12  C   UNL     1       2.399   3.620  18.171  0.00  0.00    +0.000 A 
ATOM     13  C   UNL     1       3.201   3.215  19.245  0.00  0.00    +0.000 A 
ATOM     14  C   UNL     1       2.632   2.596  20.350  0.00  0.00    +0.000 A 
ATOM     15  C   UNL     1       1.267   2.367  20.354  0.00  0.00    +0.000 A 
ATOM     16  C   UNL     1       0.550   2.711  19.221  0.00  0.00    +0.000 A 
ATOM     17  N   UNL     1       1.095   3.305  18.123  0.00  0.00    +0.000 NA
ATOM     18  H   UNL     1       2.701   4.096  16.234  0.00  0.00    +0.000 HD
ENDBRANCH  10  11
BRANCH   1  19
ATOM     19  N   UNL     1       2.451   7.164  18.531  0.00  0.00    +0.000 N 
ATOM     20  H   UNL     1       1.935   7.889  18.034  0.00  0.00    +0.000 HD
BRANCH  19  21
ATOM     21  C   UNL     1       2.205   7.057  19.959  0.00  0.00    +0.000 C 
BRANCH  21  22
ATOM     22  C   UNL     1       1.492   8.290  20.508  0.00  0.00    +0.000 C 
ATOM     23  O   UNL     1       1.010   8.400  21.628  0.00  0.00    +0.000 OA
BRANCH  22  24
ATOM     24  O   UNL     1       1.367   9.209  19.503  0.00  0.00    +0.000 OA
BRANCH  24  26
ATOM     25  C   UNL     1      -0.750  10.203  19.046  0.00  0.00    +0.000 C 
ATOM     26  C   UNL     1       0.549  10.342  19.821  0.00  0.00    +0.000 C 
ENDBRANCH  24  26
ENDBRANCH  22  24
ENDBRANCH  21  22
ENDBRANCH  19  21
ENDBRANCH   1  19
BRANCH   8  27
ATOM     27  C   UNL     1       5.861   3.395  15.538  0.00  0.00    +0.000 C 
BRANCH  27  28
ATOM     28  O   UNL     1       6.252   3.337  14.176  0.00  0.00    +0.000 OA
ATOM     29  H   UNL     1       6.946   2.657  14.112  0.00  0.00    +0.000 HD
ENDBRANCH  27  28
ENDBRANCH   8  27
TORSDOF 8
ENDMDL
MODEL 6
REMARK VINA RESULT:      -6.6      2.390      5.074
REMARK  Name = 
REMARK  10 active torsions:
REMARK  status: ('A' for Active; 'I' for Inactive)
REMARK    1  A    between atoms: C_1  and  C_2
REMARK    2  A    between atoms: C_2  and  O_3
REMARK    3  A    between atoms: O_3  and  C_4
REMARK    4  A    between atoms: C_4  and  C_6
REMARK    5  A    between atoms: C_6  and  N_7
REMARK    6  A    between atoms: N_7  and  C_8
REMARK    7  A    between atoms: C_11  and  C_12
REMARK    8  A    between atoms: C_15  and  C_16
REMARK    9  A    between atoms: C_16  and  O_17
REMARK   10  A    between atoms: C_19  and  N_20
REMARK                            x       y       z     vdW  Elec       q    Type
REMARK                         _______ _______ _______ _____ _____    ______ ____
ROOT
ATOM      1  C   UNL     1       3.736   4.059  16.917  0.00  0.00    +0.000 A 
ATOM      2  O   UNL     1       2.965   3.015  17.320  0.00  0.00    +0.000 OA
ATOM      3  C   UNL     1       2.237   3.439  18.384  0.00  0.00    +0.000 A 
ATOM      4  C   UNL     1       1.286   2.671  19.062  0.00  0.00    +0.000 A 
ATOM      5  C   UNL     1       0.901   1.265  18.737  0.00  0.00    +0.000 C 
ATOM      6  N   UNL     1       0.656   3.245  20.119  0.00  0.00    +0.000 NA
ATOM      7  C   UNL     1       0.976   4.506  20.470  0.00  0.00    +0.000 A 
ATOM      8  C   UNL     1       1.923   5.331  19.845  0.00  0.00    +0.000 A 
ATOM      9  C   UNL     1       2.568   4.758  18.723  0.00  0.00    +0.000 A 
ATOM     10  C   UNL     1       3.570   5.143  17.766  0.00  0.00    +0.000 A 
ENDROOT
BRANCH  10  11
ATOM     11  N   UNL     1       4.244   6.323  17.696  0.00  0.00    +0.000 N 
ATOM     12  C   UNL     1       5.611   6.555  18.003  0.00  0.00    +0.000 A 
ATOM     13  C   UNL     1       6.172   5.918  19.117  0.00  0.00    +0.000 A 
ATOM     14  C   UNL     1       7.544   5.957  19.329  0.00  0.00    +0.000 A 
ATOM     15  C   UNL     1       8.335   6.657  18.435  0.00  0.00    +0.000 A 
ATOM     16  C   UNL     1       7.704   7.338  17.409  0.00  0.00    +0.000 A 
ATOM     17  N   UNL     1       6.358   7.323  17.195  0.00  0.00    +0.000 NA
ATOM     18  H   UNL     1       3.773   7.199  17.474  0.00  0.00    +0.000 HD
ENDBRANCH  10  11
BRANCH   1  19
ATOM     19  N   UNL     1       4.470   3.880  15.801  0.00  0.00    +0.000 N 
ATOM     20  H   UNL     1       4.028   3.482  14.973  0.00  0.00    +0.000 HD
BRANCH  19  21
ATOM     21  C   UNL     1       5.919   3.801  15.862  0.00  0.00    +0.000 C 
BRANCH  21  22
ATOM     22  C   UNL     1       6.576   4.440  14.643  0.00  0.00    +0.000 C 
ATOM     23  O   UNL     1       7.567   5.161  14.656  0.00  0.00    +0.000 OA
BRANCH  22  24
ATOM     24  O   UNL     1       5.806   4.181  13.543  0.00  0.00    +0.000 OA
BRANCH  24  26
ATOM     25  C   UNL     1       5.567   2.607  11.769  0.00  0.00    +0.000 C 
ATOM     26  C   UNL     1       6.508   3.592  12.441  0.00  0.00    +0.000 C 
ENDBRANCH  24  26
ENDBRANCH  22  24
ENDBRANCH  21  22
ENDBRANCH  19  21
ENDBRANCH   1  19
BRANCH   8  27
ATOM     27  C   UNL     1       2.086   6.720  20.389  0.00  0.00    +0.000 C 
BRANCH  27  28
ATOM     28  O   UNL     1       2.085   7.707  19.371  0.00  0.00    +0.000 OA
ATOM     29  H   UNL     1       2.638   8.441  19.691  0.00  0.00    +0.000 HD
ENDBRANCH  27  28
ENDBRANCH   8  27
TORSDOF 8
ENDMDL
MODEL 7
REMARK VINA RESULT:      -6.6      3.011      7.389
REMARK  Name = 
REMARK  10 active torsions:
REMARK  status: ('A' for Active; 'I' for Inactive)
REMARK    1  A    between atoms: C_1  and  C_2
REMARK    2  A    between atoms: C_2  and  O_3
REMARK    3  A    between atoms: O_3  and  C_4
REMARK    4  A    between atoms: C_4  and  C_6
REMARK    5  A    between atoms: C_6  and  N_7
REMARK    6  A    between atoms: N_7  and  C_8
REMARK    7  A    between atoms: C_11  and  C_12
REMARK    8  A    between atoms: C_15  and  C_16
REMARK    9  A    between atoms: C_16  and  O_17
REMARK   10  A    between atoms: C_19  and  N_20
REMARK                            x       y       z     vdW  Elec       q    Type
REMARK                         _______ _______ _______ _____ _____    ______ ____
ROOT
ATOM      1  C   UNL     1       7.359   6.518  17.459  0.00  0.00    +0.000 A 
ATOM      2  O   UNL     1       7.749   6.320  16.172  0.00  0.00    +0.000 OA
ATOM      3  C   UNL     1       6.944   5.362  15.648  0.00  0.00    +0.000 A 
ATOM      4  C   UNL     1       6.995   4.905  14.328  0.00  0.00    +0.000 A 
ATOM      5  C   UNL     1       7.931   5.388  13.268  0.00  0.00    +0.000 C 
ATOM      6  N   UNL     1       6.124   3.927  13.971  0.00  0.00    +0.000 NA
ATOM      7  C   UNL     1       5.269   3.438  14.890  0.00  0.00    +0.000 A 
ATOM      8  C   UNL     1       5.167   3.841  16.230  0.00  0.00    +0.000 A 
ATOM      9  C   UNL     1       6.048   4.880  16.612  0.00  0.00    +0.000 A 
ATOM     10  C   UNL     1       6.348   5.631  17.801  0.00  0.00    +0.000 A 
ENDROOT
BRANCH  10  11
ATOM     11  N   UNL     1       5.778   5.506  19.031  0.00  0.00    +0.000 N 
ATOM     12  C   UNL     1       4.396   5.574  19.351  0.00  0.00    +0.000 A 
ATOM     13  C   UNL     1       3.598   6.531  18.710  0.00  0.00    +0.000 A 
ATOM     14  C   UNL     1       2.217   6.493  18.844  0.00  0.00    +0.000 A 
ATOM     15  C   UNL     1       1.652   5.511  19.639  0.00  0.00    +0.000 A 
ATOM     16  C   UNL     1       2.505   4.655  20.314  0.00  0.00    +0.000 A 
ATOM     17  N   UNL     1       3.863   4.688  20.206  0.00  0.00    +0.000 NA
ATOM     18  H   UNL     1       6.338   5.423  19.877  0.00  0.00    +0.000 HD
ENDBRANCH  10  11
BRANCH   1  19
ATOM     19  N   UNL     1       7.970   7.509  18.136  0.00  0.00    +0.000 N 
ATOM     20  H   UNL     1       8.285   7.339  19.091  0.00  0.00    +0.000 HD
BRANCH  19  21
ATOM     21  C   UNL     1       7.796   8.898  17.749  0.00  0.00    +0.000 C 
BRANCH  21  22
ATOM     22  C   UNL     1       8.777   9.817  18.472  0.00  0.00    +0.000 C 
ATOM     23  O   UNL     1       9.210   9.654  19.606  0.00  0.00    +0.000 OA
BRANCH  22  24
ATOM     24  O   UNL     1       8.997  10.922  17.697  0.00  0.00    +0.000 OA
BRANCH  24  26
ATOM     25  C   UNL     1      11.069  12.101  17.705  0.00  0.00    +0.000 C 
ATOM     26  C   UNL     1       9.699  11.987  18.351  0.00  0.00    +0.000 C 
ENDBRANCH  24  26
ENDBRANCH  22  24
ENDBRANCH  21  22
ENDBRANCH  19  21
ENDBRANCH   1  19
BRANCH   8  27
ATOM     27  C   UNL     1       4.109   3.179  17.065  0.00  0.00    +0.000 C 
BRANCH  27  28
ATOM     28  O   UNL     1       4.642   2.545  18.216  0.00  0.00    +0.000 OA
ATOM     29  H   UNL     1       4.812   1.618  17.973  0.00  0.00    +0.000 HD
ENDBRANCH  27  28
ENDBRANCH   8  27
TORSDOF 8
ENDMDL
MODEL 8
REMARK VINA RESULT:      -6.5      2.929      5.384
REMARK  Name = 
REMARK  10 active torsions:
REMARK  status: ('A' for Active; 'I' for Inactive)
REMARK    1  A    between atoms: C_1  and  C_2
REMARK    2  A    between atoms: C_2  and  O_3
REMARK    3  A    between atoms: O_3  and  C_4
REMARK    4  A    between atoms: C_4  and  C_6
REMARK    5  A    between atoms: C_6  and  N_7
REMARK    6  A    between atoms: N_7  and  C_8
REMARK    7  A    between atoms: C_11  and  C_12
REMARK    8  A    between atoms: C_15  and  C_16
REMARK    9  A    between atoms: C_16  and  O_17
REMARK   10  A    between atoms: C_19  and  N_20
REMARK                            x       y       z     vdW  Elec       q    Type
REMARK                         _______ _______ _______ _____ _____    ______ ____
ROOT
ATOM      1  C   UNL     1       2.319   6.366  20.023  0.00  0.00    +0.000 A 
ATOM      2  O   UNL     1       1.798   5.356  20.769  0.00  0.00    +0.000 OA
ATOM      3  C   UNL     1       2.070   4.194  20.123  0.00  0.00    +0.000 A 
ATOM      4  C   UNL     1       1.738   2.920  20.591  0.00  0.00    +0.000 A 
ATOM      5  C   UNL     1       1.037   2.612  21.874  0.00  0.00    +0.000 C 
ATOM      6  N   UNL     1       2.071   1.861  19.810  0.00  0.00    +0.000 NA
ATOM      7  C   UNL     1       2.688   2.079  18.632  0.00  0.00    +0.000 A 
ATOM      8  C   UNL     1       3.043   3.326  18.096  0.00  0.00    +0.000 A 
ATOM      9  C   UNL     1       2.729   4.439  18.911  0.00  0.00    +0.000 A 
ATOM     10  C   UNL     1       2.864   5.870  18.848  0.00  0.00    +0.000 A 
ENDROOT
BRANCH  10  11
ATOM     11  N   UNL     1       3.403   6.612  17.842  0.00  0.00    +0.000 N 
ATOM     12  C   UNL     1       4.703   6.490  17.283  0.00  0.00    +0.000 A 
ATOM     13  C   UNL     1       5.788   6.248  18.135  0.00  0.00    +0.000 A 
ATOM     14  C   UNL     1       7.031   5.923  17.611  0.00  0.00    +0.000 A 
ATOM     15  C   UNL     1       7.179   5.868  16.236  0.00  0.00    +0.000 A 
ATOM     16  C   UNL     1       6.089   6.207  15.453  0.00  0.00    +0.000 A 
ATOM     17  N   UNL     1       4.866   6.543  15.951  0.00  0.00    +0.000 NA
ATOM     18  H   UNL     1       2.913   7.407  17.438  0.00  0.00    +0.000 HD
ENDBRANCH  10  11
BRANCH   1  19
ATOM     19  N   UNL     1       2.246   7.607  20.541  0.00  0.00    +0.000 N 
ATOM     20  H   UNL     1       3.106   8.126  20.715  0.00  0.00    +0.000 HD
BRANCH  19  21
ATOM     21  C   UNL     1       1.066   8.049  21.264  0.00  0.00    +0.000 C 
BRANCH  21  22
ATOM     22  C   UNL     1       0.891   9.563  21.197  0.00  0.00    +0.000 C 
ATOM     23  O   UNL     1       0.916  10.245  20.180  0.00  0.00    +0.000 OA
BRANCH  22  24
ATOM     24  O   UNL     1       0.826  10.055  22.472  0.00  0.00    +0.000 OA
BRANCH  24  26
ATOM     25  C   UNL     1      -1.238  11.119  23.008  0.00  0.00    +0.000 C 
ATOM     26  C   UNL     1      -0.426   9.842  23.137  0.00  0.00    +0.000 C 
ENDBRANCH  24  26
ENDBRANCH  22  24
ENDBRANCH  21  22
ENDBRANCH  19  21
ENDBRANCH   1  19
BRANCH   8  27
ATOM     27  C   UNL     1       3.761   3.324  16.778  0.00  0.00    +0.000 C 
BRANCH  27  28
ATOM     28  O   UNL     1       5.142   3.033  16.911  0.00  0.00    +0.000 OA
ATOM     29  H   UNL     1       5.240   2.496  17.717  0.00  0.00    +0.000 HD
ENDBRANCH  27  28
ENDBRANCH   8  27
TORSDOF 8
ENDMDL
MODEL 9
REMARK VINA RESULT:      -6.5      2.921      6.223
REMARK  Name = 
REMARK  10 active torsions:
REMARK  status: ('A' for Active; 'I' for Inactive)
REMARK    1  A    between atoms: C_1  and  C_2
REMARK    2  A    between atoms: C_2  and  O_3
REMARK    3  A    between atoms: O_3  and  C_4
REMARK    4  A    between atoms: C_4  and  C_6
REMARK    5  A    between atoms: C_6  and  N_7
REMARK    6  A    between atoms: N_7  and  C_8
REMARK    7  A    between atoms: C_11  and  C_12
REMARK    8  A    between atoms: C_15  and  C_16
REMARK    9  A    between atoms: C_16  and  O_17
REMARK   10  A    between atoms: C_19  and  N_20
REMARK                            x       y       z     vdW  Elec       q    Type
REMARK                         _______ _______ _______ _____ _____    ______ ____
ROOT
ATOM      1  C   UNL     1       3.584   6.899  18.189  0.00  0.00    +0.000 A 
ATOM      2  O   UNL     1       4.746   7.600  18.114  0.00  0.00    +0.000 OA
ATOM      3  C   UNL     1       5.634   6.836  17.428  0.00  0.00    +0.000 A 
ATOM      4  C   UNL     1       6.937   7.222  17.099  0.00  0.00    +0.000 A 
ATOM      5  C   UNL     1       7.576   8.530  17.435  0.00  0.00    +0.000 C 
ATOM      6  N   UNL     1       7.700   6.329  16.420  0.00  0.00    +0.000 NA
ATOM      7  C   UNL     1       7.184   5.125  16.105  0.00  0.00    +0.000 A 
ATOM      8  C   UNL     1       5.893   4.667  16.409  0.00  0.00    +0.000 A 
ATOM      9  C   UNL     1       5.073   5.597  17.092  0.00  0.00    +0.000 A 
ATOM     10  C   UNL     1       3.736   5.644  17.619  0.00  0.00    +0.000 A 
ENDROOT
BRANCH  10  11
ATOM     11  N   UNL     1       2.794   4.661  17.588  0.00  0.00    +0.000 N 
ATOM     12  C   UNL     1       2.305   3.902  18.683  0.00  0.00    +0.000 A 
ATOM     13  C   UNL     1       3.207   3.467  19.663  0.00  0.00    +0.000 A 
ATOM     14  C   UNL     1       2.742   2.903  20.843  0.00  0.00    +0.000 A 
ATOM     15  C   UNL     1       1.376   2.758  21.017  0.00  0.00    +0.000 A 
ATOM     16  C   UNL     1       0.548   3.126  19.971  0.00  0.00    +0.000 A 
ATOM     17  N   UNL     1       0.989   3.667  18.801  0.00  0.00    +0.000 NA
ATOM     18  H   UNL     1       2.397   4.325  16.713  0.00  0.00    +0.000 HD
ENDBRANCH  10  11
BRANCH   1  19
ATOM     19  N   UNL     1       2.530   7.524  18.749  0.00  0.00    +0.000 N 
ATOM     20  H   UNL     1       1.960   7.025  19.432  0.00  0.00    +0.000 HD
BRANCH  19  21
ATOM     21  C   UNL     1       1.915   8.676  18.111  0.00  0.00    +0.000 C 
BRANCH  21  22
ATOM     22  C   UNL     1       1.118   9.518  19.102  0.00  0.00    +0.000 C 
ATOM     23  O   UNL     1       0.864   9.214  20.261  0.00  0.00    +0.000 OA
BRANCH  22  24
ATOM     24  O   UNL     1       0.625  10.614  18.450  0.00  0.00    +0.000 OA
BRANCH  24  26
ATOM     25  C   UNL     1      -1.522  10.080  17.563  0.00  0.00    +0.000 C 
ATOM     26  C   UNL     1      -0.776  10.848  18.640  0.00  0.00    +0.000 C 
ENDBRANCH  24  26
ENDBRANCH  22  24
ENDBRANCH  21  22
ENDBRANCH  19  21
ENDBRANCH   1  19
BRANCH   8  27
ATOM     27  C   UNL     1       5.520   3.297  15.924  0.00  0.00    +0.000 C 
BRANCH  27  28
ATOM     28  O   UNL     1       4.800   2.553  16.893  0.00  0.00    +0.000 OA
ATOM     29  H   UNL     1       5.093   2.870  17.766  0.00  0.00    +0.000 HD
ENDBRANCH  27  28
ENDBRANCH   8  27
TORSDOF 8
ENDMDL
