MODEL 1
REMARK VINA RESULT:      -7.9      0.000      0.000
REMARK  Name = 
REMARK  14 active torsions:
REMARK  status: ('A' for Active; 'I' for Inactive)
REMARK    1  A    between atoms: C_1  and  O_2
REMARK    2  A    between atoms: O_2  and  C_3
REMARK    3  A    between atoms: C_6  and  C_7
REMARK    4  A    between atoms: C_8  and  C_9
REMARK    5  A    between atoms: C_16  and  C_17
REMARK    6  A    between atoms: C_19  and  O_20
REMARK    7  A    between atoms: O_20  and  C_21
REMARK    8  A    between atoms: C_22  and  O_23
REMARK    9  A    between atoms: O_23  and  C_24
REMARK   10  A    between atoms: C_25  and  O_26
REMARK   11  A    between atoms: O_26  and  C_27
REMARK   12  A    between atoms: C_32  and  O_33
REMARK   13  A    between atoms: O_33  and  C_34
REMARK   14  A    between atoms: C_34  and  C_35
REMARK                            x       y       z     vdW  Elec       q    Type
REMARK                         _______ _______ _______ _____ _____    ______ ____
ROOT
ATOM      1  C   UNL     1       1.264   7.963  20.419  0.00  0.00    +0.000 C 
ATOM      2  O   UNL     1       0.959   7.188  21.326  0.00  0.00    +0.000 OA
ATOM      3  N   UNL     1       0.765   9.262  20.326  0.00  0.00    +0.000 N 
ATOM      4  C   UNL     1      -0.023   9.752  21.456  0.00  0.00    +0.000 C 
ATOM      5  C   UNL     1       0.151  11.244  21.699  0.00  0.00    +0.000 C 
ATOM      6  C   UNL     1      -0.140  12.003  20.418  0.00  0.00    +0.000 C 
ATOM      7  C   UNL     1       0.725  11.467  19.325  0.00  0.00    +0.000 C 
ATOM      8  C   UNL     1       1.600  12.144  18.560  0.00  0.00    +0.000 C 
ATOM      9  C   UNL     1       0.755   9.985  19.136  0.00  0.00    +0.000 C 
ATOM     10  O   UNL     1       0.815   9.507  18.008  0.00  0.00    +0.000 OA
ENDROOT
BRANCH   8  11
ATOM     11  C   UNL     1       1.912  13.558  18.733  0.00  0.00    +0.000 A 
ATOM     12  C   UNL     1       3.248  13.936  18.845  0.00  0.00    +0.000 A 
ATOM     13  C   UNL     1       3.594  15.281  18.985  0.00  0.00    +0.000 A 
ATOM     14  C   UNL     1       2.582  16.265  19.045  0.00  0.00    +0.000 A 
ATOM     15  C   UNL     1       1.224  15.875  18.968  0.00  0.00    +0.000 A 
ATOM     16  C   UNL     1       0.908  14.520  18.801  0.00  0.00    +0.000 A 
BRANCH  13  17
ATOM     17  O   UNL     1       4.902  15.702  19.087  0.00  0.00    +0.000 OA
ATOM     18  C   UNL     1       5.600  15.288  20.259  0.00  0.00    +0.000 C 
ENDBRANCH  13  17
BRANCH  14  19
ATOM     19  O   UNL     1       3.026  17.555  19.244  0.00  0.00    +0.000 OA
ATOM     20  C   UNL     1       2.995  18.050  20.577  0.00  0.00    +0.000 C 
ENDBRANCH  14  19
BRANCH  15  21
ATOM     21  O   UNL     1       0.264  16.846  19.096  0.00  0.00    +0.000 OA
ATOM     22  C   UNL     1      -0.405  17.286  17.921  0.00  0.00    +0.000 C 
ENDBRANCH  15  21
ENDBRANCH   8  11
BRANCH   1  24
ATOM     23  C   UNL     1       2.414   6.256  19.071  0.00  0.00    +0.000 C 
ATOM     24  C   UNL     1       2.263   7.552  19.387  0.00  0.00    +0.000 C 
BRANCH  23  28
ATOM     25  C   UNL     1       5.322   4.569  16.392  0.00  0.00    +0.000 A 
ATOM     26  C   UNL     1       4.097   3.944  16.648  0.00  0.00    +0.000 A 
ATOM     27  C   UNL     1       3.156   4.528  17.496  0.00  0.00    +0.000 A 
ATOM     28  C   UNL     1       3.431   5.742  18.136  0.00  0.00    +0.000 A 
ATOM     29  C   UNL     1       4.645   6.393  17.855  0.00  0.00    +0.000 A 
ATOM     30  C   UNL     1       5.584   5.811  16.995  0.00  0.00    +0.000 A 
BRANCH  25  32
ATOM     31  C   UNL     1       6.078   4.059  14.186  0.00  0.00    +0.000 C 
ATOM     32  O   UNL     1       6.136   3.827  15.584  0.00  0.00    +0.000 OA
ENDBRANCH  25  32
BRANCH  30  33
ATOM     33  O   UNL     1       6.841   6.423  16.712  0.00  0.00    +0.000 OA
BRANCH  33  34
ATOM     34  C   UNL     1       7.614   7.295  17.475  0.00  0.00    +0.000 C 
ATOM     35  C   UNL     1       8.069   6.585  18.722  0.00  0.00    +0.000 C 
ATOM     36  O   UNL     1       7.872   8.462  17.217  0.00  0.00    +0.000 OA
ENDBRANCH  33  34
ENDBRANCH  30  33
ENDBRANCH  23  28
ENDBRANCH   1  24
TORSDOF 9
ENDMDL
MODEL 2
REMARK VINA RESULT:      -7.7      1.240      1.248
REMARK  Name = 
REMARK  14 active torsions:
REMARK  status: ('A' for Active; 'I' for Inactive)
REMARK    1  A    between atoms: C_1  and  O_2
REMARK    2  A    between atoms: O_2  and  C_3
REMARK    3  A    between atoms: C_6  and  C_7
REMARK    4  A    between atoms: C_8  and  C_9
REMARK    5  A    between atoms: C_16  and  C_17
REMARK    6  A    between atoms: C_19  and  O_20
REMARK    7  A    between atoms: O_20  and  C_21
REMARK    8  A    between atoms: C_22  and  O_23
REMARK    9  A    between atoms: O_23  and  C_24
REMARK   10  A    between atoms: C_25  and  O_26
REMARK   11  A    between atoms: O_26  and  C_27
REMARK   12  A    between atoms: C_32  and  O_33
REMARK   13  A    between atoms: O_33  and  C_34
REMARK   14  A    between atoms: C_34  and  C_35
REMARK                            x       y       z     vdW  Elec       q    Type
REMARK                         _______ _______ _______ _____ _____    ______ ____
ROOT
ATOM      1  C   UNL     1       1.353   7.394  20.527  0.00  0.00    +0.000 C 
ATOM      2  O   UNL     1       1.031   6.471  21.276  0.00  0.00    +0.000 OA
ATOM      3  N   UNL     1       0.760   8.655  20.575  0.00  0.00    +0.000 N 
ATOM      4  C   UNL     1      -0.163   8.913  21.679  0.00  0.00    +0.000 C 
ATOM      5  C   UNL     1      -0.132  10.359  22.154  0.00  0.00    +0.000 C 
ATOM      6  C   UNL     1      -0.367  11.285  20.974  0.00  0.00    +0.000 C 
ATOM      7  C   UNL     1       0.633  10.981  19.908  0.00  0.00    +0.000 C 
ATOM      8  C   UNL     1       1.516  11.823  19.342  0.00  0.00    +0.000 C 
ATOM      9  C   UNL     1       0.800   9.551  19.509  0.00  0.00    +0.000 C 
ATOM     10  O   UNL     1       1.000   9.255  18.335  0.00  0.00    +0.000 OA
ENDROOT
BRANCH   8  11
ATOM     11  C   UNL     1       1.696  13.211  19.751  0.00  0.00    +0.000 A 
ATOM     12  C   UNL     1       2.294  13.470  20.982  0.00  0.00    +0.000 A 
ATOM     13  C   UNL     1       2.511  14.785  21.401  0.00  0.00    +0.000 A 
ATOM     14  C   UNL     1       2.094  15.860  20.586  0.00  0.00    +0.000 A 
ATOM     15  C   UNL     1       1.453  15.595  19.353  0.00  0.00    +0.000 A 
ATOM     16  C   UNL     1       1.273  14.266  18.946  0.00  0.00    +0.000 A 
BRANCH  13  17
ATOM     17  O   UNL     1       3.108  15.088  22.605  0.00  0.00    +0.000 OA
ATOM     18  C   UNL     1       4.505  14.820  22.693  0.00  0.00    +0.000 C 
ENDBRANCH  13  17
BRANCH  14  19
ATOM     19  O   UNL     1       2.300  17.116  21.117  0.00  0.00    +0.000 OA
ATOM     20  C   UNL     1       3.433  17.837  20.650  0.00  0.00    +0.000 C 
ENDBRANCH  14  19
BRANCH  15  21
ATOM     21  O   UNL     1       1.001  16.659  18.616  0.00  0.00    +0.000 OA
ATOM     22  C   UNL     1      -0.401  16.892  18.566  0.00  0.00    +0.000 C 
ENDBRANCH  15  21
ENDBRANCH   8  11
BRANCH   1  24
ATOM     23  C   UNL     1       2.572   6.078  18.844  0.00  0.00    +0.000 C 
ATOM     24  C   UNL     1       2.471   7.212  19.553  0.00  0.00    +0.000 C 
BRANCH  23  28
ATOM     25  C   UNL     1       5.783   4.972  16.210  0.00  0.00    +0.000 A 
ATOM     26  C   UNL     1       4.655   4.164  16.386  0.00  0.00    +0.000 A 
ATOM     27  C   UNL     1       3.612   4.561  17.221  0.00  0.00    +0.000 A 
ATOM     28  C   UNL     1       3.684   5.766  17.929  0.00  0.00    +0.000 A 
ATOM     29  C   UNL     1       4.798   6.600  17.729  0.00  0.00    +0.000 A 
ATOM     30  C   UNL     1       5.840   6.206  16.880  0.00  0.00    +0.000 A 
BRANCH  25  32
ATOM     31  C   UNL     1       6.325   3.985  14.105  0.00  0.00    +0.000 C 
ATOM     32  O   UNL     1       6.724   4.399  15.402  0.00  0.00    +0.000 OA
ENDBRANCH  25  32
BRANCH  30  33
ATOM     33  O   UNL     1       7.003   7.007  16.679  0.00  0.00    +0.000 OA
BRANCH  33  34
ATOM     34  C   UNL     1       7.761   7.746  17.585  0.00  0.00    +0.000 C 
ATOM     35  C   UNL     1       8.183   6.848  18.717  0.00  0.00    +0.000 C 
ATOM     36  O   UNL     1       8.029   8.936  17.516  0.00  0.00    +0.000 OA
ENDBRANCH  33  34
ENDBRANCH  30  33
ENDBRANCH  23  28
ENDBRANCH   1  24
TORSDOF 9
ENDMDL
MODEL 3
REMARK VINA RESULT:      -7.7      0.254      2.140
REMARK  Name = 
REMARK  14 active torsions:
REMARK  status: ('A' for Active; 'I' for Inactive)
REMARK    1  A    between atoms: C_1  and  O_2
REMARK    2  A    between atoms: O_2  and  C_3
REMARK    3  A    between atoms: C_6  and  C_7
REMARK    4  A    between atoms: C_8  and  C_9
REMARK    5  A    between atoms: C_16  and  C_17
REMARK    6  A    between atoms: C_19  and  O_20
REMARK    7  A    between atoms: O_20  and  C_21
REMARK    8  A    between atoms: C_22  and  O_23
REMARK    9  A    between atoms: O_23  and  C_24
REMARK   10  A    between atoms: C_25  and  O_26
REMARK   11  A    between atoms: O_26  and  C_27
REMARK   12  A    between atoms: C_32  and  O_33
REMARK   13  A    between atoms: O_33  and  C_34
REMARK   14  A    between atoms: C_34  and  C_35
REMARK                            x       y       z     vdW  Elec       q    Type
REMARK                         _______ _______ _______ _____ _____    ______ ____
ROOT
ATOM      1  C   UNL     1       1.237   8.071  20.436  0.00  0.00    +0.000 C 
ATOM      2  O   UNL     1       0.922   7.280  21.326  0.00  0.00    +0.000 OA
ATOM      3  N   UNL     1       0.730   9.368  20.356  0.00  0.00    +0.000 N 
ATOM      4  C   UNL     1      -0.081   9.834  21.479  0.00  0.00    +0.000 C 
ATOM      5  C   UNL     1       0.079  11.324  21.748  0.00  0.00    +0.000 C 
ATOM      6  C   UNL     1      -0.195  12.101  20.475  0.00  0.00    +0.000 C 
ATOM      7  C   UNL     1       0.692  11.588  19.388  0.00  0.00    +0.000 C 
ATOM      8  C   UNL     1       1.575  12.283  18.649  0.00  0.00    +0.000 C 
ATOM      9  C   UNL     1       0.736  10.110  19.177  0.00  0.00    +0.000 C 
ATOM     10  O   UNL     1       0.819   9.649  18.043  0.00  0.00    +0.000 OA
ENDROOT
BRANCH   8  11
ATOM     11  C   UNL     1       1.874  13.696  18.850  0.00  0.00    +0.000 A 
ATOM     12  C   UNL     1       0.819  14.606  18.856  0.00  0.00    +0.000 A 
ATOM     13  C   UNL     1       1.057  15.965  19.072  0.00  0.00    +0.000 A 
ATOM     14  C   UNL     1       2.379  16.426  19.256  0.00  0.00    +0.000 A 
ATOM     15  C   UNL     1       3.453  15.506  19.213  0.00  0.00    +0.000 A 
ATOM     16  C   UNL     1       3.181  14.144  19.020  0.00  0.00    +0.000 A 
BRANCH  13  17
ATOM     17  O   UNL     1       0.044  16.898  19.097  0.00  0.00    +0.000 OA
ATOM     18  C   UNL     1      -0.609  17.143  17.853  0.00  0.00    +0.000 C 
ENDBRANCH  13  17
BRANCH  14  19
ATOM     19  O   UNL     1       2.511  17.791  19.401  0.00  0.00    +0.000 OA
ATOM     20  C   UNL     1       2.641  18.289  20.727  0.00  0.00    +0.000 C 
ENDBRANCH  14  19
BRANCH  15  21
ATOM     21  O   UNL     1       4.729  15.994  19.328  0.00  0.00    +0.000 OA
ATOM     22  C   UNL     1       5.722  15.147  19.894  0.00  0.00    +0.000 C 
ENDBRANCH  15  21
ENDBRANCH   8  11
BRANCH   1  24
ATOM     23  C   UNL     1       2.449   6.391  19.110  0.00  0.00    +0.000 C 
ATOM     24  C   UNL     1       2.257   7.683  19.416  0.00  0.00    +0.000 C 
BRANCH  23  28
ATOM     25  C   UNL     1       5.434   4.773  16.474  0.00  0.00    +0.000 A 
ATOM     26  C   UNL     1       4.250   4.088  16.765  0.00  0.00    +0.000 A 
ATOM     27  C   UNL     1       3.282   4.648  17.597  0.00  0.00    +0.000 A 
ATOM     28  C   UNL     1       3.489   5.900  18.188  0.00  0.00    +0.000 A 
ATOM     29  C   UNL     1       4.659   6.611  17.871  0.00  0.00    +0.000 A 
ATOM     30  C   UNL     1       5.626   6.051  17.025  0.00  0.00    +0.000 A 
BRANCH  25  32
ATOM     31  C   UNL     1       5.999   3.957  14.303  0.00  0.00    +0.000 C 
ATOM     32  O   UNL     1       6.286   4.049  15.689  0.00  0.00    +0.000 OA
ENDBRANCH  25  32
BRANCH  30  33
ATOM     33  O   UNL     1       6.843   6.725  16.709  0.00  0.00    +0.000 OA
BRANCH  33  34
ATOM     34  C   UNL     1       7.646   7.555  17.487  0.00  0.00    +0.000 C 
ATOM     35  C   UNL     1       8.112   6.792  18.697  0.00  0.00    +0.000 C 
ATOM     36  O   UNL     1       7.920   8.725  17.266  0.00  0.00    +0.000 OA
ENDBRANCH  33  34
ENDBRANCH  30  33
ENDBRANCH  23  28
ENDBRANCH   1  24
TORSDOF 9
ENDMDL
MODEL 4
REMARK VINA RESULT:      -7.6      1.167      1.300
REMARK  Name = 
REMARK  14 active torsions:
REMARK  status: ('A' for Active; 'I' for Inactive)
REMARK    1  A    between atoms: C_1  and  O_2
REMARK    2  A    between atoms: O_2  and  C_3
REMARK    3  A    between atoms: C_6  and  C_7
REMARK    4  A    between atoms: C_8  and  C_9
REMARK    5  A    between atoms: C_16  and  C_17
REMARK    6  A    between atoms: C_19  and  O_20
REMARK    7  A    between atoms: O_20  and  C_21
REMARK    8  A    between atoms: C_22  and  O_23
REMARK    9  A    between atoms: O_23  and  C_24
REMARK   10  A    between atoms: C_25  and  O_26
REMARK   11  A    between atoms: O_26  and  C_27
REMARK   12  A    between atoms: C_32  and  O_33
REMARK   13  A    between atoms: O_33  and  C_34
REMARK   14  A    between atoms: C_34  and  C_35
REMARK                            x       y       z     vdW  Elec       q    Type
REMARK                         _______ _______ _______ _____ _____    ______ ____
ROOT
ATOM      1  C   UNL     1       1.201   8.359  20.195  0.00  0.00    +0.000 C 
ATOM      2  O   UNL     1       0.668   7.610  21.014  0.00  0.00    +0.000 OA
ATOM      3  N   UNL     1       0.927   9.724  20.118  0.00  0.00    +0.000 N 
ATOM      4  C   UNL     1       0.091  10.293  21.174  0.00  0.00    +0.000 C 
ATOM      5  C   UNL     1       0.465  11.727  21.520  0.00  0.00    +0.000 C 
ATOM      6  C   UNL     1       0.459  12.571  20.259  0.00  0.00    +0.000 C 
ATOM      7  C   UNL     1       1.359  11.942  19.246  0.00  0.00    +0.000 C 
ATOM      8  C   UNL     1       2.417  12.496  18.629  0.00  0.00    +0.000 C 
ATOM      9  C   UNL     1       1.180  10.484  18.978  0.00  0.00    +0.000 C 
ATOM     10  O   UNL     1       1.304  10.044  17.840  0.00  0.00    +0.000 OA
ENDROOT
BRANCH   8  11
ATOM     11  C   UNL     1       2.923  13.833  18.918  0.00  0.00    +0.000 A 
ATOM     12  C   UNL     1       3.523  14.065  20.153  0.00  0.00    +0.000 A 
ATOM     13  C   UNL     1       4.045  15.323  20.462  0.00  0.00    +0.000 A 
ATOM     14  C   UNL     1       3.938  16.377  19.527  0.00  0.00    +0.000 A 
ATOM     15  C   UNL     1       3.296  16.149  18.288  0.00  0.00    +0.000 A 
ATOM     16  C   UNL     1       2.804  14.869  17.995  0.00  0.00    +0.000 A 
BRANCH  13  17
ATOM     17  O   UNL     1       4.657  15.595  21.666  0.00  0.00    +0.000 OA
ATOM     18  C   UNL     1       5.606  14.630  22.115  0.00  0.00    +0.000 C 
ENDBRANCH  13  17
BRANCH  14  19
ATOM     19  O   UNL     1       4.432  17.592  19.952  0.00  0.00    +0.000 OA
ATOM     20  C   UNL     1       5.834  17.798  19.831  0.00  0.00    +0.000 C 
ENDBRANCH  14  19
BRANCH  15  21
ATOM     21  O   UNL     1       3.148  17.209  17.430  0.00  0.00    +0.000 OA
ATOM     22  C   UNL     1       1.843  17.741  17.241  0.00  0.00    +0.000 C 
ENDBRANCH  15  21
ENDBRANCH   8  11
BRANCH   1  24
ATOM     23  C   UNL     1       2.276   6.523  18.959  0.00  0.00    +0.000 C 
ATOM     24  C   UNL     1       2.244   7.829  19.265  0.00  0.00    +0.000 C 
BRANCH  23  28
ATOM     25  C   UNL     1       5.240   4.497  16.596  0.00  0.00    +0.000 A 
ATOM     26  C   UNL     1       3.984   3.938  16.851  0.00  0.00    +0.000 A 
ATOM     27  C   UNL     1       3.027   4.630  17.592  0.00  0.00    +0.000 A 
ATOM     28  C   UNL     1       3.316   5.890  18.128  0.00  0.00    +0.000 A 
ATOM     29  C   UNL     1       4.563   6.473  17.846  0.00  0.00    +0.000 A 
ATOM     30  C   UNL     1       5.519   5.782  17.090  0.00  0.00    +0.000 A 
BRANCH  25  32
ATOM     31  C   UNL     1       6.176   3.839  14.500  0.00  0.00    +0.000 C 
ATOM     32  O   UNL     1       6.064   3.655  15.903  0.00  0.00    +0.000 OA
ENDBRANCH  25  32
BRANCH  30  33
ATOM     33  O   UNL     1       6.809   6.325  16.813  0.00  0.00    +0.000 OA
BRANCH  33  34
ATOM     34  C   UNL     1       7.594   7.212  17.546  0.00  0.00    +0.000 C 
ATOM     35  C   UNL     1       7.993   6.557  18.841  0.00  0.00    +0.000 C 
ATOM     36  O   UNL     1       7.899   8.352  17.230  0.00  0.00    +0.000 OA
ENDBRANCH  33  34
ENDBRANCH  30  33
ENDBRANCH  23  28
ENDBRANCH   1  24
TORSDOF 9
ENDMDL
MODEL 5
REMARK VINA RESULT:      -7.5      1.920      2.715
REMARK  Name = 
REMARK  14 active torsions:
REMARK  status: ('A' for Active; 'I' for Inactive)
REMARK    1  A    between atoms: C_1  and  O_2
REMARK    2  A    between atoms: O_2  and  C_3
REMARK    3  A    between atoms: C_6  and  C_7
REMARK    4  A    between atoms: C_8  and  C_9
REMARK    5  A    between atoms: C_16  and  C_17
REMARK    6  A    between atoms: C_19  and  O_20
REMARK    7  A    between atoms: O_20  and  C_21
REMARK    8  A    between atoms: C_22  and  O_23
REMARK    9  A    between atoms: O_23  and  C_24
REMARK   10  A    between atoms: C_25  and  O_26
REMARK   11  A    between atoms: O_26  and  C_27
REMARK   12  A    between atoms: C_32  and  O_33
REMARK   13  A    between atoms: O_33  and  C_34
REMARK   14  A    between atoms: C_34  and  C_35
REMARK                            x       y       z     vdW  Elec       q    Type
REMARK                         _______ _______ _______ _____ _____    ______ ____
ROOT
ATOM      1  C   UNL     1       0.075   9.259  21.576  0.00  0.00    +0.000 C 
ATOM      2  O   UNL     1      -0.640   8.846  22.489  0.00  0.00    +0.000 OA
ATOM      3  N   UNL     1       0.065  10.583  21.139  0.00  0.00    +0.000 N 
ATOM      4  C   UNL     1      -0.718  11.535  21.926  0.00  0.00    +0.000 C 
ATOM      5  C   UNL     1      -0.106  12.929  21.951  0.00  0.00    +0.000 C 
ATOM      6  C   UNL     1       0.127  13.406  20.529  0.00  0.00    +0.000 C 
ATOM      7  C   UNL     1       0.958  12.398  19.806  0.00  0.00    +0.000 C 
ATOM      8  C   UNL     1       2.139  12.592  19.192  0.00  0.00    +0.000 C 
ATOM      9  C   UNL     1       0.528  10.969  19.883  0.00  0.00    +0.000 C 
ATOM     10  O   UNL     1       0.643  10.234  18.908  0.00  0.00    +0.000 OA
ENDROOT
BRANCH   8  11
ATOM     11  C   UNL     1       2.864  13.856  19.200  0.00  0.00    +0.000 A 
ATOM     12  C   UNL     1       3.676  14.151  20.294  0.00  0.00    +0.000 A 
ATOM     13  C   UNL     1       4.410  15.339  20.331  0.00  0.00    +0.000 A 
ATOM     14  C   UNL     1       4.306  16.263  19.267  0.00  0.00    +0.000 A 
ATOM     15  C   UNL     1       3.453  15.978  18.176  0.00  0.00    +0.000 A 
ATOM     16  C   UNL     1       2.749  14.766  18.153  0.00  0.00    +0.000 A 
BRANCH  13  17
ATOM     17  O   UNL     1       5.233  15.667  21.386  0.00  0.00    +0.000 OA
ATOM     18  C   UNL     1       6.324  14.781  21.624  0.00  0.00    +0.000 C 
ENDBRANCH  13  17
BRANCH  14  19
ATOM     19  O   UNL     1       5.024  17.429  19.429  0.00  0.00    +0.000 OA
ATOM     20  C   UNL     1       6.363  17.434  18.951  0.00  0.00    +0.000 C 
ENDBRANCH  14  19
BRANCH  15  21
ATOM     21  O   UNL     1       3.323  16.924  17.192  0.00  0.00    +0.000 OA
ATOM     22  C   UNL     1       2.070  17.583  17.057  0.00  0.00    +0.000 C 
ENDBRANCH  15  21
ENDBRANCH   8  11
BRANCH   1  24
ATOM     23  C   UNL     1       0.873   7.015  20.958  0.00  0.00    +0.000 C 
ATOM     24  C   UNL     1       1.060   8.343  20.925  0.00  0.00    +0.000 C 
BRANCH  23  28
ATOM     25  C   UNL     1       3.638   4.027  19.579  0.00  0.00    +0.000 A 
ATOM     26  C   UNL     1       2.564   3.714  20.418  0.00  0.00    +0.000 A 
ATOM     27  C   UNL     1       1.661   4.696  20.825  0.00  0.00    +0.000 A 
ATOM     28  C   UNL     1       1.829   6.027  20.427  0.00  0.00    +0.000 A 
ATOM     29  C   UNL     1       2.885   6.342  19.555  0.00  0.00    +0.000 A 
ATOM     30  C   UNL     1       3.785   5.353  19.137  0.00  0.00    +0.000 A 
BRANCH  25  32
ATOM     31  C   UNL     1       3.858   1.797  18.757  0.00  0.00    +0.000 C 
ATOM     32  O   UNL     1       4.446   2.954  19.330  0.00  0.00    +0.000 OA
ENDBRANCH  25  32
BRANCH  30  33
ATOM     33  O   UNL     1       4.889   5.640  18.282  0.00  0.00    +0.000 OA
BRANCH  33  34
ATOM     34  C   UNL     1       4.943   5.813  16.901  0.00  0.00    +0.000 C 
ATOM     35  C   UNL     1       5.202   4.480  16.250  0.00  0.00    +0.000 C 
ATOM     36  O   UNL     1       4.834   6.866  16.290  0.00  0.00    +0.000 OA
ENDBRANCH  33  34
ENDBRANCH  30  33
ENDBRANCH  23  28
ENDBRANCH   1  24
TORSDOF 9
ENDMDL
MODEL 6
REMARK VINA RESULT:      -7.4      3.955      6.343
REMARK  Name = 
REMARK  14 active torsions:
REMARK  status: ('A' for Active; 'I' for Inactive)
REMARK    1  A    between atoms: C_1  and  O_2
REMARK    2  A    between atoms: O_2  and  C_3
REMARK    3  A    between atoms: C_6  and  C_7
REMARK    4  A    between atoms: C_8  and  C_9
REMARK    5  A    between atoms: C_16  and  C_17
REMARK    6  A    between atoms: C_19  and  O_20
REMARK    7  A    between atoms: O_20  and  C_21
REMARK    8  A    between atoms: C_22  and  O_23
REMARK    9  A    between atoms: O_23  and  C_24
REMARK   10  A    between atoms: C_25  and  O_26
REMARK   11  A    between atoms: O_26  and  C_27
REMARK   12  A    between atoms: C_32  and  O_33
REMARK   13  A    between atoms: O_33  and  C_34
REMARK   14  A    between atoms: C_34  and  C_35
REMARK                            x       y       z     vdW  Elec       q    Type
REMARK                         _______ _______ _______ _____ _____    ______ ____
ROOT
ATOM      1  C   UNL     1       1.666  10.782  18.513  0.00  0.00    +0.000 C 
ATOM      2  O   UNL     1       2.290  10.974  17.469  0.00  0.00    +0.000 OA
ATOM      3  N   UNL     1       1.123  11.815  19.277  0.00  0.00    +0.000 N 
ATOM      4  C   UNL     1       1.171  13.159  18.704  0.00  0.00    +0.000 C 
ATOM      5  C   UNL     1      -0.029  14.013  19.091  0.00  0.00    +0.000 C 
ATOM      6  C   UNL     1      -0.170  14.033  20.601  0.00  0.00    +0.000 C 
ATOM      7  C   UNL     1      -0.245  12.628  21.103  0.00  0.00    +0.000 C 
ATOM      8  C   UNL     1      -1.221  12.067  21.840  0.00  0.00    +0.000 C 
ATOM      9  C   UNL     1       0.796  11.670  20.623  0.00  0.00    +0.000 C 
ATOM     10  O   UNL     1       1.251  10.819  21.380  0.00  0.00    +0.000 OA
ENDROOT
BRANCH   8  11
ATOM     11  C   UNL     1      -2.452  12.751  22.219  0.00  0.00    +0.000 A 
ATOM     12  C   UNL     1      -3.553  12.657  21.371  0.00  0.00    +0.000 A 
ATOM     13  C   UNL     1      -4.760  13.273  21.709  0.00  0.00    +0.000 A 
ATOM     14  C   UNL     1      -4.858  14.022  22.902  0.00  0.00    +0.000 A 
ATOM     15  C   UNL     1      -3.727  14.147  23.743  0.00  0.00    +0.000 A 
ATOM     16  C   UNL     1      -2.536  13.496  23.392  0.00  0.00    +0.000 A 
BRANCH  13  17
ATOM     17  O   UNL     1      -5.878  13.198  20.907  0.00  0.00    +0.000 OA
ATOM     18  C   UNL     1      -6.336  11.884  20.597  0.00  0.00    +0.000 C 
ENDBRANCH  13  17
BRANCH  14  19
ATOM     19  O   UNL     1      -6.073  14.639  23.112  0.00  0.00    +0.000 OA
ATOM     20  C   UNL     1      -7.005  13.962  23.947  0.00  0.00    +0.000 C 
ENDBRANCH  14  19
BRANCH  15  21
ATOM     21  O   UNL     1      -3.834  14.936  24.860  0.00  0.00    +0.000 OA
ATOM     22  C   UNL     1      -3.149  16.182  24.868  0.00  0.00    +0.000 C 
ENDBRANCH  15  21
ENDBRANCH   8  11
BRANCH   1  24
ATOM     23  C   UNL     1       2.314   8.425  18.785  0.00  0.00    +0.000 C 
ATOM     24  C   UNL     1       1.402   9.389  18.982  0.00  0.00    +0.000 C 
BRANCH  23  28
ATOM     25  C   UNL     1       1.762   4.331  19.975  0.00  0.00    +0.000 A 
ATOM     26  C   UNL     1       1.480   5.399  20.833  0.00  0.00    +0.000 A 
ATOM     27  C   UNL     1       1.636   6.719  20.413  0.00  0.00    +0.000 A 
ATOM     28  C   UNL     1       2.110   7.006  19.127  0.00  0.00    +0.000 A 
ATOM     29  C   UNL     1       2.360   5.939  18.247  0.00  0.00    +0.000 A 
ATOM     30  C   UNL     1       2.192   4.613  18.667  0.00  0.00    +0.000 A 
BRANCH  25  32
ATOM     31  C   UNL     1       2.573   2.712  21.531  0.00  0.00    +0.000 C 
ATOM     32  O   UNL     1       1.605   3.114  20.574  0.00  0.00    +0.000 OA
ENDBRANCH  25  32
BRANCH  30  33
ATOM     33  O   UNL     1       2.470   3.503  17.815  0.00  0.00    +0.000 OA
BRANCH  33  34
ATOM     34  C   UNL     1       3.667   2.843  17.551  0.00  0.00    +0.000 C 
ATOM     35  C   UNL     1       3.617   1.471  18.169  0.00  0.00    +0.000 C 
ATOM     36  O   UNL     1       4.631   3.289  16.947  0.00  0.00    +0.000 OA
ENDBRANCH  33  34
ENDBRANCH  30  33
ENDBRANCH  23  28
ENDBRANCH   1  24
TORSDOF 9
ENDMDL
MODEL 7
REMARK VINA RESULT:      -7.4      1.448      1.627
REMARK  Name = 
REMARK  14 active torsions:
REMARK  status: ('A' for Active; 'I' for Inactive)
REMARK    1  A    between atoms: C_1  and  O_2
REMARK    2  A    between atoms: O_2  and  C_3
REMARK    3  A    between atoms: C_6  and  C_7
REMARK    4  A    between atoms: C_8  and  C_9
REMARK    5  A    between atoms: C_16  and  C_17
REMARK    6  A    between atoms: C_19  and  O_20
REMARK    7  A    between atoms: O_20  and  C_21
REMARK    8  A    between atoms: C_22  and  O_23
REMARK    9  A    between atoms: O_23  and  C_24
REMARK   10  A    between atoms: C_25  and  O_26
REMARK   11  A    between atoms: O_26  and  C_27
REMARK   12  A    between atoms: C_32  and  O_33
REMARK   13  A    between atoms: O_33  and  C_34
REMARK   14  A    between atoms: C_34  and  C_35
REMARK                            x       y       z     vdW  Elec       q    Type
REMARK                         _______ _______ _______ _____ _____    ______ ____
ROOT
ATOM      1  C   UNL     1       0.997   8.590  20.597  0.00  0.00    +0.000 C 
ATOM      2  O   UNL     1       0.500   7.993  21.552  0.00  0.00    +0.000 OA
ATOM      3  N   UNL     1       0.812   9.954  20.370  0.00  0.00    +0.000 N 
ATOM      4  C   UNL     1       0.129  10.713  21.416  0.00  0.00    +0.000 C 
ATOM      5  C   UNL     1       0.636  12.144  21.538  0.00  0.00    +0.000 C 
ATOM      6  C   UNL     1       0.559  12.825  20.184  0.00  0.00    +0.000 C 
ATOM      7  C   UNL     1       1.305  12.007  19.182  0.00  0.00    +0.000 C 
ATOM      8  C   UNL     1       2.330  12.393  18.403  0.00  0.00    +0.000 C 
ATOM      9  C   UNL     1       0.999  10.545  19.123  0.00  0.00    +0.000 C 
ATOM     10  O   UNL     1       0.975   9.961  18.045  0.00  0.00    +0.000 OA
ENDROOT
BRANCH   8  11
ATOM     11  C   UNL     1       2.954  13.709  18.468  0.00  0.00    +0.000 A 
ATOM     12  C   UNL     1       4.314  13.816  18.184  0.00  0.00    +0.000 A 
ATOM     13  C   UNL     1       4.947  15.061  18.209  0.00  0.00    +0.000 A 
ATOM     14  C   UNL     1       4.211  16.217  18.553  0.00  0.00    +0.000 A 
ATOM     15  C   UNL     1       2.839  16.100  18.877  0.00  0.00    +0.000 A 
ATOM     16  C   UNL     1       2.224  14.842  18.818  0.00  0.00    +0.000 A 
BRANCH  13  17
ATOM     17  O   UNL     1       6.286  15.216  17.924  0.00  0.00    +0.000 OA
ATOM     18  C   UNL     1       7.193  14.653  18.868  0.00  0.00    +0.000 C 
ENDBRANCH  13  17
BRANCH  14  19
ATOM     19  O   UNL     1       4.941  17.385  18.606  0.00  0.00    +0.000 OA
ATOM     20  C   UNL     1       5.462  17.764  19.874  0.00  0.00    +0.000 C 
ENDBRANCH  14  19
BRANCH  15  21
ATOM     21  O   UNL     1       2.169  17.230  19.271  0.00  0.00    +0.000 OA
ATOM     22  C   UNL     1       1.247  17.815  18.360  0.00  0.00    +0.000 C 
ENDBRANCH  15  21
ENDBRANCH   8  11
BRANCH   1  24
ATOM     23  C   UNL     1       2.172   6.567  19.836  0.00  0.00    +0.000 C 
ATOM     24  C   UNL     1       1.901   7.868  19.651  0.00  0.00    +0.000 C 
BRANCH  23  28
ATOM     25  C   UNL     1       4.783   4.179  17.395  0.00  0.00    +0.000 A 
ATOM     26  C   UNL     1       3.423   4.328  17.103  0.00  0.00    +0.000 A 
ATOM     27  C   UNL     1       2.604   5.136  17.892  0.00  0.00    +0.000 A 
ATOM     28  C   UNL     1       3.119   5.791  19.016  0.00  0.00    +0.000 A 
ATOM     29  C   UNL     1       4.492   5.675  19.294  0.00  0.00    +0.000 A 
ATOM     30  C   UNL     1       5.317   4.874  18.494  0.00  0.00    +0.000 A 
BRANCH  25  32
ATOM     31  C   UNL     1       6.038   3.843  15.392  0.00  0.00    +0.000 C 
ATOM     32  O   UNL     1       5.414   3.311  16.550  0.00  0.00    +0.000 OA
ENDBRANCH  25  32
BRANCH  30  33
ATOM     33  O   UNL     1       6.706   4.702  18.765  0.00  0.00    +0.000 OA
BRANCH  33  34
ATOM     34  C   UNL     1       7.601   5.515  19.457  0.00  0.00    +0.000 C 
ATOM     35  C   UNL     1       7.981   6.680  18.583  0.00  0.00    +0.000 C 
ATOM     36  O   UNL     1       8.046   5.324  20.578  0.00  0.00    +0.000 OA
ENDBRANCH  33  34
ENDBRANCH  30  33
ENDBRANCH  23  28
ENDBRANCH   1  24
TORSDOF 9
ENDMDL
MODEL 8
REMARK VINA RESULT:      -7.4      3.903      6.076
REMARK  Name = 
REMARK  14 active torsions:
REMARK  status: ('A' for Active; 'I' for Inactive)
REMARK    1  A    between atoms: C_1  and  O_2
REMARK    2  A    between atoms: O_2  and  C_3
REMARK    3  A    between atoms: C_6  and  C_7
REMARK    4  A    between atoms: C_8  and  C_9
REMARK    5  A    between atoms: C_16  and  C_17
REMARK    6  A    between atoms: C_19  and  O_20
REMARK    7  A    between atoms: O_20  and  C_21
REMARK    8  A    between atoms: C_22  and  O_23
REMARK    9  A    between atoms: O_23  and  C_24
REMARK   10  A    between atoms: C_25  and  O_26
REMARK   11  A    between atoms: O_26  and  C_27
REMARK   12  A    between atoms: C_32  and  O_33
REMARK   13  A    between atoms: O_33  and  C_34
REMARK   14  A    between atoms: C_34  and  C_35
REMARK                            x       y       z     vdW  Elec       q    Type
REMARK                         _______ _______ _______ _____ _____    ______ ____
ROOT
ATOM      1  C   UNL     1       1.660  10.760  18.498  0.00  0.00    +0.000 C 
ATOM      2  O   UNL     1       2.269  11.013  17.458  0.00  0.00    +0.000 OA
ATOM      3  N   UNL     1       1.171  11.747  19.353  0.00  0.00    +0.000 N 
ATOM      4  C   UNL     1       1.254  13.130  18.887  0.00  0.00    +0.000 C 
ATOM      5  C   UNL     1       0.094  13.990  19.369  0.00  0.00    +0.000 C 
ATOM      6  C   UNL     1      -0.014  13.894  20.880  0.00  0.00    +0.000 C 
ATOM      7  C   UNL     1      -0.128  12.457  21.271  0.00  0.00    +0.000 C 
ATOM      8  C   UNL     1      -1.107  11.873  21.984  0.00  0.00    +0.000 C 
ATOM      9  C   UNL     1       0.867  11.506  20.691  0.00  0.00    +0.000 C 
ATOM     10  O   UNL     1       1.308  10.583  21.368  0.00  0.00    +0.000 OA
ENDROOT
BRANCH   8  11
ATOM     11  C   UNL     1      -2.305  12.565  22.446  0.00  0.00    +0.000 A 
ATOM     12  C   UNL     1      -2.243  13.277  23.642  0.00  0.00    +0.000 A 
ATOM     13  C   UNL     1      -3.358  13.976  24.108  0.00  0.00    +0.000 A 
ATOM     14  C   UNL     1      -4.567  13.939  23.378  0.00  0.00    +0.000 A 
ATOM     15  C   UNL     1      -4.638  13.186  22.183  0.00  0.00    +0.000 A 
ATOM     16  C   UNL     1      -3.495  12.515  21.725  0.00  0.00    +0.000 A 
BRANCH  13  17
ATOM     17  O   UNL     1      -3.340  14.702  25.279  0.00  0.00    +0.000 OA
ATOM     18  C   UNL     1      -2.122  15.383  25.571  0.00  0.00    +0.000 C 
ENDBRANCH  13  17
BRANCH  14  19
ATOM     19  O   UNL     1      -5.623  14.613  23.953  0.00  0.00    +0.000 OA
ATOM     20  C   UNL     1      -5.899  15.920  23.465  0.00  0.00    +0.000 C 
ENDBRANCH  14  19
BRANCH  15  21
ATOM     21  O   UNL     1      -5.843  13.115  21.533  0.00  0.00    +0.000 OA
ATOM     22  C   UNL     1      -5.844  12.737  20.162  0.00  0.00    +0.000 C 
ENDBRANCH  15  21
ENDBRANCH   8  11
BRANCH   1  24
ATOM     23  C   UNL     1       2.335   8.426  18.880  0.00  0.00    +0.000 C 
ATOM     24  C   UNL     1       1.357   9.344  18.862  0.00  0.00    +0.000 C 
BRANCH  23  28
ATOM     25  C   UNL     1       1.757   4.271  19.819  0.00  0.00    +0.000 A 
ATOM     26  C   UNL     1       1.476   5.287  20.739  0.00  0.00    +0.000 A 
ATOM     27  C   UNL     1       1.640   6.629  20.398  0.00  0.00    +0.000 A 
ATOM     28  C   UNL     1       2.123   6.990  19.135  0.00  0.00    +0.000 A 
ATOM     29  C   UNL     1       2.372   5.976  18.194  0.00  0.00    +0.000 A 
ATOM     30  C   UNL     1       2.196   4.629  18.533  0.00  0.00    +0.000 A 
BRANCH  25  32
ATOM     31  C   UNL     1       1.835   2.842  21.730  0.00  0.00    +0.000 C 
ATOM     32  O   UNL     1       1.590   3.021  20.344  0.00  0.00    +0.000 OA
ENDBRANCH  25  32
BRANCH  30  33
ATOM     33  O   UNL     1       2.473   3.570  17.618  0.00  0.00    +0.000 OA
BRANCH  33  34
ATOM     34  C   UNL     1       3.597   2.758  17.487  0.00  0.00    +0.000 C 
ATOM     35  C   UNL     1       4.680   3.532  16.784  0.00  0.00    +0.000 C 
ATOM     36  O   UNL     1       3.706   1.595  17.845  0.00  0.00    +0.000 OA
ENDBRANCH  33  34
ENDBRANCH  30  33
ENDBRANCH  23  28
ENDBRANCH   1  24
TORSDOF 9
ENDMDL
MODEL 9
REMARK VINA RESULT:      -7.3      2.090      3.264
REMARK  Name = 
REMARK  14 active torsions:
REMARK  status: ('A' for Active; 'I' for Inactive)
REMARK    1  A    between atoms: C_1  and  O_2
REMARK    2  A    between atoms: O_2  and  C_3
REMARK    3  A    between atoms: C_6  and  C_7
REMARK    4  A    between atoms: C_8  and  C_9
REMARK    5  A    between atoms: C_16  and  C_17
REMARK    6  A    between atoms: C_19  and  O_20
REMARK    7  A    between atoms: O_20  and  C_21
REMARK    8  A    between atoms: C_22  and  O_23
REMARK    9  A    between atoms: O_23  and  C_24
REMARK   10  A    between atoms: C_25  and  O_26
REMARK   11  A    between atoms: O_26  and  C_27
REMARK   12  A    between atoms: C_32  and  O_33
REMARK   13  A    between atoms: O_33  and  C_34
REMARK   14  A    between atoms: C_34  and  C_35
REMARK                            x       y       z     vdW  Elec       q    Type
REMARK                         _______ _______ _______ _____ _____    ______ ____
ROOT
ATOM      1  C   UNL     1       0.633   8.869  20.911  0.00  0.00    +0.000 C 
ATOM      2  O   UNL     1      -0.079   8.166  21.629  0.00  0.00    +0.000 OA
ATOM      3  N   UNL     1       0.408  10.231  20.714  0.00  0.00    +0.000 N 
ATOM      4  C   UNL     1      -0.625  10.858  21.536  0.00  0.00    +0.000 C 
ATOM      5  C   UNL     1      -0.307  12.304  21.889  0.00  0.00    +0.000 C 
ATOM      6  C   UNL     1      -0.024  13.085  20.619  0.00  0.00    +0.000 C 
ATOM      7  C   UNL     1       1.062  12.400  19.856  0.00  0.00    +0.000 C 
ATOM      8  C   UNL     1       2.239  12.913  19.458  0.00  0.00    +0.000 C 
ATOM      9  C   UNL     1       0.917  10.931  19.623  0.00  0.00    +0.000 C 
ATOM     10  O   UNL     1       1.276  10.435  18.560  0.00  0.00    +0.000 OA
ENDROOT
BRANCH   8  11
ATOM     11  C   UNL     1       2.696  14.258  19.788  0.00  0.00    +0.000 A 
ATOM     12  C   UNL     1       2.666  15.234  18.794  0.00  0.00    +0.000 A 
ATOM     13  C   UNL     1       3.069  16.542  19.074  0.00  0.00    +0.000 A 
ATOM     14  C   UNL     1       3.539  16.872  20.364  0.00  0.00    +0.000 A 
ATOM     15  C   UNL     1       3.603  15.871  21.361  0.00  0.00    +0.000 A 
ATOM     16  C   UNL     1       3.167  14.573  21.060  0.00  0.00    +0.000 A 
BRANCH  13  17
ATOM     17  O   UNL     1       3.046  17.541  18.126  0.00  0.00    +0.000 OA
ATOM     18  C   UNL     1       2.649  17.148  16.814  0.00  0.00    +0.000 C 
ENDBRANCH  13  17
BRANCH  14  19
ATOM     19  O   UNL     1       3.967  18.173  20.519  0.00  0.00    +0.000 OA
ATOM     20  C   UNL     1       5.371  18.384  20.614  0.00  0.00    +0.000 C 
ENDBRANCH  14  19
BRANCH  15  21
ATOM     21  O   UNL     1       4.126  16.207  22.584  0.00  0.00    +0.000 OA
ATOM     22  C   UNL     1       4.784  15.193  23.333  0.00  0.00    +0.000 C 
ENDBRANCH  15  21
ENDBRANCH   8  11
BRANCH   1  24
ATOM     23  C   UNL     1       1.784   7.071  19.688  0.00  0.00    +0.000 C 
ATOM     24  C   UNL     1       1.843   8.285  20.256  0.00  0.00    +0.000 C 
BRANCH  23  28
ATOM     25  C   UNL     1       5.093   5.092  17.789  0.00  0.00    +0.000 A 
ATOM     26  C   UNL     1       4.520   6.253  17.261  0.00  0.00    +0.000 A 
ATOM     27  C   UNL     1       3.468   6.895  17.914  0.00  0.00    +0.000 A 
ATOM     28  C   UNL     1       2.940   6.372  19.099  0.00  0.00    +0.000 A 
ATOM     29  C   UNL     1       3.535   5.226  19.655  0.00  0.00    +0.000 A 
ATOM     30  C   UNL     1       4.599   4.589  19.004  0.00  0.00    +0.000 A 
BRANCH  25  32
ATOM     31  C   UNL     1       5.691   4.048  15.727  0.00  0.00    +0.000 C 
ATOM     32  O   UNL     1       6.072   4.573  16.988  0.00  0.00    +0.000 OA
ENDBRANCH  25  32
BRANCH  30  33
ATOM     33  O   UNL     1       5.206   3.404  19.517  0.00  0.00    +0.000 OA
BRANCH  33  34
ATOM     34  C   UNL     1       4.632   2.240  20.023  0.00  0.00    +0.000 C 
ATOM     35  C   UNL     1       3.640   1.708  19.023  0.00  0.00    +0.000 C 
ATOM     36  O   UNL     1       4.854   1.727  21.110  0.00  0.00    +0.000 OA
ENDBRANCH  33  34
ENDBRANCH  30  33
ENDBRANCH  23  28
ENDBRANCH   1  24
TORSDOF 9
ENDMDL
