MODEL 1
REMARK VINA RESULT:      -7.9      0.000      0.000
REMARK  Name = 
REMARK  3 active torsions:
REMARK  status: ('A' for Active; 'I' for Inactive)
REMARK    1  A    between atoms: C_1  and  C_2
REMARK    2  A    between atoms: C_6  and  C_7
REMARK    3  A    between atoms: C_7  and  N_9
REMARK                            x       y       z     vdW  Elec       q    Type
REMARK                         _______ _______ _______ _____ _____    ______ ____
ROOT
ATOM      1  N   UNL     1       3.051   5.523  19.391  0.00  0.00    +0.000 NA
ATOM      2  C   UNL     1       2.456   6.680  19.318  0.00  0.00    +0.000 C 
ATOM      3  N   UNL     1       2.102   7.318  18.169  0.00  0.00    +0.000 N 
ATOM      4  N   UNL     1       2.167   7.360  20.473  0.00  0.00    +0.000 N 
ATOM      5  C   UNL     1       1.422   8.478  20.660  0.00  0.00    +0.000 A 
ATOM      6  N   UNL     1       0.837   9.167  19.704  0.00  0.00    +0.000 NA
ATOM      7  C   UNL     1       0.137  10.239  20.224  0.00  0.00    +0.000 A 
ATOM      8  C   UNL     1      -0.592  11.187  19.476  0.00  0.00    +0.000 A 
ATOM      9  C   UNL     1      -1.281  12.208  20.132  0.00  0.00    +0.000 A 
ATOM     10  C   UNL     1      -1.248  12.300  21.520  0.00  0.00    +0.000 A 
ATOM     11  C   UNL     1      -0.519  11.380  22.284  0.00  0.00    +0.000 A 
ATOM     12  C   UNL     1       0.170  10.354  21.612  0.00  0.00    +0.000 A 
ATOM     13  S   UNL     1       1.142   9.083  22.250  0.00  0.00    +0.000 S 
ATOM     14  H   UNL     1       1.981   6.693  17.373  0.00  0.00    +0.000 HD
ATOM     15  H   UNL     1       1.329   7.975  18.273  0.00  0.00    +0.000 HD
ATOM     16  H   UNL     1       2.475   6.870  21.301  0.00  0.00    +0.000 HD
ENDROOT
BRANCH   1  17
ATOM     17  C   UNL     1       3.268   4.841  18.212  0.00  0.00    +0.000 C 
ATOM     18  O   UNL     1       2.384   4.271  17.571  0.00  0.00    +0.000 OA
BRANCH  17  24
ATOM     19  C   UNL     1       6.615   4.268  14.470  0.00  0.00    +0.000 C 
ATOM     20  C   UNL     1       6.303   4.498  15.920  0.00  0.00    +0.000 A 
ATOM     21  C   UNL     1       7.337   4.653  16.854  0.00  0.00    +0.000 A 
ATOM     22  C   UNL     1       7.047   4.865  18.200  0.00  0.00    +0.000 A 
ATOM     23  C   UNL     1       5.720   4.923  18.624  0.00  0.00    +0.000 A 
ATOM     24  C   UNL     1       4.672   4.769  17.706  0.00  0.00    +0.000 A 
ATOM     25  C   UNL     1       4.967   4.554  16.354  0.00  0.00    +0.000 A 
ENDBRANCH  17  24
ENDBRANCH   1  17
TORSDOF 2
ENDMDL
MODEL 2
REMARK VINA RESULT:      -7.8      3.211      5.005
REMARK  Name = 
REMARK  3 active torsions:
REMARK  status: ('A' for Active; 'I' for Inactive)
REMARK    1  A    between atoms: C_1  and  C_2
REMARK    2  A    between atoms: C_6  and  C_7
REMARK    3  A    between atoms: C_7  and  N_9
REMARK                            x       y       z     vdW  Elec       q    Type
REMARK                         _______ _______ _______ _____ _____    ______ ____
ROOT
ATOM      1  N   UNL     1       6.229   4.519  15.504  0.00  0.00    +0.000 NA
ATOM      2  C   UNL     1       5.533   5.508  15.990  0.00  0.00    +0.000 C 
ATOM      3  N   UNL     1       5.322   6.705  15.377  0.00  0.00    +0.000 N 
ATOM      4  N   UNL     1       4.969   5.384  17.233  0.00  0.00    +0.000 N 
ATOM      5  C   UNL     1       4.084   6.191  17.869  0.00  0.00    +0.000 A 
ATOM      6  N   UNL     1       3.606   7.320  17.390  0.00  0.00    +0.000 NA
ATOM      7  C   UNL     1       2.711   7.893  18.273  0.00  0.00    +0.000 A 
ATOM      8  C   UNL     1       2.028   9.111  18.077  0.00  0.00    +0.000 A 
ATOM      9  C   UNL     1       1.123   9.563  19.040  0.00  0.00    +0.000 A 
ATOM     10  C   UNL     1       0.898   8.821  20.196  0.00  0.00    +0.000 A 
ATOM     11  C   UNL     1       1.576   7.617  20.420  0.00  0.00    +0.000 A 
ATOM     12  C   UNL     1       2.482   7.170  19.442  0.00  0.00    +0.000 A 
ATOM     13  S   UNL     1       3.459   5.752  19.416  0.00  0.00    +0.000 S 
ATOM     14  H   UNL     1       5.415   6.668  14.363  0.00  0.00    +0.000 HD
ATOM     15  H   UNL     1       4.475   7.187  15.676  0.00  0.00    +0.000 HD
ATOM     16  H   UNL     1       5.176   4.496  17.668  0.00  0.00    +0.000 HD
ENDROOT
BRANCH   1  17
ATOM     17  C   UNL     1       6.727   4.656  14.225  0.00  0.00    +0.000 C 
ATOM     18  O   UNL     1       7.659   5.401  13.923  0.00  0.00    +0.000 OA
BRANCH  17  24
ATOM     19  C   UNL     1       6.696   0.868  10.881  0.00  0.00    +0.000 C 
ATOM     20  C   UNL     1       6.029   2.048  11.525  0.00  0.00    +0.000 A 
ATOM     21  C   UNL     1       4.748   2.448  11.119  0.00  0.00    +0.000 A 
ATOM     22  C   UNL     1       4.129   3.544  11.716  0.00  0.00    +0.000 A 
ATOM     23  C   UNL     1       4.785   4.251  12.723  0.00  0.00    +0.000 A 
ATOM     24  C   UNL     1       6.067   3.867  13.142  0.00  0.00    +0.000 A 
ATOM     25  C   UNL     1       6.688   2.766  12.538  0.00  0.00    +0.000 A 
ENDBRANCH  17  24
ENDBRANCH   1  17
TORSDOF 2
ENDMDL
MODEL 3
REMARK VINA RESULT:      -7.8      0.493      1.533
REMARK  Name = 
REMARK  3 active torsions:
REMARK  status: ('A' for Active; 'I' for Inactive)
REMARK    1  A    between atoms: C_1  and  C_2
REMARK    2  A    between atoms: C_6  and  C_7
REMARK    3  A    between atoms: C_7  and  N_9
REMARK                            x       y       z     vdW  Elec       q    Type
REMARK                         _______ _______ _______ _____ _____    ______ ____
ROOT
ATOM      1  N   UNL     1       2.890   5.633  19.514  0.00  0.00    +0.000 NA
ATOM      2  C   UNL     1       2.358   6.821  19.448  0.00  0.00    +0.000 C 
ATOM      3  N   UNL     1       2.147   7.531  18.305  0.00  0.00    +0.000 N 
ATOM      4  N   UNL     1       1.989   7.456  20.604  0.00  0.00    +0.000 N 
ATOM      5  C   UNL     1       1.281   8.600  20.779  0.00  0.00    +0.000 A 
ATOM      6  N   UNL     1       0.823   9.364  19.810  0.00  0.00    +0.000 NA
ATOM      7  C   UNL     1       0.125  10.443  20.318  0.00  0.00    +0.000 A 
ATOM      8  C   UNL     1      -0.484  11.461  19.555  0.00  0.00    +0.000 A 
ATOM      9  C   UNL     1      -1.186  12.483  20.197  0.00  0.00    +0.000 A 
ATOM     10  C   UNL     1      -1.284  12.505  21.586  0.00  0.00    +0.000 A 
ATOM     11  C   UNL     1      -0.675  11.514  22.364  0.00  0.00    +0.000 A 
ATOM     12  C   UNL     1       0.028  10.488  21.707  0.00  0.00    +0.000 A 
ATOM     13  S   UNL     1       0.875   9.141  22.365  0.00  0.00    +0.000 S 
ATOM     14  H   UNL     1       2.076   6.952  17.469  0.00  0.00    +0.000 HD
ATOM     15  H   UNL     1       1.398   8.219  18.371  0.00  0.00    +0.000 HD
ATOM     16  H   UNL     1       2.193   6.912  21.430  0.00  0.00    +0.000 HD
ENDROOT
BRANCH   1  17
ATOM     17  C   UNL     1       3.190   4.999  18.326  0.00  0.00    +0.000 C 
ATOM     18  O   UNL     1       2.349   4.490  17.584  0.00  0.00    +0.000 OA
BRANCH  17  24
ATOM     19  C   UNL     1       8.095   5.770  19.260  0.00  0.00    +0.000 C 
ATOM     20  C   UNL     1       6.999   5.263  18.370  0.00  0.00    +0.000 A 
ATOM     21  C   UNL     1       7.302   4.677  17.133  0.00  0.00    +0.000 A 
ATOM     22  C   UNL     1       6.284   4.207  16.306  0.00  0.00    +0.000 A 
ATOM     23  C   UNL     1       4.954   4.319  16.708  0.00  0.00    +0.000 A 
ATOM     24  C   UNL     1       4.630   4.903  17.941  0.00  0.00    +0.000 A 
ATOM     25  C   UNL     1       5.656   5.377  18.769  0.00  0.00    +0.000 A 
ENDBRANCH  17  24
ENDBRANCH   1  17
TORSDOF 2
ENDMDL
MODEL 4
REMARK VINA RESULT:      -7.8      3.378      5.251
REMARK  Name = 
REMARK  3 active torsions:
REMARK  status: ('A' for Active; 'I' for Inactive)
REMARK    1  A    between atoms: C_1  and  C_2
REMARK    2  A    between atoms: C_6  and  C_7
REMARK    3  A    between atoms: C_7  and  N_9
REMARK                            x       y       z     vdW  Elec       q    Type
REMARK                         _______ _______ _______ _____ _____    ______ ____
ROOT
ATOM      1  N   UNL     1       6.251   4.428  15.190  0.00  0.00    +0.000 NA
ATOM      2  C   UNL     1       5.584   5.409  15.729  0.00  0.00    +0.000 C 
ATOM      3  N   UNL     1       5.385   6.634  15.170  0.00  0.00    +0.000 N 
ATOM      4  N   UNL     1       5.039   5.244  16.976  0.00  0.00    +0.000 N 
ATOM      5  C   UNL     1       4.182   6.040  17.662  0.00  0.00    +0.000 A 
ATOM      6  N   UNL     1       3.719   7.197  17.239  0.00  0.00    +0.000 NA
ATOM      7  C   UNL     1       2.851   7.750  18.161  0.00  0.00    +0.000 A 
ATOM      8  C   UNL     1       2.188   8.988  18.028  0.00  0.00    +0.000 A 
ATOM      9  C   UNL     1       1.311   9.417  19.026  0.00  0.00    +0.000 A 
ATOM     10  C   UNL     1       1.091   8.631  20.154  0.00  0.00    +0.000 A 
ATOM     11  C   UNL     1       1.749   7.406  20.316  0.00  0.00    +0.000 A 
ATOM     12  C   UNL     1       2.628   6.984  19.303  0.00  0.00    +0.000 A 
ATOM     13  S   UNL     1       3.576   5.549  19.200  0.00  0.00    +0.000 S 
ATOM     14  H   UNL     1       5.459   6.638  14.153  0.00  0.00    +0.000 HD
ATOM     15  H   UNL     1       4.554   7.120  15.504  0.00  0.00    +0.000 HD
ATOM     16  H   UNL     1       5.236   4.335  17.370  0.00  0.00    +0.000 HD
ENDROOT
BRANCH   1  17
ATOM     17  C   UNL     1       6.729   4.609  13.908  0.00  0.00    +0.000 C 
ATOM     18  O   UNL     1       7.548   5.472  13.591  0.00  0.00    +0.000 OA
BRANCH  17  24
ATOM     19  C   UNL     1       3.050   3.178  10.753  0.00  0.00    +0.000 C 
ATOM     20  C   UNL     1       4.433   3.008  11.311  0.00  0.00    +0.000 A 
ATOM     21  C   UNL     1       5.269   1.986  10.837  0.00  0.00    +0.000 A 
ATOM     22  C   UNL     1       6.552   1.827  11.356  0.00  0.00    +0.000 A 
ATOM     23  C   UNL     1       7.011   2.687  12.353  0.00  0.00    +0.000 A 
ATOM     24  C   UNL     1       6.190   3.714  12.840  0.00  0.00    +0.000 A 
ATOM     25  C   UNL     1       4.900   3.869  12.318  0.00  0.00    +0.000 A 
ENDBRANCH  17  24
ENDBRANCH   1  17
TORSDOF 2
ENDMDL
MODEL 5
REMARK VINA RESULT:      -7.8      4.780      6.620
REMARK  Name = 
REMARK  3 active torsions:
REMARK  status: ('A' for Active; 'I' for Inactive)
REMARK    1  A    between atoms: C_1  and  C_2
REMARK    2  A    between atoms: C_6  and  C_7
REMARK    3  A    between atoms: C_7  and  N_9
REMARK                            x       y       z     vdW  Elec       q    Type
REMARK                         _______ _______ _______ _____ _____    ______ ____
ROOT
ATOM      1  N   UNL     1       5.865   5.538  14.748  0.00  0.00    +0.000 NA
ATOM      2  C   UNL     1       5.369   4.832  15.725  0.00  0.00    +0.000 C 
ATOM      3  N   UNL     1       5.676   3.534  15.998  0.00  0.00    +0.000 N 
ATOM      4  N   UNL     1       4.439   5.397  16.557  0.00  0.00    +0.000 N 
ATOM      5  C   UNL     1       3.912   4.929  17.716  0.00  0.00    +0.000 A 
ATOM      6  N   UNL     1       4.195   3.766  18.263  0.00  0.00    +0.000 NA
ATOM      7  C   UNL     1       3.509   3.597  19.450  0.00  0.00    +0.000 A 
ATOM      8  C   UNL     1       3.573   2.460  20.282  0.00  0.00    +0.000 A 
ATOM      9  C   UNL     1       2.848   2.431  21.475  0.00  0.00    +0.000 A 
ATOM     10  C   UNL     1       2.058   3.516  21.844  0.00  0.00    +0.000 A 
ATOM     11  C   UNL     1       1.966   4.649  21.027  0.00  0.00    +0.000 A 
ATOM     12  C   UNL     1       2.703   4.668  19.829  0.00  0.00    +0.000 A 
ATOM     13  S   UNL     1       2.806   5.893  18.623  0.00  0.00    +0.000 S 
ATOM     14  H   UNL     1       6.585   3.243  15.640  0.00  0.00    +0.000 HD
ATOM     15  H   UNL     1       5.533   3.264  16.971  0.00  0.00    +0.000 HD
ATOM     16  H   UNL     1       4.214   6.348  16.302  0.00  0.00    +0.000 HD
ENDROOT
BRANCH   1  17
ATOM     17  C   UNL     1       6.846   4.957  13.972  0.00  0.00    +0.000 C 
ATOM     18  O   UNL     1       8.047   5.203  14.079  0.00  0.00    +0.000 OA
BRANCH  17  24
ATOM     19  C   UNL     1       3.312   3.002  10.935  0.00  0.00    +0.000 C 
ATOM     20  C   UNL     1       4.723   3.036  11.445  0.00  0.00    +0.000 A 
ATOM     21  C   UNL     1       5.683   2.148  10.939  0.00  0.00    +0.000 A 
ATOM     22  C   UNL     1       6.992   2.179  11.413  0.00  0.00    +0.000 A 
ATOM     23  C   UNL     1       7.354   3.097  12.398  0.00  0.00    +0.000 A 
ATOM     24  C   UNL     1       6.408   3.992  12.918  0.00  0.00    +0.000 A 
ATOM     25  C   UNL     1       5.091   3.957  12.441  0.00  0.00    +0.000 A 
ENDBRANCH  17  24
ENDBRANCH   1  17
TORSDOF 2
ENDMDL
MODEL 6
REMARK VINA RESULT:      -7.7      3.305      8.261
REMARK  Name = 
REMARK  3 active torsions:
REMARK  status: ('A' for Active; 'I' for Inactive)
REMARK    1  A    between atoms: C_1  and  C_2
REMARK    2  A    between atoms: C_6  and  C_7
REMARK    3  A    between atoms: C_7  and  N_9
REMARK                            x       y       z     vdW  Elec       q    Type
REMARK                         _______ _______ _______ _____ _____    ______ ____
ROOT
ATOM      1  N   UNL     1       1.068  10.202  18.637  0.00  0.00    +0.000 NA
ATOM      2  C   UNL     1       1.312   9.096  19.280  0.00  0.00    +0.000 C 
ATOM      3  N   UNL     1       0.769   8.739  20.476  0.00  0.00    +0.000 N 
ATOM      4  N   UNL     1       2.205   8.198  18.756  0.00  0.00    +0.000 N 
ATOM      5  C   UNL     1       2.494   6.932  19.147  0.00  0.00    +0.000 A 
ATOM      6  N   UNL     1       1.960   6.316  20.181  0.00  0.00    +0.000 NA
ATOM      7  C   UNL     1       2.449   5.029  20.297  0.00  0.00    +0.000 A 
ATOM      8  C   UNL     1       2.096   4.103  21.301  0.00  0.00    +0.000 A 
ATOM      9  C   UNL     1       2.645   2.820  21.286  0.00  0.00    +0.000 A 
ATOM     10  C   UNL     1       3.544   2.451  20.289  0.00  0.00    +0.000 A 
ATOM     11  C   UNL     1       3.921   3.358  19.291  0.00  0.00    +0.000 A 
ATOM     12  C   UNL     1       3.360   4.647  19.315  0.00  0.00    +0.000 A 
ATOM     13  S   UNL     1       3.612   5.975  18.247  0.00  0.00    +0.000 S 
ATOM     14  H   UNL     1      -0.120   9.196  20.676  0.00  0.00    +0.000 HD
ATOM     15  H   UNL     1       0.739   7.734  20.642  0.00  0.00    +0.000 HD
ATOM     16  H   UNL     1       2.610   8.513  17.886  0.00  0.00    +0.000 HD
ENDROOT
BRANCH   1  17
ATOM     17  C   UNL     1       0.117  11.052  19.163  0.00  0.00    +0.000 C 
ATOM     18  O   UNL     1       0.306  11.783  20.135  0.00  0.00    +0.000 OA
BRANCH  17  24
ATOM     19  C   UNL     1      -3.029   9.738  15.433  0.00  0.00    +0.000 C 
ATOM     20  C   UNL     1      -2.767  10.432  16.738  0.00  0.00    +0.000 A 
ATOM     21  C   UNL     1      -3.799  11.112  17.401  0.00  0.00    +0.000 A 
ATOM     22  C   UNL     1      -3.555  11.756  18.612  0.00  0.00    +0.000 A 
ATOM     23  C   UNL     1      -2.278  11.727  19.170  0.00  0.00    +0.000 A 
ATOM     24  C   UNL     1      -1.233  11.054  18.522  0.00  0.00    +0.000 A 
ATOM     25  C   UNL     1      -1.481  10.409  17.304  0.00  0.00    +0.000 A 
ENDBRANCH  17  24
ENDBRANCH   1  17
TORSDOF 2
ENDMDL
MODEL 7
REMARK VINA RESULT:      -7.7      6.163      7.989
REMARK  Name = 
REMARK  3 active torsions:
REMARK  status: ('A' for Active; 'I' for Inactive)
REMARK    1  A    between atoms: C_1  and  C_2
REMARK    2  A    between atoms: C_6  and  C_7
REMARK    3  A    between atoms: C_7  and  N_9
REMARK                            x       y       z     vdW  Elec       q    Type
REMARK                         _______ _______ _______ _____ _____    ______ ____
ROOT
ATOM      1  N   UNL     1       6.820   7.604  17.219  0.00  0.00    +0.000 NA
ATOM      2  C   UNL     1       7.704   8.321  17.854  0.00  0.00    +0.000 C 
ATOM      3  N   UNL     1       8.596   7.851  18.768  0.00  0.00    +0.000 N 
ATOM      4  N   UNL     1       7.759   9.671  17.630  0.00  0.00    +0.000 N 
ATOM      5  C   UNL     1       8.678  10.583  18.035  0.00  0.00    +0.000 A 
ATOM      6  N   UNL     1       9.725  10.321  18.788  0.00  0.00    +0.000 NA
ATOM      7  C   UNL     1      10.476  11.460  19.006  0.00  0.00    +0.000 A 
ATOM      8  C   UNL     1      11.653  11.534  19.779  0.00  0.00    +0.000 A 
ATOM      9  C   UNL     1      12.333  12.748  19.894  0.00  0.00    +0.000 A 
ATOM     10  C   UNL     1      11.852  13.887  19.254  0.00  0.00    +0.000 A 
ATOM     11  C   UNL     1      10.678  13.842  18.494  0.00  0.00    +0.000 A 
ATOM     12  C   UNL     1      10.002  12.613  18.384  0.00  0.00    +0.000 A 
ATOM     13  S   UNL     1       8.553  12.229  17.535  0.00  0.00    +0.000 S 
ATOM     14  H   UNL     1       8.801   6.857  18.669  0.00  0.00    +0.000 HD
ATOM     15  H   UNL     1       9.438   8.417  18.865  0.00  0.00    +0.000 HD
ATOM     16  H   UNL     1       7.060   9.986  16.971  0.00  0.00    +0.000 HD
ENDROOT
BRANCH   1  17
ATOM     17  C   UNL     1       6.838   6.240  17.422  0.00  0.00    +0.000 C 
ATOM     18  O   UNL     1       7.819   5.524  17.221  0.00  0.00    +0.000 OA
BRANCH  17  24
ATOM     19  C   UNL     1       4.353   2.544  19.810  0.00  0.00    +0.000 C 
ATOM     20  C   UNL     1       4.354   3.829  19.034  0.00  0.00    +0.000 A 
ATOM     21  C   UNL     1       3.147   4.469  18.719  0.00  0.00    +0.000 A 
ATOM     22  C   UNL     1       3.147   5.660  17.997  0.00  0.00    +0.000 A 
ATOM     23  C   UNL     1       4.354   6.222  17.583  0.00  0.00    +0.000 A 
ATOM     24  C   UNL     1       5.572   5.597  17.887  0.00  0.00    +0.000 A 
ATOM     25  C   UNL     1       5.567   4.397  18.611  0.00  0.00    +0.000 A 
ENDBRANCH  17  24
ENDBRANCH   1  17
TORSDOF 2
ENDMDL
MODEL 8
REMARK VINA RESULT:      -7.7      1.327      1.787
REMARK  Name = 
REMARK  3 active torsions:
REMARK  status: ('A' for Active; 'I' for Inactive)
REMARK    1  A    between atoms: C_1  and  C_2
REMARK    2  A    between atoms: C_6  and  C_7
REMARK    3  A    between atoms: C_7  and  N_9
REMARK                            x       y       z     vdW  Elec       q    Type
REMARK                         _______ _______ _______ _____ _____    ______ ____
ROOT
ATOM      1  N   UNL     1       3.289   6.785  18.397  0.00  0.00    +0.000 NA
ATOM      2  C   UNL     1       2.442   7.285  19.252  0.00  0.00    +0.000 C 
ATOM      3  N   UNL     1       2.116   6.740  20.456  0.00  0.00    +0.000 N 
ATOM      4  N   UNL     1       1.782   8.445  18.941  0.00  0.00    +0.000 N 
ATOM      5  C   UNL     1       0.994   9.231  19.717  0.00  0.00    +0.000 A 
ATOM      6  N   UNL     1       0.681   8.986  20.972  0.00  0.00    +0.000 NA
ATOM      7  C   UNL     1      -0.119   9.988  21.486  0.00  0.00    +0.000 A 
ATOM      8  C   UNL     1      -0.644  10.032  22.795  0.00  0.00    +0.000 A 
ATOM      9  C   UNL     1      -1.418  11.122  23.197  0.00  0.00    +0.000 A 
ATOM     10  C   UNL     1      -1.679  12.164  22.311  0.00  0.00    +0.000 A 
ATOM     11  C   UNL     1      -1.182  12.136  21.002  0.00  0.00    +0.000 A 
ATOM     12  C   UNL     1      -0.402  11.034  20.610  0.00  0.00    +0.000 A 
ATOM     13  S   UNL     1       0.347  10.703  19.094  0.00  0.00    +0.000 S 
ATOM     14  H   UNL     1       2.833   6.121  20.833  0.00  0.00    +0.000 HD
ATOM     15  H   UNL     1       1.776   7.411  21.143  0.00  0.00    +0.000 HD
ATOM     16  H   UNL     1       2.025   8.800  18.027  0.00  0.00    +0.000 HD
ENDROOT
BRANCH   1  17
ATOM     17  C   UNL     1       3.982   5.652  18.771  0.00  0.00    +0.000 C 
ATOM     18  O   UNL     1       3.744   5.002  19.789  0.00  0.00    +0.000 OA
BRANCH  17  24
ATOM     19  C   UNL     1       5.802   4.123  14.312  0.00  0.00    +0.000 C 
ATOM     20  C   UNL     1       6.009   4.478  15.756  0.00  0.00    +0.000 A 
ATOM     21  C   UNL     1       7.287   4.405  16.329  0.00  0.00    +0.000 A 
ATOM     22  C   UNL     1       7.478   4.733  17.669  0.00  0.00    +0.000 A 
ATOM     23  C   UNL     1       6.395   5.136  18.449  0.00  0.00    +0.000 A 
ATOM     24  C   UNL     1       5.109   5.214  17.895  0.00  0.00    +0.000 A 
ATOM     25  C   UNL     1       4.920   4.881  16.547  0.00  0.00    +0.000 A 
ENDBRANCH  17  24
ENDBRANCH   1  17
TORSDOF 2
ENDMDL
MODEL 9
REMARK VINA RESULT:      -7.6      3.327      8.493
REMARK  Name = 
REMARK  3 active torsions:
REMARK  status: ('A' for Active; 'I' for Inactive)
REMARK    1  A    between atoms: C_1  and  C_2
REMARK    2  A    between atoms: C_6  and  C_7
REMARK    3  A    between atoms: C_7  and  N_9
REMARK                            x       y       z     vdW  Elec       q    Type
REMARK                         _______ _______ _______ _____ _____    ______ ____
ROOT
ATOM      1  N   UNL     1       1.090  10.166  18.468  0.00  0.00    +0.000 NA
ATOM      2  C   UNL     1       1.345   9.080  19.142  0.00  0.00    +0.000 C 
ATOM      3  N   UNL     1       0.818   8.759  20.355  0.00  0.00    +0.000 N 
ATOM      4  N   UNL     1       2.233   8.168  18.634  0.00  0.00    +0.000 N 
ATOM      5  C   UNL     1       2.530   6.915  19.060  0.00  0.00    +0.000 A 
ATOM      6  N   UNL     1       2.010   6.331  20.119  0.00  0.00    +0.000 NA
ATOM      7  C   UNL     1       2.504   5.049  20.269  0.00  0.00    +0.000 A 
ATOM      8  C   UNL     1       2.166   4.154  21.305  0.00  0.00    +0.000 A 
ATOM      9  C   UNL     1       2.718   2.872  21.322  0.00  0.00    +0.000 A 
ATOM     10  C   UNL     1       3.605   2.474  20.325  0.00  0.00    +0.000 A 
ATOM     11  C   UNL     1       3.967   3.350  19.295  0.00  0.00    +0.000 A 
ATOM     12  C   UNL     1       3.403   4.639  19.287  0.00  0.00    +0.000 A 
ATOM     13  S   UNL     1       3.638   5.933  18.176  0.00  0.00    +0.000 S 
ATOM     14  H   UNL     1      -0.069   9.221  20.552  0.00  0.00    +0.000 HD
ATOM     15  H   UNL     1       0.793   7.759  20.552  0.00  0.00    +0.000 HD
ATOM     16  H   UNL     1       2.626   8.458  17.750  0.00  0.00    +0.000 HD
ENDROOT
BRANCH   1  17
ATOM     17  C   UNL     1       0.144  11.029  18.980  0.00  0.00    +0.000 C 
ATOM     18  O   UNL     1       0.372  11.866  19.854  0.00  0.00    +0.000 OA
BRANCH  17  24
ATOM     19  C   UNL     1      -4.753  12.273  19.068  0.00  0.00    +0.000 C 
ATOM     20  C   UNL     1      -3.612  11.498  18.476  0.00  0.00    +0.000 A 
ATOM     21  C   UNL     1      -3.828  10.629  17.397  0.00  0.00    +0.000 A 
ATOM     22  C   UNL     1      -2.769   9.909  16.848  0.00  0.00    +0.000 A 
ATOM     23  C   UNL     1      -1.486  10.050  17.374  0.00  0.00    +0.000 A 
ATOM     24  C   UNL     1      -1.250  10.913  18.454  0.00  0.00    +0.000 A 
ATOM     25  C   UNL     1      -2.317  11.634  19.004  0.00  0.00    +0.000 A 
ENDBRANCH  17  24
ENDBRANCH   1  17
TORSDOF 2
ENDMDL
