MODEL 1
REMARK VINA RESULT:      -7.7      0.000      0.000
REMARK  Name = 
REMARK  4 active torsions:
REMARK  status: ('A' for Active; 'I' for Inactive)
REMARK    1  A    between atoms: C_1  and  C_2
REMARK    2  A    between atoms: C_11  and  C_12
REMARK    3  A    between atoms: C_11  and  C_13
REMARK    4  A    between atoms: C_17  and  C_18
REMARK                            x       y       z     vdW  Elec       q    Type
REMARK                         _______ _______ _______ _____ _____    ______ ____
ROOT
ATOM      1  C   UNL     1       7.355   4.746  14.489  0.00  0.00    +0.000 C 
ATOM      2  C   UNL     1       6.436   4.805  15.664  0.00  0.00    +0.000 A 
ATOM      3  C   UNL     1       5.150   4.434  15.644  0.00  0.00    +0.000 A 
ATOM      4  C   UNL     1       4.416   4.406  16.876  0.00  0.00    +0.000 A 
ATOM      5  C   UNL     1       4.966   4.817  18.026  0.00  0.00    +0.000 A 
ATOM      6  C   UNL     1       6.360   5.321  18.041  0.00  0.00    +0.000 A 
ATOM      7  O   UNL     1       6.890   5.724  19.073  0.00  0.00    +0.000 OA
ATOM      8  O   UNL     1       7.050   5.258  16.858  0.00  0.00    +0.000 OA
ATOM      9  C   UNL     1       4.192   4.688  19.240  0.00  0.00    +0.000 C 
ATOM     10  C   UNL     1       3.157   3.818  19.279  0.00  0.00    +0.000 C 
ATOM     11  C   UNL     1       2.340   3.554  20.559  0.00  0.00    +0.000 C 
ATOM     12  C   UNL     1       3.180   2.623  21.464  0.00  0.00    +0.000 C 
ATOM     13  C   UNL     1       2.086   4.863  21.355  0.00  0.00    +0.000 C 
ATOM     14  C   UNL     1       0.937   2.902  20.325  0.00  0.00    +0.000 C 
ATOM     15  C   UNL     1       0.559   2.568  18.918  0.00  0.00    +0.000 C 
ATOM     16  C   UNL     1       1.403   2.649  17.883  0.00  0.00    +0.000 C 
ATOM     17  C   UNL     1       2.855   3.023  18.001  0.00  0.00    +0.000 C 
ATOM     18  C   UNL     1       3.667   1.713  17.928  0.00  0.00    +0.000 C 
ATOM     19  O   UNL     1       3.180   3.791  16.806  0.00  0.00    +0.000 OA
ENDROOT
TORSDOF 0
ENDMDL
MODEL 2
REMARK VINA RESULT:      -7.3      1.549      3.251
REMARK  Name = 
REMARK  4 active torsions:
REMARK  status: ('A' for Active; 'I' for Inactive)
REMARK    1  A    between atoms: C_1  and  C_2
REMARK    2  A    between atoms: C_11  and  C_12
REMARK    3  A    between atoms: C_11  and  C_13
REMARK    4  A    between atoms: C_17  and  C_18
REMARK                            x       y       z     vdW  Elec       q    Type
REMARK                         _______ _______ _______ _____ _____    ______ ____
ROOT
ATOM      1  C   UNL     1       8.174   8.137  17.527  0.00  0.00    +0.000 C 
ATOM      2  C   UNL     1       7.174   7.030  17.565  0.00  0.00    +0.000 A 
ATOM      3  C   UNL     1       6.611   6.550  18.681  0.00  0.00    +0.000 A 
ATOM      4  C   UNL     1       5.558   5.582  18.566  0.00  0.00    +0.000 A 
ATOM      5  C   UNL     1       5.184   5.095  17.376  0.00  0.00    +0.000 A 
ATOM      6  C   UNL     1       5.868   5.549  16.142  0.00  0.00    +0.000 A 
ATOM      7  O   UNL     1       5.565   5.109  15.037  0.00  0.00    +0.000 OA
ATOM      8  O   UNL     1       6.814   6.530  16.289  0.00  0.00    +0.000 OA
ATOM      9  C   UNL     1       4.064   4.181  17.332  0.00  0.00    +0.000 C 
ATOM     10  C   UNL     1       3.185   4.157  18.359  0.00  0.00    +0.000 C 
ATOM     11  C   UNL     1       1.918   3.280  18.348  0.00  0.00    +0.000 C 
ATOM     12  C   UNL     1       0.874   3.981  17.448  0.00  0.00    +0.000 C 
ATOM     13  C   UNL     1       2.195   1.882  17.730  0.00  0.00    +0.000 C 
ATOM     14  C   UNL     1       1.281   3.020  19.755  0.00  0.00    +0.000 C 
ATOM     15  C   UNL     1       1.928   3.672  20.933  0.00  0.00    +0.000 C 
ATOM     16  C   UNL     1       2.909   4.577  20.836  0.00  0.00    +0.000 C 
ATOM     17  C   UNL     1       3.449   5.106  19.536  0.00  0.00    +0.000 C 
ATOM     18  C   UNL     1       2.814   6.495  19.314  0.00  0.00    +0.000 C 
ATOM     19  O   UNL     1       4.876   5.320  19.740  0.00  0.00    +0.000 OA
ENDROOT
TORSDOF 0
ENDMDL
MODEL 3
REMARK VINA RESULT:      -7.3      3.261      5.442
REMARK  Name = 
REMARK  4 active torsions:
REMARK  status: ('A' for Active; 'I' for Inactive)
REMARK    1  A    between atoms: C_1  and  C_2
REMARK    2  A    between atoms: C_11  and  C_12
REMARK    3  A    between atoms: C_11  and  C_13
REMARK    4  A    between atoms: C_17  and  C_18
REMARK                            x       y       z     vdW  Elec       q    Type
REMARK                         _______ _______ _______ _____ _____    ______ ____
ROOT
ATOM      1  C   UNL     1      -0.180  10.048  21.146  0.00  0.00    +0.000 C 
ATOM      2  C   UNL     1       0.759   9.048  20.560  0.00  0.00    +0.000 A 
ATOM      3  C   UNL     1       1.205   7.958  21.198  0.00  0.00    +0.000 A 
ATOM      4  C   UNL     1       1.992   7.003  20.472  0.00  0.00    +0.000 A 
ATOM      5  C   UNL     1       2.351   7.216  19.200  0.00  0.00    +0.000 A 
ATOM      6  C   UNL     1       1.942   8.466  18.514  0.00  0.00    +0.000 A 
ATOM      7  O   UNL     1       2.270   8.704  17.356  0.00  0.00    +0.000 OA
ATOM      8  O   UNL     1       1.128   9.315  19.219  0.00  0.00    +0.000 OA
ATOM      9  C   UNL     1       3.077   6.174  18.508  0.00  0.00    +0.000 C 
ATOM     10  C   UNL     1       3.021   4.905  18.972  0.00  0.00    +0.000 C 
ATOM     11  C   UNL     1       3.690   3.723  18.245  0.00  0.00    +0.000 C 
ATOM     12  C   UNL     1       2.789   3.344  17.047  0.00  0.00    +0.000 C 
ATOM     13  C   UNL     1       5.078   4.117  17.670  0.00  0.00    +0.000 C 
ATOM     14  C   UNL     1       3.923   2.450  19.126  0.00  0.00    +0.000 C 
ATOM     15  C   UNL     1       3.443   2.496  20.540  0.00  0.00    +0.000 C 
ATOM     16  C   UNL     1       2.697   3.487  21.040  0.00  0.00    +0.000 C 
ATOM     17  C   UNL     1       2.188   4.652  20.237  0.00  0.00    +0.000 C 
ATOM     18  C   UNL     1       0.708   4.365  19.909  0.00  0.00    +0.000 C 
ATOM     19  O   UNL     1       2.209   5.806  21.129  0.00  0.00    +0.000 OA
ENDROOT
TORSDOF 0
ENDMDL
MODEL 4
REMARK VINA RESULT:      -7.1      1.903      5.705
REMARK  Name = 
REMARK  4 active torsions:
REMARK  status: ('A' for Active; 'I' for Inactive)
REMARK    1  A    between atoms: C_1  and  C_2
REMARK    2  A    between atoms: C_11  and  C_12
REMARK    3  A    between atoms: C_11  and  C_13
REMARK    4  A    between atoms: C_17  and  C_18
REMARK                            x       y       z     vdW  Elec       q    Type
REMARK                         _______ _______ _______ _____ _____    ______ ____
ROOT
ATOM      1  C   UNL     1       1.173   2.614  21.864  0.00  0.00    +0.000 C 
ATOM      2  C   UNL     1       1.862   2.850  20.562  0.00  0.00    +0.000 A 
ATOM      3  C   UNL     1       1.915   4.030  19.931  0.00  0.00    +0.000 A 
ATOM      4  C   UNL     1       2.731   4.153  18.757  0.00  0.00    +0.000 A 
ATOM      5  C   UNL     1       3.374   3.099  18.240  0.00  0.00    +0.000 A 
ATOM      6  C   UNL     1       3.245   1.767  18.876  0.00  0.00    +0.000 A 
ATOM      7  O   UNL     1       3.804   0.775  18.418  0.00  0.00    +0.000 OA
ATOM      8  O   UNL     1       2.518   1.709  20.038  0.00  0.00    +0.000 OA
ATOM      9  C   UNL     1       4.240   3.316  17.101  0.00  0.00    +0.000 C 
ATOM     10  C   UNL     1       4.705   4.560  16.847  0.00  0.00    +0.000 C 
ATOM     11  C   UNL     1       5.702   4.860  15.711  0.00  0.00    +0.000 C 
ATOM     12  C   UNL     1       7.102   4.416  16.192  0.00  0.00    +0.000 C 
ATOM     13  C   UNL     1       5.374   4.042  14.432  0.00  0.00    +0.000 C 
ATOM     14  C   UNL     1       5.769   6.360  15.269  0.00  0.00    +0.000 C 
ATOM     15  C   UNL     1       4.911   7.334  16.008  0.00  0.00    +0.000 C 
ATOM     16  C   UNL     1       4.219   7.027  17.111  0.00  0.00    +0.000 C 
ATOM     17  C   UNL     1       4.259   5.686  17.791  0.00  0.00    +0.000 C 
ATOM     18  C   UNL     1       5.194   5.825  19.010  0.00  0.00    +0.000 C 
ATOM     19  O   UNL     1       2.918   5.448  18.310  0.00  0.00    +0.000 OA
ENDROOT
TORSDOF 0
ENDMDL
MODEL 5
REMARK VINA RESULT:      -6.9      1.741      2.360
REMARK  Name = 
REMARK  4 active torsions:
REMARK  status: ('A' for Active; 'I' for Inactive)
REMARK    1  A    between atoms: C_1  and  C_2
REMARK    2  A    between atoms: C_11  and  C_12
REMARK    3  A    between atoms: C_11  and  C_13
REMARK    4  A    between atoms: C_17  and  C_18
REMARK                            x       y       z     vdW  Elec       q    Type
REMARK                         _______ _______ _______ _____ _____    ______ ____
ROOT
ATOM      1  C   UNL     1       8.129   8.322  17.084  0.00  0.00    +0.000 C 
ATOM      2  C   UNL     1       7.228   7.373  17.803  0.00  0.00    +0.000 A 
ATOM      3  C   UNL     1       5.927   7.208  17.536  0.00  0.00    +0.000 A 
ATOM      4  C   UNL     1       5.208   6.162  18.204  0.00  0.00    +0.000 A 
ATOM      5  C   UNL     1       5.791   5.403  19.141  0.00  0.00    +0.000 A 
ATOM      6  C   UNL     1       7.206   5.641  19.513  0.00  0.00    +0.000 A 
ATOM      7  O   UNL     1       7.766   4.978  20.381  0.00  0.00    +0.000 OA
ATOM      8  O   UNL     1       7.877   6.599  18.796  0.00  0.00    +0.000 OA
ATOM      9  C   UNL     1       5.027   4.317  19.716  0.00  0.00    +0.000 C 
ATOM     10  C   UNL     1       3.956   3.832  19.049  0.00  0.00    +0.000 C 
ATOM     11  C   UNL     1       3.144   2.621  19.546  0.00  0.00    +0.000 C 
ATOM     12  C   UNL     1       3.954   1.348  19.207  0.00  0.00    +0.000 C 
ATOM     13  C   UNL     1       2.959   2.651  21.088  0.00  0.00    +0.000 C 
ATOM     14  C   UNL     1       1.710   2.488  18.933  0.00  0.00    +0.000 C 
ATOM     15  C   UNL     1       1.300   3.503  17.917  0.00  0.00    +0.000 C 
ATOM     16  C   UNL     1       2.134   4.410  17.394  0.00  0.00    +0.000 C 
ATOM     17  C   UNL     1       3.602   4.491  17.708  0.00  0.00    +0.000 C 
ATOM     18  C   UNL     1       4.354   3.843  16.527  0.00  0.00    +0.000 C 
ATOM     19  O   UNL     1       3.945   5.908  17.702  0.00  0.00    +0.000 OA
ENDROOT
TORSDOF 0
ENDMDL
MODEL 6
REMARK VINA RESULT:      -6.9      1.762      5.896
REMARK  Name = 
REMARK  4 active torsions:
REMARK  status: ('A' for Active; 'I' for Inactive)
REMARK    1  A    between atoms: C_1  and  C_2
REMARK    2  A    between atoms: C_11  and  C_12
REMARK    3  A    between atoms: C_11  and  C_13
REMARK    4  A    between atoms: C_17  and  C_18
REMARK                            x       y       z     vdW  Elec       q    Type
REMARK                         _______ _______ _______ _____ _____    ______ ____
ROOT
ATOM      1  C   UNL     1       1.039   2.651  21.839  0.00  0.00    +0.000 C 
ATOM      2  C   UNL     1       1.684   3.443  20.751  0.00  0.00    +0.000 A 
ATOM      3  C   UNL     1       2.811   4.152  20.891  0.00  0.00    +0.000 A 
ATOM      4  C   UNL     1       3.402   4.752  19.730  0.00  0.00    +0.000 A 
ATOM      5  C   UNL     1       2.811   4.683  18.530  0.00  0.00    +0.000 A 
ATOM      6  C   UNL     1       1.513   3.981  18.384  0.00  0.00    +0.000 A 
ATOM      7  O   UNL     1       0.933   3.916  17.304  0.00  0.00    +0.000 OA
ATOM      8  O   UNL     1       1.022   3.357  19.502  0.00  0.00    +0.000 OA
ATOM      9  C   UNL     1       3.504   5.244  17.391  0.00  0.00    +0.000 C 
ATOM     10  C   UNL     1       4.840   5.437  17.456  0.00  0.00    +0.000 C 
ATOM     11  C   UNL     1       5.666   5.944  16.258  0.00  0.00    +0.000 C 
ATOM     12  C   UNL     1       5.867   4.752  15.294  0.00  0.00    +0.000 C 
ATOM     13  C   UNL     1       4.912   7.051  15.471  0.00  0.00    +0.000 C 
ATOM     14  C   UNL     1       7.066   6.542  16.624  0.00  0.00    +0.000 C 
ATOM     15  C   UNL     1       7.468   6.519  18.063  0.00  0.00    +0.000 C 
ATOM     16  C   UNL     1       6.777   5.884  19.018  0.00  0.00    +0.000 C 
ATOM     17  C   UNL     1       5.546   5.059  18.766  0.00  0.00    +0.000 C 
ATOM     18  C   UNL     1       5.981   3.579  18.783  0.00  0.00    +0.000 C 
ATOM     19  O   UNL     1       4.675   5.258  19.918  0.00  0.00    +0.000 OA
ENDROOT
TORSDOF 0
ENDMDL
MODEL 7
REMARK VINA RESULT:      -6.8      1.713      3.397
REMARK  Name = 
REMARK  4 active torsions:
REMARK  status: ('A' for Active; 'I' for Inactive)
REMARK    1  A    between atoms: C_1  and  C_2
REMARK    2  A    between atoms: C_11  and  C_12
REMARK    3  A    between atoms: C_11  and  C_13
REMARK    4  A    between atoms: C_17  and  C_18
REMARK                            x       y       z     vdW  Elec       q    Type
REMARK                         _______ _______ _______ _____ _____    ______ ____
ROOT
ATOM      1  C   UNL     1       8.463   8.313  18.146  0.00  0.00    +0.000 C 
ATOM      2  C   UNL     1       7.479   7.224  17.878  0.00  0.00    +0.000 A 
ATOM      3  C   UNL     1       7.145   6.267  18.752  0.00  0.00    +0.000 A 
ATOM      4  C   UNL     1       6.080   5.364  18.420  0.00  0.00    +0.000 A 
ATOM      5  C   UNL     1       5.471   5.411  17.229  0.00  0.00    +0.000 A 
ATOM      6  C   UNL     1       5.898   6.407  16.217  0.00  0.00    +0.000 A 
ATOM      7  O   UNL     1       5.376   6.465  15.108  0.00  0.00    +0.000 OA
ATOM      8  O   UNL     1       6.866   7.298  16.603  0.00  0.00    +0.000 OA
ATOM      9  C   UNL     1       4.354   4.522  16.995  0.00  0.00    +0.000 C 
ATOM     10  C   UNL     1       3.698   3.987  18.050  0.00  0.00    +0.000 C 
ATOM     11  C   UNL     1       2.446   3.105  17.889  0.00  0.00    +0.000 C 
ATOM     12  C   UNL     1       1.250   4.041  17.598  0.00  0.00    +0.000 C 
ATOM     13  C   UNL     1       2.578   2.138  16.681  0.00  0.00    +0.000 C 
ATOM     14  C   UNL     1       2.101   2.214  19.129  0.00  0.00    +0.000 C 
ATOM     15  C   UNL     1       2.977   2.341  20.332  0.00  0.00    +0.000 C 
ATOM     16  C   UNL     1       3.929   3.273  20.464  0.00  0.00    +0.000 C 
ATOM     17  C   UNL     1       4.202   4.352  19.453  0.00  0.00    +0.000 C 
ATOM     18  C   UNL     1       3.551   5.645  19.985  0.00  0.00    +0.000 C 
ATOM     19  O   UNL     1       5.644   4.568  19.463  0.00  0.00    +0.000 OA
ENDROOT
TORSDOF 0
ENDMDL
MODEL 8
REMARK VINA RESULT:      -6.4      3.585      5.592
REMARK  Name = 
REMARK  4 active torsions:
REMARK  status: ('A' for Active; 'I' for Inactive)
REMARK    1  A    between atoms: C_1  and  C_2
REMARK    2  A    between atoms: C_11  and  C_12
REMARK    3  A    between atoms: C_11  and  C_13
REMARK    4  A    between atoms: C_17  and  C_18
REMARK                            x       y       z     vdW  Elec       q    Type
REMARK                         _______ _______ _______ _____ _____    ______ ____
ROOT
ATOM      1  C   UNL     1       1.146  11.150  19.201  0.00  0.00    +0.000 C 
ATOM      2  C   UNL     1       1.568   9.743  18.934  0.00  0.00    +0.000 A 
ATOM      3  C   UNL     1       2.139   9.322  17.799  0.00  0.00    +0.000 A 
ATOM      4  C   UNL     1       2.626   7.975  17.725  0.00  0.00    +0.000 A 
ATOM      5  C   UNL     1       2.452   7.113  18.735  0.00  0.00    +0.000 A 
ATOM      6  C   UNL     1       1.736   7.543  19.960  0.00  0.00    +0.000 A 
ATOM      7  O   UNL     1       1.541   6.774  20.897  0.00  0.00    +0.000 OA
ATOM      8  O   UNL     1       1.355   8.858  20.020  0.00  0.00    +0.000 OA
ATOM      9  C   UNL     1       3.039   5.796  18.621  0.00  0.00    +0.000 C 
ATOM     10  C   UNL     1       4.053   5.593  17.750  0.00  0.00    +0.000 C 
ATOM     11  C   UNL     1       4.792   4.247  17.632  0.00  0.00    +0.000 C 
ATOM     12  C   UNL     1       5.772   4.147  18.825  0.00  0.00    +0.000 C 
ATOM     13  C   UNL     1       3.812   3.046  17.740  0.00  0.00    +0.000 C 
ATOM     14  C   UNL     1       5.591   4.044  16.302  0.00  0.00    +0.000 C 
ATOM     15  C   UNL     1       5.592   5.172  15.322  0.00  0.00    +0.000 C 
ATOM     16  C   UNL     1       5.088   6.384  15.583  0.00  0.00    +0.000 C 
ATOM     17  C   UNL     1       4.513   6.794  16.911  0.00  0.00    +0.000 C 
ATOM     18  C   UNL     1       5.592   7.627  17.634  0.00  0.00    +0.000 C 
ATOM     19  O   UNL     1       3.406   7.696  16.618  0.00  0.00    +0.000 OA
ENDROOT
TORSDOF 0
ENDMDL
MODEL 9
REMARK VINA RESULT:      -6.4      9.284     11.017
REMARK  Name = 
REMARK  4 active torsions:
REMARK  status: ('A' for Active; 'I' for Inactive)
REMARK    1  A    between atoms: C_1  and  C_2
REMARK    2  A    between atoms: C_11  and  C_12
REMARK    3  A    between atoms: C_11  and  C_13
REMARK    4  A    between atoms: C_17  and  C_18
REMARK                            x       y       z     vdW  Elec       q    Type
REMARK                         _______ _______ _______ _____ _____    ______ ____
ROOT
ATOM      1  C   UNL     1      -3.042  10.006  14.175  0.00  0.00    +0.000 C 
ATOM      2  C   UNL     1      -3.221  10.425  15.596  0.00  0.00    +0.000 A 
ATOM      3  C   UNL     1      -2.369  10.139  16.588  0.00  0.00    +0.000 A 
ATOM      4  C   UNL     1      -2.586  10.723  17.881  0.00  0.00    +0.000 A 
ATOM      5  C   UNL     1      -3.660  11.482  18.132  0.00  0.00    +0.000 A 
ATOM      6  C   UNL     1      -4.660  11.727  17.066  0.00  0.00    +0.000 A 
ATOM      7  O   UNL     1      -5.667  12.400  17.267  0.00  0.00    +0.000 OA
ATOM      8  O   UNL     1      -4.375  11.214  15.827  0.00  0.00    +0.000 OA
ATOM      9  C   UNL     1      -3.771  12.101  19.435  0.00  0.00    +0.000 C 
ATOM     10  C   UNL     1      -2.664  12.256  20.194  0.00  0.00    +0.000 C 
ATOM     11  C   UNL     1      -2.681  12.985  21.551  0.00  0.00    +0.000 C 
ATOM     12  C   UNL     1      -2.718  14.504  21.263  0.00  0.00    +0.000 C 
ATOM     13  C   UNL     1      -3.955  12.641  22.369  0.00  0.00    +0.000 C 
ATOM     14  C   UNL     1      -1.462  12.676  22.484  0.00  0.00    +0.000 C 
ATOM     15  C   UNL     1      -0.407  11.759  21.956  0.00  0.00    +0.000 C 
ATOM     16  C   UNL     1      -0.368  11.321  20.692  0.00  0.00    +0.000 C 
ATOM     17  C   UNL     1      -1.337  11.739  19.620  0.00  0.00    +0.000 C 
ATOM     18  C   UNL     1      -0.626  12.801  18.756  0.00  0.00    +0.000 C 
ATOM     19  O   UNL     1      -1.541  10.570  18.773  0.00  0.00    +0.000 OA
ENDROOT
TORSDOF 0
ENDMDL
