MODEL 1
REMARK VINA RESULT:      -6.8      0.000      0.000
REMARK  Name = 
REMARK  3 active torsions:
REMARK  status: ('A' for Active; 'I' for Inactive)
REMARK    1  A    between atoms: C_1  and  C_2
REMARK    2  A    between atoms: N_5  and  C_6
REMARK    3  A    between atoms: N_17  and  C_18
REMARK                            x       y       z     vdW  Elec       q    Type
REMARK                         _______ _______ _______ _____ _____    ______ ____
ROOT
ATOM      1  C   UNL     1      -2.392  10.442  16.447  0.00  0.00    +0.000 C 
ATOM      2  C   UNL     1      -1.896  10.751  17.827  0.00  0.00    +0.000 A 
ATOM      3  N   UNL     1      -0.712  10.220  18.174  0.00  0.00    +0.000 NA
ATOM      4  C   UNL     1      -0.226  10.472  19.399  0.00  0.00    +0.000 A 
ATOM      5  N   UNL     1       0.995   9.904  19.833  0.00  0.00    +0.000 N 
ATOM      6  C   UNL     1      -0.923  11.300  20.254  0.00  0.00    +0.000 A 
ATOM      7  S   UNL     1      -0.537  11.743  21.907  0.00  0.00    +0.000 S 
ATOM      8  C   UNL     1      -2.040  12.684  22.047  0.00  0.00    +0.000 A 
ATOM      9  S   UNL     1      -2.296  13.597  23.426  0.00  0.00    +0.000 S 
ATOM     10  N   UNL     1      -2.790  12.574  20.859  0.00  0.00    +0.000 N 
ATOM     11  C   UNL     1      -2.138  11.806  19.837  0.00  0.00    +0.000 A 
ATOM     12  N   UNL     1      -2.649  11.530  18.623  0.00  0.00    +0.000 NA
ATOM     13  H   UNL     1       1.130  10.044  20.830  0.00  0.00    +0.000 HD
ENDROOT
BRANCH   5  14
ATOM     14  C   UNL     1       1.688   8.781  19.338  0.00  0.00    +0.000 A 
ATOM     15  C   UNL     1       2.299   8.735  18.078  0.00  0.00    +0.000 A 
ATOM     16  C   UNL     1       2.932   7.574  17.623  0.00  0.00    +0.000 A 
ATOM     17  C   UNL     1       2.983   6.457  18.442  0.00  0.00    +0.000 A 
ATOM     18  F   UNL     1       3.574   5.339  18.001  0.00  0.00    +0.000 F 
ATOM     19  C   UNL     1       2.430   6.485  19.714  0.00  0.00    +0.000 A 
ATOM     20  C   UNL     1       1.795   7.647  20.162  0.00  0.00    +0.000 A 
ENDBRANCH   5  14
BRANCH  10  21
ATOM     21  C   UNL     1      -4.108  13.095  20.634  0.00  0.00    +0.000 A 
ATOM     22  C   UNL     1      -5.232  12.256  20.529  0.00  0.00    +0.000 A 
ATOM     23  C   UNL     1      -6.516  12.776  20.319  0.00  0.00    +0.000 A 
ATOM     24  C   UNL     1      -6.690  14.149  20.195  0.00  0.00    +0.000 A 
ATOM     25  F   UNL     1      -7.917  14.646  19.997  0.00  0.00    +0.000 F 
ATOM     26  C   UNL     1      -5.607  15.003  20.283  0.00  0.00    +0.000 A 
ATOM     27  C   UNL     1      -4.329  14.479  20.512  0.00  0.00    +0.000 A 
ENDBRANCH  10  21
TORSDOF 2
ENDMDL
MODEL 2
REMARK VINA RESULT:      -6.7      3.498      4.747
REMARK  Name = 
REMARK  3 active torsions:
REMARK  status: ('A' for Active; 'I' for Inactive)
REMARK    1  A    between atoms: C_1  and  C_2
REMARK    2  A    between atoms: N_5  and  C_6
REMARK    3  A    between atoms: N_17  and  C_18
REMARK                            x       y       z     vdW  Elec       q    Type
REMARK                         _______ _______ _______ _____ _____    ______ ____
ROOT
ATOM      1  C   UNL     1       3.116   8.707  17.227  0.00  0.00    +0.000 C 
ATOM      2  C   UNL     1       2.341   8.633  18.507  0.00  0.00    +0.000 A 
ATOM      3  N   UNL     1       2.354   7.454  19.151  0.00  0.00    +0.000 NA
ATOM      4  C   UNL     1       1.676   7.341  20.304  0.00  0.00    +0.000 A 
ATOM      5  N   UNL     1       1.619   6.111  21.002  0.00  0.00    +0.000 N 
ATOM      6  C   UNL     1       1.023   8.440  20.824  0.00  0.00    +0.000 A 
ATOM      7  S   UNL     1       0.036   8.543  22.270  0.00  0.00    +0.000 S 
ATOM      8  C   UNL     1      -0.340  10.250  21.937  0.00  0.00    +0.000 A 
ATOM      9  S   UNL     1      -1.192  11.127  23.080  0.00  0.00    +0.000 S 
ATOM     10  N   UNL     1       0.252  10.646  20.721  0.00  0.00    +0.000 N 
ATOM     11  C   UNL     1       1.044   9.619  20.107  0.00  0.00    +0.000 A 
ATOM     12  N   UNL     1       1.692   9.731  18.933  0.00  0.00    +0.000 NA
ATOM     13  H   UNL     1       0.930   6.145  21.747  0.00  0.00    +0.000 HD
ENDROOT
BRANCH   5  14
ATOM     14  C   UNL     1       1.859   4.803  20.536  0.00  0.00    +0.000 A 
ATOM     15  C   UNL     1       3.135   4.232  20.443  0.00  0.00    +0.000 A 
ATOM     16  C   UNL     1       3.314   2.944  19.928  0.00  0.00    +0.000 A 
ATOM     17  C   UNL     1       2.211   2.207  19.527  0.00  0.00    +0.000 A 
ATOM     18  F   UNL     1       2.383   0.981  19.017  0.00  0.00    +0.000 F 
ATOM     19  C   UNL     1       0.930   2.726  19.650  0.00  0.00    +0.000 A 
ATOM     20  C   UNL     1       0.757   4.015  20.162  0.00  0.00    +0.000 A 
ENDBRANCH   5  14
BRANCH  10  21
ATOM     21  C   UNL     1       0.079  11.909  20.063  0.00  0.00    +0.000 A 
ATOM     22  C   UNL     1      -0.842  12.083  19.014  0.00  0.00    +0.000 A 
ATOM     23  C   UNL     1      -1.010  13.323  18.385  0.00  0.00    +0.000 A 
ATOM     24  C   UNL     1      -0.241  14.408  18.789  0.00  0.00    +0.000 A 
ATOM     25  F   UNL     1      -0.403  15.594  18.189  0.00  0.00    +0.000 F 
ATOM     26  C   UNL     1       0.681  14.272  19.809  0.00  0.00    +0.000 A 
ATOM     27  C   UNL     1       0.830  13.035  20.447  0.00  0.00    +0.000 A 
ENDBRANCH  10  21
TORSDOF 2
ENDMDL
MODEL 3
REMARK VINA RESULT:      -6.7      0.341      1.374
REMARK  Name = 
REMARK  3 active torsions:
REMARK  status: ('A' for Active; 'I' for Inactive)
REMARK    1  A    between atoms: C_1  and  C_2
REMARK    2  A    between atoms: N_5  and  C_6
REMARK    3  A    between atoms: N_17  and  C_18
REMARK                            x       y       z     vdW  Elec       q    Type
REMARK                         _______ _______ _______ _____ _____    ______ ____
ROOT
ATOM      1  C   UNL     1      -2.462  10.736  16.641  0.00  0.00    +0.000 C 
ATOM      2  C   UNL     1      -1.967  11.020  18.025  0.00  0.00    +0.000 A 
ATOM      3  N   UNL     1      -0.802  10.452  18.377  0.00  0.00    +0.000 NA
ATOM      4  C   UNL     1      -0.317  10.680  19.607  0.00  0.00    +0.000 A 
ATOM      5  N   UNL     1       0.884  10.072  20.045  0.00  0.00    +0.000 N 
ATOM      6  C   UNL     1      -0.995  11.522  20.464  0.00  0.00    +0.000 A 
ATOM      7  S   UNL     1      -0.607  11.941  22.122  0.00  0.00    +0.000 S 
ATOM      8  C   UNL     1      -2.082  12.926  22.259  0.00  0.00    +0.000 A 
ATOM      9  S   UNL     1      -2.321  13.836  23.643  0.00  0.00    +0.000 S 
ATOM     10  N   UNL     1      -2.827  12.847  21.065  0.00  0.00    +0.000 N 
ATOM     11  C   UNL     1      -2.191  12.067  20.042  0.00  0.00    +0.000 A 
ATOM     12  N   UNL     1      -2.701  11.816  18.823  0.00  0.00    +0.000 NA
ATOM     13  H   UNL     1       1.016  10.201  21.043  0.00  0.00    +0.000 HD
ENDROOT
BRANCH   5  14
ATOM     14  C   UNL     1       1.546   8.933  19.546  0.00  0.00    +0.000 A 
ATOM     15  C   UNL     1       1.727   7.754  20.281  0.00  0.00    +0.000 A 
ATOM     16  C   UNL     1       2.435   6.672  19.749  0.00  0.00    +0.000 A 
ATOM     17  C   UNL     1       2.943   6.752  18.462  0.00  0.00    +0.000 A 
ATOM     18  F   UNL     1       3.635   5.723  17.957  0.00  0.00    +0.000 F 
ATOM     19  C   UNL     1       2.740   7.887  17.690  0.00  0.00    +0.000 A 
ATOM     20  C   UNL     1       2.035   8.967  18.229  0.00  0.00    +0.000 A 
ENDBRANCH   5  14
BRANCH  10  21
ATOM     21  C   UNL     1      -4.127  13.409  20.835  0.00  0.00    +0.000 A 
ATOM     22  C   UNL     1      -4.316  14.785  20.615  0.00  0.00    +0.000 A 
ATOM     23  C   UNL     1      -5.588  15.322  20.382  0.00  0.00    +0.000 A 
ATOM     24  C   UNL     1      -6.697  14.484  20.381  0.00  0.00    +0.000 A 
ATOM     25  F   UNL     1      -7.914  14.997  20.157  0.00  0.00    +0.000 F 
ATOM     26  C   UNL     1      -6.552  13.129  20.604  0.00  0.00    +0.000 A 
ATOM     27  C   UNL     1      -5.275  12.595  20.817  0.00  0.00    +0.000 A 
ENDBRANCH  10  21
TORSDOF 2
ENDMDL
MODEL 4
REMARK VINA RESULT:      -6.7      4.610     10.040
REMARK  Name = 
REMARK  3 active torsions:
REMARK  status: ('A' for Active; 'I' for Inactive)
REMARK    1  A    between atoms: C_1  and  C_2
REMARK    2  A    between atoms: N_5  and  C_6
REMARK    3  A    between atoms: N_17  and  C_18
REMARK                            x       y       z     vdW  Elec       q    Type
REMARK                         _______ _______ _______ _____ _____    ______ ____
ROOT
ATOM      1  C   UNL     1       2.611   9.793  17.194  0.00  0.00    +0.000 C 
ATOM      2  C   UNL     1       2.455   8.659  18.160  0.00  0.00    +0.000 A 
ATOM      3  N   UNL     1       1.595   8.846  19.174  0.00  0.00    +0.000 NA
ATOM      4  C   UNL     1       1.420   7.856  20.063  0.00  0.00    +0.000 A 
ATOM      5  N   UNL     1       0.559   8.015  21.175  0.00  0.00    +0.000 N 
ATOM      6  C   UNL     1       2.087   6.661  19.895  0.00  0.00    +0.000 A 
ATOM      7  S   UNL     1       2.073   5.244  20.930  0.00  0.00    +0.000 S 
ATOM      8  C   UNL     1       3.258   4.423  19.887  0.00  0.00    +0.000 A 
ATOM      9  S   UNL     1       3.641   2.825  20.202  0.00  0.00    +0.000 S 
ATOM     10  N   UNL     1       3.650   5.278  18.838  0.00  0.00    +0.000 N 
ATOM     11  C   UNL     1       2.963   6.538  18.836  0.00  0.00    +0.000 A 
ATOM     12  N   UNL     1       3.170   7.538  17.959  0.00  0.00    +0.000 NA
ATOM     13  H   UNL     1       0.674   7.255  21.839  0.00  0.00    +0.000 HD
ENDROOT
BRANCH   5  14
ATOM     14  C   UNL     1       0.073   9.195  21.772  0.00  0.00    +0.000 A 
ATOM     15  C   UNL     1      -0.662   9.219  22.965  0.00  0.00    +0.000 A 
ATOM     16  C   UNL     1      -1.159  10.419  23.484  0.00  0.00    +0.000 A 
ATOM     17  C   UNL     1      -0.897  11.610  22.826  0.00  0.00    +0.000 A 
ATOM     18  F   UNL     1      -1.385  12.757  23.313  0.00  0.00    +0.000 F 
ATOM     19  C   UNL     1      -0.131  11.626  21.669  0.00  0.00    +0.000 A 
ATOM     20  C   UNL     1       0.359  10.424  21.152  0.00  0.00    +0.000 A 
ENDBRANCH   5  14
BRANCH  10  21
ATOM     21  C   UNL     1       4.671   5.016  17.864  0.00  0.00    +0.000 A 
ATOM     22  C   UNL     1       4.387   4.392  16.636  0.00  0.00    +0.000 A 
ATOM     23  C   UNL     1       5.389   4.150  15.689  0.00  0.00    +0.000 A 
ATOM     24  C   UNL     1       6.700   4.518  15.966  0.00  0.00    +0.000 A 
ATOM     25  F   UNL     1       7.658   4.288  15.060  0.00  0.00    +0.000 F 
ATOM     26  C   UNL     1       7.019   5.124  17.166  0.00  0.00    +0.000 A 
ATOM     27  C   UNL     1       6.009   5.381  18.101  0.00  0.00    +0.000 A 
ENDBRANCH  10  21
TORSDOF 2
ENDMDL
MODEL 5
REMARK VINA RESULT:      -6.6      3.495      4.791
REMARK  Name = 
REMARK  3 active torsions:
REMARK  status: ('A' for Active; 'I' for Inactive)
REMARK    1  A    between atoms: C_1  and  C_2
REMARK    2  A    between atoms: N_5  and  C_6
REMARK    3  A    between atoms: N_17  and  C_18
REMARK                            x       y       z     vdW  Elec       q    Type
REMARK                         _______ _______ _______ _____ _____    ______ ____
ROOT
ATOM      1  C   UNL     1       3.109   8.783  17.194  0.00  0.00    +0.000 C 
ATOM      2  C   UNL     1       2.334   8.697  18.473  0.00  0.00    +0.000 A 
ATOM      3  N   UNL     1       2.341   7.509  19.101  0.00  0.00    +0.000 NA
ATOM      4  C   UNL     1       1.662   7.384  20.252  0.00  0.00    +0.000 A 
ATOM      5  N   UNL     1       1.600   6.145  20.934  0.00  0.00    +0.000 N 
ATOM      6  C   UNL     1       1.014   8.478  20.786  0.00  0.00    +0.000 A 
ATOM      7  S   UNL     1       0.027   8.567  22.233  0.00  0.00    +0.000 S 
ATOM      8  C   UNL     1      -0.341  10.280  21.923  0.00  0.00    +0.000 A 
ATOM      9  S   UNL     1      -1.189  11.146  23.077  0.00  0.00    +0.000 S 
ATOM     10  N   UNL     1       0.253  10.689  20.713  0.00  0.00    +0.000 N 
ATOM     11  C   UNL     1       1.041   9.666  20.085  0.00  0.00    +0.000 A 
ATOM     12  N   UNL     1       1.690   9.792  18.913  0.00  0.00    +0.000 NA
ATOM     13  H   UNL     1       0.911   6.172  21.679  0.00  0.00    +0.000 HD
ENDROOT
BRANCH   5  14
ATOM     14  C   UNL     1       1.834   4.842  20.451  0.00  0.00    +0.000 A 
ATOM     15  C   UNL     1       0.819   3.908  20.208  0.00  0.00    +0.000 A 
ATOM     16  C   UNL     1       1.118   2.613  19.773  0.00  0.00    +0.000 A 
ATOM     17  C   UNL     1       2.438   2.253  19.549  0.00  0.00    +0.000 A 
ATOM     18  F   UNL     1       2.726   1.009  19.148  0.00  0.00    +0.000 F 
ATOM     19  C   UNL     1       3.462   3.170  19.733  0.00  0.00    +0.000 A 
ATOM     20  C   UNL     1       3.158   4.462  20.172  0.00  0.00    +0.000 A 
ENDBRANCH   5  14
BRANCH  10  21
ATOM     21  C   UNL     1       0.086  11.961  20.071  0.00  0.00    +0.000 A 
ATOM     22  C   UNL     1       0.827  13.094  20.458  0.00  0.00    +0.000 A 
ATOM     23  C   UNL     1       0.663  14.329  19.818  0.00  0.00    +0.000 A 
ATOM     24  C   UNL     1      -0.260  14.452  18.786  0.00  0.00    +0.000 A 
ATOM     25  F   UNL     1      -0.415  15.632  18.174  0.00  0.00    +0.000 F 
ATOM     26  C   UNL     1      -1.012  13.364  18.386  0.00  0.00    +0.000 A 
ATOM     27  C   UNL     1      -0.831  12.127  19.017  0.00  0.00    +0.000 A 
ENDBRANCH  10  21
TORSDOF 2
ENDMDL
MODEL 6
REMARK VINA RESULT:      -6.5      4.393     10.017
REMARK  Name = 
REMARK  3 active torsions:
REMARK  status: ('A' for Active; 'I' for Inactive)
REMARK    1  A    between atoms: C_1  and  C_2
REMARK    2  A    between atoms: N_5  and  C_6
REMARK    3  A    between atoms: N_17  and  C_18
REMARK                            x       y       z     vdW  Elec       q    Type
REMARK                         _______ _______ _______ _____ _____    ______ ____
ROOT
ATOM      1  C   UNL     1       2.722   9.866  17.236  0.00  0.00    +0.000 C 
ATOM      2  C   UNL     1       2.483   8.723  18.173  0.00  0.00    +0.000 A 
ATOM      3  N   UNL     1       1.549   8.906  19.121  0.00  0.00    +0.000 NA
ATOM      4  C   UNL     1       1.298   7.908  19.982  0.00  0.00    +0.000 A 
ATOM      5  N   UNL     1       0.355   8.062  21.026  0.00  0.00    +0.000 N 
ATOM      6  C   UNL     1       1.967   6.709  19.852  0.00  0.00    +0.000 A 
ATOM      7  S   UNL     1       1.862   5.281  20.866  0.00  0.00    +0.000 S 
ATOM      8  C   UNL     1       3.118   4.462  19.908  0.00  0.00    +0.000 A 
ATOM      9  S   UNL     1       3.462   2.856  20.232  0.00  0.00    +0.000 S 
ATOM     10  N   UNL     1       3.596   5.324  18.902  0.00  0.00    +0.000 N 
ATOM     11  C   UNL     1       2.921   6.590  18.862  0.00  0.00    +0.000 A 
ATOM     12  N   UNL     1       3.203   7.598  18.016  0.00  0.00    +0.000 NA
ATOM     13  H   UNL     1       0.413   7.293  21.687  0.00  0.00    +0.000 HD
ENDROOT
BRANCH   5  14
ATOM     14  C   UNL     1      -0.167   9.239  21.597  0.00  0.00    +0.000 A 
ATOM     15  C   UNL     1      -0.478  10.390  20.862  0.00  0.00    +0.000 A 
ATOM     16  C   UNL     1      -0.949  11.546  21.493  0.00  0.00    +0.000 A 
ATOM     17  C   UNL     1      -1.139  11.547  22.866  0.00  0.00    +0.000 A 
ATOM     18  F   UNL     1      -1.574  12.658  23.473  0.00  0.00    +0.000 F 
ATOM     19  C   UNL     1      -0.886  10.409  23.617  0.00  0.00    +0.000 A 
ATOM     20  C   UNL     1      -0.412   9.257  22.981  0.00  0.00    +0.000 A 
ENDBRANCH   5  14
BRANCH  10  21
ATOM     21  C   UNL     1       4.687   5.065  18.007  0.00  0.00    +0.000 A 
ATOM     22  C   UNL     1       6.013   5.406  18.330  0.00  0.00    +0.000 A 
ATOM     23  C   UNL     1       7.072   5.139  17.453  0.00  0.00    +0.000 A 
ATOM     24  C   UNL     1       6.814   4.537  16.227  0.00  0.00    +0.000 A 
ATOM     25  F   UNL     1       7.827   4.280  15.390  0.00  0.00    +0.000 F 
ATOM     26  C   UNL     1       5.523   4.196  15.872  0.00  0.00    +0.000 A 
ATOM     27  C   UNL     1       4.471   4.449  16.761  0.00  0.00    +0.000 A 
ENDBRANCH  10  21
TORSDOF 2
ENDMDL
MODEL 7
REMARK VINA RESULT:      -6.4      4.214      8.911
REMARK  Name = 
REMARK  3 active torsions:
REMARK  status: ('A' for Active; 'I' for Inactive)
REMARK    1  A    between atoms: C_1  and  C_2
REMARK    2  A    between atoms: N_5  and  C_6
REMARK    3  A    between atoms: N_17  and  C_18
REMARK                            x       y       z     vdW  Elec       q    Type
REMARK                         _______ _______ _______ _____ _____    ______ ____
ROOT
ATOM      1  C   UNL     1      -0.185   9.039  22.749  0.00  0.00    +0.000 C 
ATOM      2  C   UNL     1       0.600   8.889  21.482  0.00  0.00    +0.000 A 
ATOM      3  N   UNL     1       0.816  10.009  20.771  0.00  0.00    +0.000 NA
ATOM      4  C   UNL     1       1.517   9.925  19.630  0.00  0.00    +0.000 A 
ATOM      5  N   UNL     1       1.737  11.065  18.821  0.00  0.00    +0.000 N 
ATOM      6  C   UNL     1       2.035   8.710  19.234  0.00  0.00    +0.000 A 
ATOM      7  S   UNL     1       2.932   8.325  17.777  0.00  0.00    +0.000 S 
ATOM      8  C   UNL     1       2.999   6.605  18.227  0.00  0.00    +0.000 A 
ATOM      9  S   UNL     1       3.915   5.560  17.293  0.00  0.00    +0.000 S 
ATOM     10  N   UNL     1       2.293   6.393  19.428  0.00  0.00    +0.000 N 
ATOM     11  C   UNL     1       1.769   7.597  20.006  0.00  0.00    +0.000 A 
ATOM     12  N   UNL     1       1.038   7.667  21.134  0.00  0.00    +0.000 NA
ATOM     13  H   UNL     1       2.123  10.804  17.919  0.00  0.00    +0.000 HD
ENDROOT
BRANCH   5  14
ATOM     14  C   UNL     1       1.040  12.289  18.787  0.00  0.00    +0.000 A 
ATOM     15  C   UNL     1      -0.355  12.389  18.698  0.00  0.00    +0.000 A 
ATOM     16  C   UNL     1      -0.987  13.634  18.620  0.00  0.00    +0.000 A 
ATOM     17  C   UNL     1      -0.226  14.792  18.660  0.00  0.00    +0.000 A 
ATOM     18  F   UNL     1      -0.829  15.984  18.568  0.00  0.00    +0.000 F 
ATOM     19  C   UNL     1       1.153  14.729  18.796  0.00  0.00    +0.000 A 
ATOM     20  C   UNL     1       1.780  13.481  18.870  0.00  0.00    +0.000 A 
ENDBRANCH   5  14
BRANCH  10  21
ATOM     21  C   UNL     1       2.026   5.125  20.045  0.00  0.00    +0.000 A 
ATOM     22  C   UNL     1       1.133   4.196  19.481  0.00  0.00    +0.000 A 
ATOM     23  C   UNL     1       0.887   2.957  20.087  0.00  0.00    +0.000 A 
ATOM     24  C   UNL     1       1.524   2.637  21.280  0.00  0.00    +0.000 A 
ATOM     25  F   UNL     1       1.291   1.452  21.858  0.00  0.00    +0.000 F 
ATOM     26  C   UNL     1       2.400   3.529  21.868  0.00  0.00    +0.000 A 
ATOM     27  C   UNL     1       2.656   4.758  21.248  0.00  0.00    +0.000 A 
ENDBRANCH  10  21
TORSDOF 2
ENDMDL
MODEL 8
REMARK VINA RESULT:      -6.3      1.116      1.119
REMARK  Name = 
REMARK  3 active torsions:
REMARK  status: ('A' for Active; 'I' for Inactive)
REMARK    1  A    between atoms: C_1  and  C_2
REMARK    2  A    between atoms: N_5  and  C_6
REMARK    3  A    between atoms: N_17  and  C_18
REMARK                            x       y       z     vdW  Elec       q    Type
REMARK                         _______ _______ _______ _____ _____    ______ ____
ROOT
ATOM      1  C   UNL     1      -3.485  10.292  17.477  0.00  0.00    +0.000 C 
ATOM      2  C   UNL     1      -2.601  10.949  18.493  0.00  0.00    +0.000 A 
ATOM      3  N   UNL     1      -1.327  10.525  18.546  0.00  0.00    +0.000 NA
ATOM      4  C   UNL     1      -0.497  11.086  19.438  0.00  0.00    +0.000 A 
ATOM      5  N   UNL     1       0.843  10.649  19.566  0.00  0.00    +0.000 N 
ATOM      6  C   UNL     1      -0.950  12.108  20.245  0.00  0.00    +0.000 A 
ATOM      7  S   UNL     1      -0.092  12.965  21.513  0.00  0.00    +0.000 S 
ATOM      8  C   UNL     1      -1.546  13.912  21.909  0.00  0.00    +0.000 A 
ATOM      9  S   UNL     1      -1.422  15.152  23.026  0.00  0.00    +0.000 S 
ATOM     10  N   UNL     1      -2.625  13.498  21.104  0.00  0.00    +0.000 N 
ATOM     11  C   UNL     1      -2.273  12.489  20.145  0.00  0.00    +0.000 A 
ATOM     12  N   UNL     1      -3.121  11.909  19.277  0.00  0.00    +0.000 NA
ATOM     13  H   UNL     1       1.279  11.043  20.394  0.00  0.00    +0.000 HD
ENDROOT
BRANCH   5  14
ATOM     14  C   UNL     1       1.433   9.435  19.161  0.00  0.00    +0.000 A 
ATOM     15  C   UNL     1       1.884   9.185  17.858  0.00  0.00    +0.000 A 
ATOM     16  C   UNL     1       2.419   7.942  17.504  0.00  0.00    +0.000 A 
ATOM     17  C   UNL     1       2.533   6.948  18.463  0.00  0.00    +0.000 A 
ATOM     18  F   UNL     1       3.029   5.752  18.122  0.00  0.00    +0.000 F 
ATOM     19  C   UNL     1       2.140   7.179  19.773  0.00  0.00    +0.000 A 
ATOM     20  C   UNL     1       1.603   8.422  20.120  0.00  0.00    +0.000 A 
ENDBRANCH   5  14
BRANCH  10  21
ATOM     21  C   UNL     1      -3.985  13.944  21.210  0.00  0.00    +0.000 A 
ATOM     22  C   UNL     1      -4.920  13.294  22.037  0.00  0.00    +0.000 A 
ATOM     23  C   UNL     1      -6.242  13.744  22.140  0.00  0.00    +0.000 A 
ATOM     24  C   UNL     1      -6.653  14.847  21.400  0.00  0.00    +0.000 A 
ATOM     25  F   UNL     1      -7.916  15.278  21.500  0.00  0.00    +0.000 F 
ATOM     26  C   UNL     1      -5.765  15.504  20.570  0.00  0.00    +0.000 A 
ATOM     27  C   UNL     1      -4.439  15.061  20.485  0.00  0.00    +0.000 A 
ENDBRANCH  10  21
TORSDOF 2
ENDMDL
MODEL 9
REMARK VINA RESULT:      -6.2      4.301      5.763
REMARK  Name = 
REMARK  3 active torsions:
REMARK  status: ('A' for Active; 'I' for Inactive)
REMARK    1  A    between atoms: C_1  and  C_2
REMARK    2  A    between atoms: N_5  and  C_6
REMARK    3  A    between atoms: N_17  and  C_18
REMARK                            x       y       z     vdW  Elec       q    Type
REMARK                         _______ _______ _______ _____ _____    ______ ____
ROOT
ATOM      1  C   UNL     1       0.192  13.549  20.289  0.00  0.00    +0.000 C 
ATOM      2  C   UNL     1      -1.275  13.340  20.511  0.00  0.00    +0.000 A 
ATOM      3  N   UNL     1      -1.902  12.517  19.653  0.00  0.00    +0.000 NA
ATOM      4  C   UNL     1      -3.216  12.297  19.813  0.00  0.00    +0.000 A 
ATOM      5  N   UNL     1      -3.935  11.475  18.914  0.00  0.00    +0.000 N 
ATOM      6  C   UNL     1      -3.882  12.879  20.872  0.00  0.00    +0.000 A 
ATOM      7  S   UNL     1      -5.588  12.794  21.272  0.00  0.00    +0.000 S 
ATOM      8  C   UNL     1      -5.359  13.896  22.650  0.00  0.00    +0.000 A 
ATOM      9  S   UNL     1      -6.646  14.178  23.682  0.00  0.00    +0.000 S 
ATOM     10  N   UNL     1      -4.016  14.320  22.710  0.00  0.00    +0.000 N 
ATOM     11  C   UNL     1      -3.179  13.719  21.711  0.00  0.00    +0.000 A 
ATOM     12  N   UNL     1      -1.869  13.973  21.537  0.00  0.00    +0.000 NA
ATOM     13  H   UNL     1      -4.936  11.554  19.067  0.00  0.00    +0.000 HD
ENDROOT
BRANCH   5  14
ATOM     14  C   UNL     1      -3.610  11.083  17.600  0.00  0.00    +0.000 A 
ATOM     15  C   UNL     1      -4.270  11.560  16.460  0.00  0.00    +0.000 A 
ATOM     16  C   UNL     1      -3.933  11.098  15.184  0.00  0.00    +0.000 A 
ATOM     17  C   UNL     1      -2.910  10.174  15.038  0.00  0.00    +0.000 A 
ATOM     18  F   UNL     1      -2.597   9.718  13.819  0.00  0.00    +0.000 F 
ATOM     19  C   UNL     1      -2.205   9.718  16.143  0.00  0.00    +0.000 A 
ATOM     20  C   UNL     1      -2.549  10.181  17.416  0.00  0.00    +0.000 A 
ENDBRANCH   5  14
BRANCH  10  21
ATOM     21  C   UNL     1      -3.473  15.298  23.608  0.00  0.00    +0.000 A 
ATOM     22  C   UNL     1      -3.540  16.677  23.337  0.00  0.00    +0.000 A 
ATOM     23  C   UNL     1      -3.015  17.624  24.226  0.00  0.00    +0.000 A 
ATOM     24  C   UNL     1      -2.399  17.200  25.397  0.00  0.00    +0.000 A 
ATOM     25  F   UNL     1      -1.899  18.105  26.247  0.00  0.00    +0.000 F 
ATOM     26  C   UNL     1      -2.305  15.854  25.692  0.00  0.00    +0.000 A 
ATOM     27  C   UNL     1      -2.849  14.912  24.808  0.00  0.00    +0.000 A 
ENDBRANCH  10  21
TORSDOF 2
ENDMDL
