MODEL 1
REMARK VINA RESULT:      -7.7      0.000      0.000
REMARK  Name = 
REMARK  7 active torsions:
REMARK  status: ('A' for Active; 'I' for Inactive)
REMARK    1  A    between atoms: C_1  and  N_2
REMARK    2  A    between atoms: N_2  and  C_19
REMARK    3  A    between atoms: C_3  and  S_4
REMARK    4  A    between atoms: N_5  and  C_6
REMARK    5  A    between atoms: C_9  and  O_10
REMARK    6  A    between atoms: O_10  and  C_11
REMARK    7  A    between atoms: C_22  and  O_23
REMARK                            x       y       z     vdW  Elec       q    Type
REMARK                         _______ _______ _______ _____ _____    ______ ____
ROOT
ATOM      1  C   UNL     1       3.770   2.739  18.875  0.00  0.00    +0.000 C 
ATOM      2  N   UNL     1       3.936   4.145  18.484  0.00  0.00    +0.000 N 
ATOM      3  C   UNL     1       3.139   5.193  18.980  0.00  0.00    +0.000 C 
ATOM      4  N   UNL     1       3.057   6.374  18.416  0.00  0.00    +0.000 NA
ENDROOT
BRANCH   4   5
ATOM      5  C   UNL     1       2.261   7.445  18.861  0.00  0.00    +0.000 A 
ATOM      6  C   UNL     1       1.950   7.675  20.207  0.00  0.00    +0.000 A 
ATOM      7  C   UNL     1       1.175   8.771  20.598  0.00  0.00    +0.000 A 
ATOM      8  C   UNL     1       0.779   9.713  19.657  0.00  0.00    +0.000 A 
ATOM      9  C   UNL     1       1.084   9.514  18.310  0.00  0.00    +0.000 A 
ATOM     10  C   UNL     1       1.832   8.394  17.922  0.00  0.00    +0.000 A 
BRANCH   8  11
ATOM     11  O   UNL     1       0.047  10.776  20.132  0.00  0.00    +0.000 OA
BRANCH  11  12
ATOM     12  C   UNL     1       0.429  12.061  19.818  0.00  0.00    +0.000 A 
ATOM     13  C   UNL     1      -0.494  12.796  19.072  0.00  0.00    +0.000 A 
ATOM     14  C   UNL     1      -0.203  14.104  18.681  0.00  0.00    +0.000 A 
ATOM     15  C   UNL     1       1.013  14.682  19.042  0.00  0.00    +0.000 A 
ATOM     16  C   UNL     1       1.920  13.968  19.822  0.00  0.00    +0.000 A 
ATOM     17  C   UNL     1       1.619  12.668  20.232  0.00  0.00    +0.000 A 
ENDBRANCH  11  12
ENDBRANCH   8  11
ENDBRANCH   4   5
BRANCH   2  18
ATOM     18  C   UNL     1       4.983   4.321  17.520  0.00  0.00    +0.000 A 
ATOM     19  C   UNL     1       6.241   4.853  17.888  0.00  0.00    +0.000 A 
ATOM     20  C   UNL     1       7.232   5.154  16.947  0.00  0.00    +0.000 A 
ATOM     21  C   UNL     1       6.983   4.913  15.608  0.00  0.00    +0.000 A 
ATOM     22  C   UNL     1       5.779   4.346  15.207  0.00  0.00    +0.000 A 
ATOM     23  C   UNL     1       4.792   4.043  16.157  0.00  0.00    +0.000 A 
BRANCH  21  24
ATOM     24  O   UNL     1       7.904   5.231  14.655  0.00  0.00    +0.000 OA
ATOM     25  H   UNL     1       8.137   6.170  14.744  0.00  0.00    +0.000 HD
ENDBRANCH  21  24
ENDBRANCH   2  18
BRANCH   3  26
ATOM     26  S   UNL     1       2.216   4.817  20.463  0.00  0.00    +0.000 S 
ATOM     27  H   UNL     1       3.301   4.759  21.248  0.00  0.00    +0.000 HD
ENDBRANCH   3  26
TORSDOF 6
ENDMDL
MODEL 2
REMARK VINA RESULT:      -7.6      1.558      2.173
REMARK  Name = 
REMARK  7 active torsions:
REMARK  status: ('A' for Active; 'I' for Inactive)
REMARK    1  A    between atoms: C_1  and  N_2
REMARK    2  A    between atoms: N_2  and  C_19
REMARK    3  A    between atoms: C_3  and  S_4
REMARK    4  A    between atoms: N_5  and  C_6
REMARK    5  A    between atoms: C_9  and  O_10
REMARK    6  A    between atoms: O_10  and  C_11
REMARK    7  A    between atoms: C_22  and  O_23
REMARK                            x       y       z     vdW  Elec       q    Type
REMARK                         _______ _______ _______ _____ _____    ______ ____
ROOT
ATOM      1  C   UNL     1       3.341   2.965  19.564  0.00  0.00    +0.000 C 
ATOM      2  N   UNL     1       3.624   4.297  19.010  0.00  0.00    +0.000 N 
ATOM      3  C   UNL     1       2.878   5.447  19.327  0.00  0.00    +0.000 C 
ATOM      4  N   UNL     1       2.905   6.549  18.617  0.00  0.00    +0.000 NA
ENDROOT
BRANCH   4   5
ATOM      5  C   UNL     1       2.166   7.717  18.880  0.00  0.00    +0.000 A 
ATOM      6  C   UNL     1       1.671   8.055  20.146  0.00  0.00    +0.000 A 
ATOM      7  C   UNL     1       0.963   9.241  20.358  0.00  0.00    +0.000 A 
ATOM      8  C   UNL     1       0.821  10.159  19.325  0.00  0.00    +0.000 A 
ATOM      9  C   UNL     1       1.312   9.853  18.056  0.00  0.00    +0.000 A 
ATOM     10  C   UNL     1       1.992   8.645  17.844  0.00  0.00    +0.000 A 
BRANCH   8  11
ATOM     11  O   UNL     1       0.139  11.314  19.629  0.00  0.00    +0.000 OA
BRANCH  11  12
ATOM     12  C   UNL     1      -1.189  11.432  19.283  0.00  0.00    +0.000 A 
ATOM     13  C   UNL     1      -1.945  12.284  20.090  0.00  0.00    +0.000 A 
ATOM     14  C   UNL     1      -3.307  12.464  19.843  0.00  0.00    +0.000 A 
ATOM     15  C   UNL     1      -3.915  11.795  18.781  0.00  0.00    +0.000 A 
ATOM     16  C   UNL     1      -3.155  10.977  17.947  0.00  0.00    +0.000 A 
ATOM     17  C   UNL     1      -1.788  10.815  18.181  0.00  0.00    +0.000 A 
ENDBRANCH  11  12
ENDBRANCH   8  11
ENDBRANCH   4   5
BRANCH   2  18
ATOM     18  C   UNL     1       4.725   4.282  18.093  0.00  0.00    +0.000 A 
ATOM     19  C   UNL     1       6.022   4.684  18.492  0.00  0.00    +0.000 A 
ATOM     20  C   UNL     1       7.082   4.801  17.587  0.00  0.00    +0.000 A 
ATOM     21  C   UNL     1       6.864   4.502  16.255  0.00  0.00    +0.000 A 
ATOM     22  C   UNL     1       5.619   4.057  15.828  0.00  0.00    +0.000 A 
ATOM     23  C   UNL     1       4.562   3.938  16.742  0.00  0.00    +0.000 A 
BRANCH  21  24
ATOM     24  O   UNL     1       7.858   4.644  15.332  0.00  0.00    +0.000 OA
ATOM     25  H   UNL     1       8.050   5.590  15.220  0.00  0.00    +0.000 HD
ENDBRANCH  21  24
ENDBRANCH   2  18
BRANCH   3  26
ATOM     26  S   UNL     1       1.861   5.323  20.790  0.00  0.00    +0.000 S 
ATOM     27  H   UNL     1       0.728   5.093  20.111  0.00  0.00    +0.000 HD
ENDBRANCH   3  26
TORSDOF 6
ENDMDL
MODEL 3
REMARK VINA RESULT:      -7.5      4.049     10.168
REMARK  Name = 
REMARK  7 active torsions:
REMARK  status: ('A' for Active; 'I' for Inactive)
REMARK    1  A    between atoms: C_1  and  N_2
REMARK    2  A    between atoms: N_2  and  C_19
REMARK    3  A    between atoms: C_3  and  S_4
REMARK    4  A    between atoms: N_5  and  C_6
REMARK    5  A    between atoms: C_9  and  O_10
REMARK    6  A    between atoms: O_10  and  C_11
REMARK    7  A    between atoms: C_22  and  O_23
REMARK                            x       y       z     vdW  Elec       q    Type
REMARK                         _______ _______ _______ _____ _____    ______ ____
ROOT
ATOM      1  C   UNL     1      -0.952  14.777  20.375  0.00  0.00    +0.000 C 
ATOM      2  N   UNL     1      -1.284  13.374  20.659  0.00  0.00    +0.000 N 
ATOM      3  C   UNL     1      -0.393  12.305  20.456  0.00  0.00    +0.000 C 
ATOM      4  N   UNL     1      -0.766  11.049  20.395  0.00  0.00    +0.000 NA
ENDROOT
BRANCH   4   5
ATOM      5  C   UNL     1       0.082   9.948  20.175  0.00  0.00    +0.000 A 
ATOM      6  C   UNL     1       0.716   9.688  18.953  0.00  0.00    +0.000 A 
ATOM      7  C   UNL     1       1.569   8.592  18.796  0.00  0.00    +0.000 A 
ATOM      8  C   UNL     1       1.880   7.791  19.887  0.00  0.00    +0.000 A 
ATOM      9  C   UNL     1       1.271   8.034  21.118  0.00  0.00    +0.000 A 
ATOM     10  C   UNL     1       0.390   9.115  21.260  0.00  0.00    +0.000 A 
BRANCH   8  11
ATOM     11  O   UNL     1       2.753   6.755  19.650  0.00  0.00    +0.000 OA
BRANCH  11  12
ATOM     12  C   UNL     1       2.261   5.497  19.386  0.00  0.00    +0.000 A 
ATOM     13  C   UNL     1       2.425   5.052  18.072  0.00  0.00    +0.000 A 
ATOM     14  C   UNL     1       1.946   3.799  17.687  0.00  0.00    +0.000 A 
ATOM     15  C   UNL     1       1.307   2.983  18.619  0.00  0.00    +0.000 A 
ATOM     16  C   UNL     1       1.178   3.404  19.941  0.00  0.00    +0.000 A 
ATOM     17  C   UNL     1       1.677   4.648  20.331  0.00  0.00    +0.000 A 
ENDBRANCH  11  12
ENDBRANCH   8  11
ENDBRANCH   4   5
BRANCH   2  18
ATOM     18  C   UNL     1      -2.627  13.220  21.138  0.00  0.00    +0.000 A 
ATOM     19  C   UNL     1      -2.918  13.207  22.523  0.00  0.00    +0.000 A 
ATOM     20  C   UNL     1      -4.196  12.930  23.017  0.00  0.00    +0.000 A 
ATOM     21  C   UNL     1      -5.221  12.671  22.125  0.00  0.00    +0.000 A 
ATOM     22  C   UNL     1      -4.991  12.721  20.756  0.00  0.00    +0.000 A 
ATOM     23  C   UNL     1      -3.706  13.004  20.267  0.00  0.00    +0.000 A 
BRANCH  21  24
ATOM     24  O   UNL     1      -6.472  12.355  22.565  0.00  0.00    +0.000 OA
ATOM     25  H   UNL     1      -7.069  13.098  22.374  0.00  0.00    +0.000 HD
ENDBRANCH  21  24
ENDBRANCH   2  18
BRANCH   3  26
ATOM     26  S   UNL     1       1.325  12.762  20.280  0.00  0.00    +0.000 S 
ATOM     27  H   UNL     1       1.086  14.081  20.311  0.00  0.00    +0.000 HD
ENDBRANCH   3  26
TORSDOF 6
ENDMDL
MODEL 4
REMARK VINA RESULT:      -7.5      0.509      1.090
REMARK  Name = 
REMARK  7 active torsions:
REMARK  status: ('A' for Active; 'I' for Inactive)
REMARK    1  A    between atoms: C_1  and  N_2
REMARK    2  A    between atoms: N_2  and  C_19
REMARK    3  A    between atoms: C_3  and  S_4
REMARK    4  A    between atoms: N_5  and  C_6
REMARK    5  A    between atoms: C_9  and  O_10
REMARK    6  A    between atoms: O_10  and  C_11
REMARK    7  A    between atoms: C_22  and  O_23
REMARK                            x       y       z     vdW  Elec       q    Type
REMARK                         _______ _______ _______ _____ _____    ______ ____
ROOT
ATOM      1  C   UNL     1       3.062   2.643  19.082  0.00  0.00    +0.000 C 
ATOM      2  N   UNL     1       3.421   4.034  18.771  0.00  0.00    +0.000 N 
ATOM      3  C   UNL     1       2.703   5.149  19.239  0.00  0.00    +0.000 C 
ATOM      4  N   UNL     1       2.807   6.350  18.725  0.00  0.00    +0.000 NA
ENDROOT
BRANCH   4   5
ATOM      5  C   UNL     1       2.098   7.491  19.143  0.00  0.00    +0.000 A 
ATOM      6  C   UNL     1       1.798   7.770  20.483  0.00  0.00    +0.000 A 
ATOM      7  C   UNL     1       1.112   8.932  20.847  0.00  0.00    +0.000 A 
ATOM      8  C   UNL     1       0.799   9.885  19.886  0.00  0.00    +0.000 A 
ATOM      9  C   UNL     1       1.096   9.637  18.546  0.00  0.00    +0.000 A 
ATOM     10  C   UNL     1       1.754   8.453  18.184  0.00  0.00    +0.000 A 
BRANCH   8  11
ATOM     11  O   UNL     1       0.153  11.013  20.336  0.00  0.00    +0.000 OA
BRANCH  11  12
ATOM     12  C   UNL     1       0.501  12.245  19.830  0.00  0.00    +0.000 A 
ATOM     13  C   UNL     1       1.780  12.692  20.166  0.00  0.00    +0.000 A 
ATOM     14  C   UNL     1       2.231  13.937  19.723  0.00  0.00    +0.000 A 
ATOM     15  C   UNL     1       1.403  14.735  18.935  0.00  0.00    +0.000 A 
ATOM     16  C   UNL     1       0.142  14.275  18.562  0.00  0.00    +0.000 A 
ATOM     17  C   UNL     1      -0.300  13.020  18.986  0.00  0.00    +0.000 A 
ENDBRANCH  11  12
ENDBRANCH   8  11
ENDBRANCH   4   5
BRANCH   2  18
ATOM     18  C   UNL     1       4.568   4.120  17.915  0.00  0.00    +0.000 A 
ATOM     19  C   UNL     1       5.838   4.484  18.420  0.00  0.00    +0.000 A 
ATOM     20  C   UNL     1       6.942   4.701  17.588  0.00  0.00    +0.000 A 
ATOM     21  C   UNL     1       6.795   4.542  16.222  0.00  0.00    +0.000 A 
ATOM     22  C   UNL     1       5.578   4.137  15.687  0.00  0.00    +0.000 A 
ATOM     23  C   UNL     1       4.477   3.919  16.529  0.00  0.00    +0.000 A 
BRANCH  21  24
ATOM     24  O   UNL     1       7.833   4.784  15.372  0.00  0.00    +0.000 OA
ATOM     25  H   UNL     1       8.660   4.503  15.799  0.00  0.00    +0.000 HD
ENDBRANCH  21  24
ENDBRANCH   2  18
BRANCH   3  26
ATOM     26  S   UNL     1       1.606   4.832  20.614  0.00  0.00    +0.000 S 
ATOM     27  H   UNL     1       2.420   5.382  21.526  0.00  0.00    +0.000 HD
ENDBRANCH   3  26
TORSDOF 6
ENDMDL
MODEL 5
REMARK VINA RESULT:      -7.5      3.921      9.915
REMARK  Name = 
REMARK  7 active torsions:
REMARK  status: ('A' for Active; 'I' for Inactive)
REMARK    1  A    between atoms: C_1  and  N_2
REMARK    2  A    between atoms: N_2  and  C_19
REMARK    3  A    between atoms: C_3  and  S_4
REMARK    4  A    between atoms: N_5  and  C_6
REMARK    5  A    between atoms: C_9  and  O_10
REMARK    6  A    between atoms: O_10  and  C_11
REMARK    7  A    between atoms: C_22  and  O_23
REMARK                            x       y       z     vdW  Elec       q    Type
REMARK                         _______ _______ _______ _____ _____    ______ ____
ROOT
ATOM      1  C   UNL     1      -0.523  14.658  19.629  0.00  0.00    +0.000 C 
ATOM      2  N   UNL     1      -0.778  13.298  20.123  0.00  0.00    +0.000 N 
ATOM      3  C   UNL     1       0.108  12.221  19.936  0.00  0.00    +0.000 C 
ATOM      4  N   UNL     1      -0.236  10.964  20.079  0.00  0.00    +0.000 NA
ENDROOT
BRANCH   4   5
ATOM      5  C   UNL     1       0.605   9.852  19.884  0.00  0.00    +0.000 A 
ATOM      6  C   UNL     1       0.902   8.918  20.885  0.00  0.00    +0.000 A 
ATOM      7  C   UNL     1       1.724   7.817  20.632  0.00  0.00    +0.000 A 
ATOM      8  C   UNL     1       2.186   7.576  19.344  0.00  0.00    +0.000 A 
ATOM      9  C   UNL     1       1.897   8.484  18.326  0.00  0.00    +0.000 A 
ATOM     10  C   UNL     1       1.099   9.605  18.596  0.00  0.00    +0.000 A 
BRANCH   8  11
ATOM     11  O   UNL     1       2.961   6.452  19.177  0.00  0.00    +0.000 OA
BRANCH  11  12
ATOM     12  C   UNL     1       2.385   5.206  19.278  0.00  0.00    +0.000 A 
ATOM     13  C   UNL     1       1.931   4.656  18.078  0.00  0.00    +0.000 A 
ATOM     14  C   UNL     1       1.312   3.405  18.065  0.00  0.00    +0.000 A 
ATOM     15  C   UNL     1       1.153   2.696  19.256  0.00  0.00    +0.000 A 
ATOM     16  C   UNL     1       1.643   3.222  20.450  0.00  0.00    +0.000 A 
ATOM     17  C   UNL     1       2.282   4.464  20.459  0.00  0.00    +0.000 A 
ENDBRANCH  11  12
ENDBRANCH   8  11
ENDBRANCH   4   5
BRANCH   2  18
ATOM     18  C   UNL     1      -2.041  13.190  20.792  0.00  0.00    +0.000 A 
ATOM     19  C   UNL     1      -2.138  13.265  22.201  0.00  0.00    +0.000 A 
ATOM     20  C   UNL     1      -3.337  13.034  22.884  0.00  0.00    +0.000 A 
ATOM     21  C   UNL     1      -4.476  12.736  22.159  0.00  0.00    +0.000 A 
ATOM     22  C   UNL     1      -4.438  12.700  20.770  0.00  0.00    +0.000 A 
ATOM     23  C   UNL     1      -3.232  12.936  20.093  0.00  0.00    +0.000 A 
BRANCH  21  24
ATOM     24  O   UNL     1      -5.656  12.463  22.786  0.00  0.00    +0.000 OA
ATOM     25  H   UNL     1      -6.362  12.421  22.120  0.00  0.00    +0.000 HD
ENDBRANCH  21  24
ENDBRANCH   2  18
BRANCH   3  26
ATOM     26  S   UNL     1       1.776  12.670  19.479  0.00  0.00    +0.000 S 
ATOM     27  H   UNL     1       1.842  13.703  20.331  0.00  0.00    +0.000 HD
ENDBRANCH   3  26
TORSDOF 6
ENDMDL
MODEL 6
REMARK VINA RESULT:      -7.4      3.824     10.061
REMARK  Name = 
REMARK  7 active torsions:
REMARK  status: ('A' for Active; 'I' for Inactive)
REMARK    1  A    between atoms: C_1  and  N_2
REMARK    2  A    between atoms: N_2  and  C_19
REMARK    3  A    between atoms: C_3  and  S_4
REMARK    4  A    between atoms: N_5  and  C_6
REMARK    5  A    between atoms: C_9  and  O_10
REMARK    6  A    between atoms: O_10  and  C_11
REMARK    7  A    between atoms: C_22  and  O_23
REMARK                            x       y       z     vdW  Elec       q    Type
REMARK                         _______ _______ _______ _____ _____    ______ ____
ROOT
ATOM      1  C   UNL     1      -0.405  14.544  20.739  0.00  0.00    +0.000 C 
ATOM      2  N   UNL     1      -0.687  13.106  20.854  0.00  0.00    +0.000 N 
ATOM      3  C   UNL     1       0.156  12.102  20.344  0.00  0.00    +0.000 C 
ATOM      4  N   UNL     1      -0.223  10.862  20.152  0.00  0.00    +0.000 NA
ENDROOT
BRANCH   4   5
ATOM      5  C   UNL     1       0.574   9.828  19.629  0.00  0.00    +0.000 A 
ATOM      6  C   UNL     1       0.978   9.761  18.289  0.00  0.00    +0.000 A 
ATOM      7  C   UNL     1       1.792   8.724  17.825  0.00  0.00    +0.000 A 
ATOM      8  C   UNL     1       2.299   7.786  18.717  0.00  0.00    +0.000 A 
ATOM      9  C   UNL     1       1.920   7.835  20.058  0.00  0.00    +0.000 A 
ATOM     10  C   UNL     1       1.076   8.859  20.509  0.00  0.00    +0.000 A 
BRANCH   8  11
ATOM     11  O   UNL     1       3.117   6.820  18.181  0.00  0.00    +0.000 OA
BRANCH  11  12
ATOM     12  C   UNL     1       2.856   5.491  18.430  0.00  0.00    +0.000 A 
ATOM     13  C   UNL     1       3.717   4.869  19.336  0.00  0.00    +0.000 A 
ATOM     14  C   UNL     1       3.556   3.518  19.648  0.00  0.00    +0.000 A 
ATOM     15  C   UNL     1       2.527   2.787  19.057  0.00  0.00    +0.000 A 
ATOM     16  C   UNL     1       1.639   3.413  18.185  0.00  0.00    +0.000 A 
ATOM     17  C   UNL     1       1.786   4.770  17.891  0.00  0.00    +0.000 A 
ENDBRANCH  11  12
ENDBRANCH   8  11
ENDBRANCH   4   5
BRANCH   2  18
ATOM     18  C   UNL     1      -1.932  12.848  21.518  0.00  0.00    +0.000 A 
ATOM     19  C   UNL     1      -3.170  13.030  20.859  0.00  0.00    +0.000 A 
ATOM     20  C   UNL     1      -4.396  12.909  21.522  0.00  0.00    +0.000 A 
ATOM     21  C   UNL     1      -4.405  12.588  22.867  0.00  0.00    +0.000 A 
ATOM     22  C   UNL     1      -3.213  12.352  23.541  0.00  0.00    +0.000 A 
ATOM     23  C   UNL     1      -1.987  12.471  22.869  0.00  0.00    +0.000 A 
BRANCH  21  24
ATOM     24  O   UNL     1      -5.575  12.502  23.560  0.00  0.00    +0.000 OA
ATOM     25  H   UNL     1      -5.657  13.283  24.134  0.00  0.00    +0.000 HD
ENDBRANCH  21  24
ENDBRANCH   2  18
BRANCH   3  26
ATOM     26  S   UNL     1       1.822  12.622  19.960  0.00  0.00    +0.000 S 
ATOM     27  H   UNL     1       1.799  12.132  18.713  0.00  0.00    +0.000 HD
ENDBRANCH   3  26
TORSDOF 6
ENDMDL
MODEL 7
REMARK VINA RESULT:      -7.4      4.026     10.063
REMARK  Name = 
REMARK  7 active torsions:
REMARK  status: ('A' for Active; 'I' for Inactive)
REMARK    1  A    between atoms: C_1  and  N_2
REMARK    2  A    between atoms: N_2  and  C_19
REMARK    3  A    between atoms: C_3  and  S_4
REMARK    4  A    between atoms: N_5  and  C_6
REMARK    5  A    between atoms: C_9  and  O_10
REMARK    6  A    between atoms: O_10  and  C_11
REMARK    7  A    between atoms: C_22  and  O_23
REMARK                            x       y       z     vdW  Elec       q    Type
REMARK                         _______ _______ _______ _____ _____    ______ ____
ROOT
ATOM      1  C   UNL     1      -0.624  14.807  20.171  0.00  0.00    +0.000 C 
ATOM      2  N   UNL     1      -0.910  13.431  20.599  0.00  0.00    +0.000 N 
ATOM      3  C   UNL     1      -0.024  12.355  20.409  0.00  0.00    +0.000 C 
ATOM      4  N   UNL     1      -0.382  11.096  20.487  0.00  0.00    +0.000 NA
ENDROOT
BRANCH   4   5
ATOM      5  C   UNL     1       0.459   9.986  20.286  0.00  0.00    +0.000 A 
ATOM      6  C   UNL     1       0.785   9.067  21.292  0.00  0.00    +0.000 A 
ATOM      7  C   UNL     1       1.606   7.966  21.033  0.00  0.00    +0.000 A 
ATOM      8  C   UNL     1       2.036   7.710  19.737  0.00  0.00    +0.000 A 
ATOM      9  C   UNL     1       1.718   8.603  18.714  0.00  0.00    +0.000 A 
ATOM     10  C   UNL     1       0.922   9.724  18.989  0.00  0.00    +0.000 A 
BRANCH   8  11
ATOM     11  O   UNL     1       2.813   6.587  19.566  0.00  0.00    +0.000 OA
BRANCH  11  12
ATOM     12  C   UNL     1       2.210   5.368  19.350  0.00  0.00    +0.000 A 
ATOM     13  C   UNL     1       1.762   4.709  20.497  0.00  0.00    +0.000 A 
ATOM     14  C   UNL     1       1.153   3.457  20.398  0.00  0.00    +0.000 A 
ATOM     15  C   UNL     1       0.984   2.864  19.148  0.00  0.00    +0.000 A 
ATOM     16  C   UNL     1       1.390   3.536  17.997  0.00  0.00    +0.000 A 
ATOM     17  C   UNL     1       1.979   4.799  18.095  0.00  0.00    +0.000 A 
ENDBRANCH  11  12
ENDBRANCH   8  11
ENDBRANCH   4   5
BRANCH   2  18
ATOM     18  C   UNL     1      -2.203  13.308  21.207  0.00  0.00    +0.000 A 
ATOM     19  C   UNL     1      -2.346  13.099  22.598  0.00  0.00    +0.000 A 
ATOM     20  C   UNL     1      -3.587  12.848  23.194  0.00  0.00    +0.000 A 
ATOM     21  C   UNL     1      -4.719  12.815  22.402  0.00  0.00    +0.000 A 
ATOM     22  C   UNL     1      -4.630  13.063  21.037  0.00  0.00    +0.000 A 
ATOM     23  C   UNL     1      -3.383  13.318  20.447  0.00  0.00    +0.000 A 
BRANCH  21  24
ATOM     24  O   UNL     1      -5.941  12.532  22.935  0.00  0.00    +0.000 OA
ATOM     25  H   UNL     1      -6.048  13.036  23.759  0.00  0.00    +0.000 HD
ENDBRANCH  21  24
ENDBRANCH   2  18
BRANCH   3  26
ATOM     26  S   UNL     1       1.666  12.807  20.045  0.00  0.00    +0.000 S 
ATOM     27  H   UNL     1       2.116  11.545  20.055  0.00  0.00    +0.000 HD
ENDBRANCH   3  26
TORSDOF 6
ENDMDL
MODEL 8
REMARK VINA RESULT:      -7.4      0.437      1.055
REMARK  Name = 
REMARK  7 active torsions:
REMARK  status: ('A' for Active; 'I' for Inactive)
REMARK    1  A    between atoms: C_1  and  N_2
REMARK    2  A    between atoms: N_2  and  C_19
REMARK    3  A    between atoms: C_3  and  S_4
REMARK    4  A    between atoms: N_5  and  C_6
REMARK    5  A    between atoms: C_9  and  O_10
REMARK    6  A    between atoms: O_10  and  C_11
REMARK    7  A    between atoms: C_22  and  O_23
REMARK                            x       y       z     vdW  Elec       q    Type
REMARK                         _______ _______ _______ _____ _____    ______ ____
ROOT
ATOM      1  C   UNL     1       3.300   2.872  19.320  0.00  0.00    +0.000 C 
ATOM      2  N   UNL     1       3.599   4.226  18.834  0.00  0.00    +0.000 N 
ATOM      3  C   UNL     1       2.864   5.367  19.202  0.00  0.00    +0.000 C 
ATOM      4  N   UNL     1       2.907   6.502  18.548  0.00  0.00    +0.000 NA
ENDROOT
BRANCH   4   5
ATOM      5  C   UNL     1       2.178   7.663  18.863  0.00  0.00    +0.000 A 
ATOM      6  C   UNL     1       1.676   8.550  17.901  0.00  0.00    +0.000 A 
ATOM      7  C   UNL     1       0.936   9.677  18.267  0.00  0.00    +0.000 A 
ATOM      8  C   UNL     1       0.600   9.886  19.599  0.00  0.00    +0.000 A 
ATOM      9  C   UNL     1       1.078   9.013  20.576  0.00  0.00    +0.000 A 
ATOM     10  C   UNL     1       1.849   7.902  20.204  0.00  0.00    +0.000 A 
BRANCH   8  11
ATOM     11  O   UNL     1      -0.158  11.002  19.866  0.00  0.00    +0.000 OA
BRANCH  11  12
ATOM     12  C   UNL     1       0.385  12.254  19.685  0.00  0.00    +0.000 A 
ATOM     13  C   UNL     1      -0.412  13.157  18.979  0.00  0.00    +0.000 A 
ATOM     14  C   UNL     1       0.047  14.450  18.720  0.00  0.00    +0.000 A 
ATOM     15  C   UNL     1       1.305  14.844  19.174  0.00  0.00    +0.000 A 
ATOM     16  C   UNL     1       2.086  13.960  19.915  0.00  0.00    +0.000 A 
ATOM     17  C   UNL     1       1.617  12.674  20.194  0.00  0.00    +0.000 A 
ENDBRANCH  11  12
ENDBRANCH   8  11
ENDBRANCH   4   5
BRANCH   2  18
ATOM     18  C   UNL     1       4.706   4.244  17.923  0.00  0.00    +0.000 A 
ATOM     19  C   UNL     1       6.004   4.612  18.348  0.00  0.00    +0.000 A 
ATOM     20  C   UNL     1       7.071   4.762  17.456  0.00  0.00    +0.000 A 
ATOM     21  C   UNL     1       6.858   4.530  16.109  0.00  0.00    +0.000 A 
ATOM     22  C   UNL     1       5.611   4.119  15.654  0.00  0.00    +0.000 A 
ATOM     23  C   UNL     1       4.547   3.968  16.556  0.00  0.00    +0.000 A 
BRANCH  21  24
ATOM     24  O   UNL     1       7.859   4.706  15.200  0.00  0.00    +0.000 OA
ATOM     25  H   UNL     1       7.747   5.573  14.775  0.00  0.00    +0.000 HD
ENDBRANCH  21  24
ENDBRANCH   2  18
BRANCH   3  26
ATOM     26  S   UNL     1       1.837   5.183  20.653  0.00  0.00    +0.000 S 
ATOM     27  H   UNL     1       0.944   4.387  20.047  0.00  0.00    +0.000 HD
ENDBRANCH   3  26
TORSDOF 6
ENDMDL
MODEL 9
REMARK VINA RESULT:      -7.4      3.765      9.979
REMARK  Name = 
REMARK  7 active torsions:
REMARK  status: ('A' for Active; 'I' for Inactive)
REMARK    1  A    between atoms: C_1  and  N_2
REMARK    2  A    between atoms: N_2  and  C_19
REMARK    3  A    between atoms: C_3  and  S_4
REMARK    4  A    between atoms: N_5  and  C_6
REMARK    5  A    between atoms: C_9  and  O_10
REMARK    6  A    between atoms: O_10  and  C_11
REMARK    7  A    between atoms: C_22  and  O_23
REMARK                            x       y       z     vdW  Elec       q    Type
REMARK                         _______ _______ _______ _____ _____    ______ ____
ROOT
ATOM      1  C   UNL     1      -0.635  14.542  19.455  0.00  0.00    +0.000 C 
ATOM      2  N   UNL     1      -0.888  13.205  20.010  0.00  0.00    +0.000 N 
ATOM      3  C   UNL     1      -0.024  12.109  19.831  0.00  0.00    +0.000 C 
ATOM      4  N   UNL     1      -0.377  10.863  20.035  0.00  0.00    +0.000 NA
ENDROOT
BRANCH   4   5
ATOM      5  C   UNL     1       0.441   9.734  19.852  0.00  0.00    +0.000 A 
ATOM      6  C   UNL     1       1.084   9.427  18.645  0.00  0.00    +0.000 A 
ATOM      7  C   UNL     1       1.907   8.305  18.524  0.00  0.00    +0.000 A 
ATOM      8  C   UNL     1       2.182   7.521  19.638  0.00  0.00    +0.000 A 
ATOM      9  C   UNL     1       1.563   7.809  20.854  0.00  0.00    +0.000 A 
ATOM     10  C   UNL     1       0.711   8.918  20.959  0.00  0.00    +0.000 A 
BRANCH   8  11
ATOM     11  O   UNL     1       3.027   6.455  19.437  0.00  0.00    +0.000 OA
BRANCH  11  12
ATOM     12  C   UNL     1       2.509   5.235  19.065  0.00  0.00    +0.000 A 
ATOM     13  C   UNL     1       1.699   4.612  20.017  0.00  0.00    +0.000 A 
ATOM     14  C   UNL     1       1.136   3.362  19.754  0.00  0.00    +0.000 A 
ATOM     15  C   UNL     1       1.377   2.735  18.533  0.00  0.00    +0.000 A 
ATOM     16  C   UNL     1       2.149   3.371  17.563  0.00  0.00    +0.000 A 
ATOM     17  C   UNL     1       2.694   4.631  17.818  0.00  0.00    +0.000 A 
ENDBRANCH  11  12
ENDBRANCH   8  11
ENDBRANCH   4   5
BRANCH   2  18
ATOM     18  C   UNL     1      -2.126  13.141  20.729  0.00  0.00    +0.000 A 
ATOM     19  C   UNL     1      -2.167  13.262  22.138  0.00  0.00    +0.000 A 
ATOM     20  C   UNL     1      -3.343  13.074  22.872  0.00  0.00    +0.000 A 
ATOM     21  C   UNL     1      -4.514  12.773  22.201  0.00  0.00    +0.000 A 
ATOM     22  C   UNL     1      -4.529  12.692  20.814  0.00  0.00    +0.000 A 
ATOM     23  C   UNL     1      -3.347  12.885  20.084  0.00  0.00    +0.000 A 
BRANCH  21  24
ATOM     24  O   UNL     1      -5.673  12.541  22.881  0.00  0.00    +0.000 OA
ATOM     25  H   UNL     1      -6.017  11.668  22.625  0.00  0.00    +0.000 HD
ENDBRANCH  21  24
ENDBRANCH   2  18
BRANCH   3  26
ATOM     26  S   UNL     1       1.631  12.517  19.295  0.00  0.00    +0.000 S 
ATOM     27  H   UNL     1       1.672  11.568  18.350  0.00  0.00    +0.000 HD
ENDBRANCH   3  26
TORSDOF 6
ENDMDL
