MODEL 1
REMARK VINA RESULT:      -7.2      0.000      0.000
REMARK  Name = 
REMARK  6 active torsions:
REMARK  status: ('A' for Active; 'I' for Inactive)
REMARK    1  A    between atoms: C_1  and  C_2
REMARK    2  A    between atoms: N_9  and  C_10
REMARK    3  A    between atoms: C_10  and  C_11
REMARK    4  A    between atoms: C_18  and  C_19
REMARK    5  A    between atoms: N_23  and  C_24
REMARK    6  A    between atoms: C_24  and  C_25
REMARK                            x       y       z     vdW  Elec       q    Type
REMARK                         _______ _______ _______ _____ _____    ______ ____
ROOT
ATOM      1  C   UNL     1      -0.911  10.338  18.015  0.00  0.00    +0.000 C 
ATOM      2  C   UNL     1      -0.814  11.385  19.140  0.00  0.00    +0.000 C 
ATOM      3  C   UNL     1      -0.679  10.858  20.575  0.00  0.00    +0.000 A 
ATOM      4  C   UNL     1      -0.111   9.599  20.838  0.00  0.00    +0.000 A 
ATOM      5  C   UNL     1      -0.042   9.100  22.138  0.00  0.00    +0.000 A 
ATOM      6  C   UNL     1      -0.534   9.853  23.196  0.00  0.00    +0.000 A 
ATOM      7  C   UNL     1      -1.074  11.116  22.956  0.00  0.00    +0.000 A 
ATOM      8  C   UNL     1      -1.141  11.651  21.660  0.00  0.00    +0.000 A 
ATOM      9  N   UNL     1      -1.551  12.964  21.459  0.00  0.00    +0.000 N 
ATOM     10  C   UNL     1      -0.529  13.864  20.921  0.00  0.00    +0.000 C 
ATOM     11  C   UNL     1      -0.499  13.808  19.381  0.00  0.00    +0.000 C 
ATOM     12  C   UNL     1      -0.169  15.183  18.764  0.00  0.00    +0.000 C 
ATOM     13  N   UNL     1       0.119  12.525  18.892  0.00  0.00    +0.000 N 
ATOM     14  C   UNL     1       1.435  12.129  18.737  0.00  0.00    +0.000 C 
ATOM     15  O   UNL     1       1.756  10.985  18.397  0.00  0.00    +0.000 OA
ATOM     16  N   UNL     1       2.487  12.939  18.944  0.00  0.00    +0.000 N 
ATOM     17  H   UNL     1       3.364  12.471  18.742  0.00  0.00    +0.000 HD
ENDROOT
BRANCH   9  18
ATOM     18  C   UNL     1      -2.825  13.491  21.940  0.00  0.00    +0.000 C 
BRANCH  18  19
ATOM     19  C   UNL     1      -4.029  12.922  21.221  0.00  0.00    +0.000 A 
ATOM     20  C   UNL     1      -3.992  12.597  19.856  0.00  0.00    +0.000 A 
ATOM     21  C   UNL     1      -5.143  12.189  19.185  0.00  0.00    +0.000 A 
ATOM     22  C   UNL     1      -6.338  12.050  19.881  0.00  0.00    +0.000 A 
ATOM     23  C   UNL     1      -6.376  12.293  21.252  0.00  0.00    +0.000 A 
ATOM     24  C   UNL     1      -5.230  12.724  21.919  0.00  0.00    +0.000 A 
ENDBRANCH  18  19
ENDBRANCH   9  18
BRANCH  16  25
ATOM     25  C   UNL     1       2.536  14.314  19.258  0.00  0.00    +0.000 C 
BRANCH  25  26
ATOM     26  C   UNL     1       3.808  15.032  18.974  0.00  0.00    +0.000 A 
ATOM     27  C   UNL     1       4.165  16.156  19.710  0.00  0.00    +0.000 A 
ATOM     28  C   UNL     1       5.426  16.719  19.540  0.00  0.00    +0.000 A 
ATOM     29  C   UNL     1       6.326  16.153  18.638  0.00  0.00    +0.000 A 
ATOM     30  C   UNL     1       5.977  15.019  17.906  0.00  0.00    +0.000 A 
ATOM     31  C   UNL     1       4.716  14.459  18.067  0.00  0.00    +0.000 A 
ENDBRANCH  25  26
ENDBRANCH  16  25
TORSDOF 4
ENDMDL
MODEL 2
REMARK VINA RESULT:      -7.1      2.222      5.866
REMARK  Name = 
REMARK  6 active torsions:
REMARK  status: ('A' for Active; 'I' for Inactive)
REMARK    1  A    between atoms: C_1  and  C_2
REMARK    2  A    between atoms: N_9  and  C_10
REMARK    3  A    between atoms: C_10  and  C_11
REMARK    4  A    between atoms: C_18  and  C_19
REMARK    5  A    between atoms: N_23  and  C_24
REMARK    6  A    between atoms: C_24  and  C_25
REMARK                            x       y       z     vdW  Elec       q    Type
REMARK                         _______ _______ _______ _____ _____    ______ ____
ROOT
ATOM      1  C   UNL     1       2.930  13.996  20.715  0.00  0.00    +0.000 C 
ATOM      2  C   UNL     1       1.396  13.877  20.770  0.00  0.00    +0.000 C 
ATOM      3  C   UNL     1       0.584  15.009  20.126  0.00  0.00    +0.000 A 
ATOM      4  C   UNL     1       1.117  15.784  19.081  0.00  0.00    +0.000 A 
ATOM      5  C   UNL     1       0.397  16.847  18.537  0.00  0.00    +0.000 A 
ATOM      6  C   UNL     1      -0.867  17.149  19.024  0.00  0.00    +0.000 A 
ATOM      7  C   UNL     1      -1.422  16.373  20.041  0.00  0.00    +0.000 A 
ATOM      8  C   UNL     1      -0.728  15.286  20.596  0.00  0.00    +0.000 A 
ATOM      9  N   UNL     1      -1.352  14.440  21.506  0.00  0.00    +0.000 N 
ATOM     10  C   UNL     1      -1.546  13.063  21.050  0.00  0.00    +0.000 C 
ATOM     11  C   UNL     1      -0.303  12.202  21.349  0.00  0.00    +0.000 C 
ATOM     12  C   UNL     1      -0.684  10.753  21.713  0.00  0.00    +0.000 C 
ATOM     13  N   UNL     1       0.833  12.539  20.420  0.00  0.00    +0.000 N 
ATOM     14  C   UNL     1       1.117  12.150  19.124  0.00  0.00    +0.000 C 
ATOM     15  O   UNL     1       2.067  12.605  18.479  0.00  0.00    +0.000 OA
ATOM     16  N   UNL     1       0.391  11.250  18.439  0.00  0.00    +0.000 N 
ATOM     17  H   UNL     1       0.783  11.076  17.520  0.00  0.00    +0.000 HD
ENDROOT
BRANCH   9  18
ATOM     18  C   UNL     1      -1.976  14.909  22.740  0.00  0.00    +0.000 C 
BRANCH  18  19
ATOM     19  C   UNL     1      -3.256  14.182  23.091  0.00  0.00    +0.000 A 
ATOM     20  C   UNL     1      -4.477  14.491  22.472  0.00  0.00    +0.000 A 
ATOM     21  C   UNL     1      -5.665  13.896  22.891  0.00  0.00    +0.000 A 
ATOM     22  C   UNL     1      -5.642  12.944  23.904  0.00  0.00    +0.000 A 
ATOM     23  C   UNL     1      -4.430  12.568  24.478  0.00  0.00    +0.000 A 
ATOM     24  C   UNL     1      -3.243  13.180  24.073  0.00  0.00    +0.000 A 
ENDBRANCH  18  19
ENDBRANCH   9  18
BRANCH  16  25
ATOM     25  C   UNL     1      -0.705  10.458  18.844  0.00  0.00    +0.000 C 
BRANCH  25  26
ATOM     26  C   UNL     1      -1.926  10.500  17.994  0.00  0.00    +0.000 A 
ATOM     27  C   UNL     1      -2.986  11.337  18.321  0.00  0.00    +0.000 A 
ATOM     28  C   UNL     1      -4.048  11.482  17.434  0.00  0.00    +0.000 A 
ATOM     29  C   UNL     1      -4.044  10.792  16.222  0.00  0.00    +0.000 A 
ATOM     30  C   UNL     1      -2.977   9.960  15.885  0.00  0.00    +0.000 A 
ATOM     31  C   UNL     1      -1.919   9.807  16.771  0.00  0.00    +0.000 A 
ENDBRANCH  25  26
ENDBRANCH  16  25
TORSDOF 4
ENDMDL
MODEL 3
REMARK VINA RESULT:      -7.1      0.119      1.252
REMARK  Name = 
REMARK  6 active torsions:
REMARK  status: ('A' for Active; 'I' for Inactive)
REMARK    1  A    between atoms: C_1  and  C_2
REMARK    2  A    between atoms: N_9  and  C_10
REMARK    3  A    between atoms: C_10  and  C_11
REMARK    4  A    between atoms: C_18  and  C_19
REMARK    5  A    between atoms: N_23  and  C_24
REMARK    6  A    between atoms: C_24  and  C_25
REMARK                            x       y       z     vdW  Elec       q    Type
REMARK                         _______ _______ _______ _____ _____    ______ ____
ROOT
ATOM      1  C   UNL     1      -0.983  10.328  18.025  0.00  0.00    +0.000 C 
ATOM      2  C   UNL     1      -0.868  11.377  19.146  0.00  0.00    +0.000 C 
ATOM      3  C   UNL     1      -0.725  10.852  20.581  0.00  0.00    +0.000 A 
ATOM      4  C   UNL     1      -0.167   9.588  20.843  0.00  0.00    +0.000 A 
ATOM      5  C   UNL     1      -0.092   9.092  22.144  0.00  0.00    +0.000 A 
ATOM      6  C   UNL     1      -0.568   9.852  23.204  0.00  0.00    +0.000 A 
ATOM      7  C   UNL     1      -1.099  11.119  22.965  0.00  0.00    +0.000 A 
ATOM      8  C   UNL     1      -1.172  11.652  21.668  0.00  0.00    +0.000 A 
ATOM      9  N   UNL     1      -1.571  12.968  21.467  0.00  0.00    +0.000 N 
ATOM     10  C   UNL     1      -0.545  13.857  20.919  0.00  0.00    +0.000 C 
ATOM     11  C   UNL     1      -0.528  13.798  19.379  0.00  0.00    +0.000 C 
ATOM     12  C   UNL     1      -0.192  15.167  18.756  0.00  0.00    +0.000 C 
ATOM     13  N   UNL     1       0.074  12.507  18.888  0.00  0.00    +0.000 N 
ATOM     14  C   UNL     1       1.385  12.099  18.723  0.00  0.00    +0.000 C 
ATOM     15  O   UNL     1       1.693  10.952  18.384  0.00  0.00    +0.000 OA
ATOM     16  N   UNL     1       2.445  12.900  18.920  0.00  0.00    +0.000 N 
ATOM     17  H   UNL     1       3.317  12.423  18.712  0.00  0.00    +0.000 HD
ENDROOT
BRANCH   9  18
ATOM     18  C   UNL     1      -2.837  13.507  21.957  0.00  0.00    +0.000 C 
BRANCH  18  19
ATOM     19  C   UNL     1      -4.050  12.975  21.225  0.00  0.00    +0.000 A 
ATOM     20  C   UNL     1      -5.272  12.756  21.879  0.00  0.00    +0.000 A 
ATOM     21  C   UNL     1      -6.341  12.154  21.218  0.00  0.00    +0.000 A 
ATOM     22  C   UNL     1      -6.219  11.808  19.878  0.00  0.00    +0.000 A 
ATOM     23  C   UNL     1      -5.040  12.087  19.192  0.00  0.00    +0.000 A 
ATOM     24  C   UNL     1      -3.962  12.669  19.859  0.00  0.00    +0.000 A 
ENDBRANCH  18  19
ENDBRANCH   9  18
BRANCH  16  25
ATOM     25  C   UNL     1       2.509  14.276  19.230  0.00  0.00    +0.000 C 
BRANCH  25  26
ATOM     26  C   UNL     1       3.833  14.942  19.097  0.00  0.00    +0.000 A 
ATOM     27  C   UNL     1       4.781  14.459  18.204  0.00  0.00    +0.000 A 
ATOM     28  C   UNL     1       5.948  15.183  17.977  0.00  0.00    +0.000 A 
ATOM     29  C   UNL     1       6.158  16.391  18.642  0.00  0.00    +0.000 A 
ATOM     30  C   UNL     1       5.205  16.885  19.531  0.00  0.00    +0.000 A 
ATOM     31  C   UNL     1       4.044  16.161  19.766  0.00  0.00    +0.000 A 
ENDBRANCH  25  26
ENDBRANCH  16  25
TORSDOF 4
ENDMDL
MODEL 4
REMARK VINA RESULT:      -7.0      2.500      5.452
REMARK  Name = 
REMARK  6 active torsions:
REMARK  status: ('A' for Active; 'I' for Inactive)
REMARK    1  A    between atoms: C_1  and  C_2
REMARK    2  A    between atoms: N_9  and  C_10
REMARK    3  A    between atoms: C_10  and  C_11
REMARK    4  A    between atoms: C_18  and  C_19
REMARK    5  A    between atoms: N_23  and  C_24
REMARK    6  A    between atoms: C_24  and  C_25
REMARK                            x       y       z     vdW  Elec       q    Type
REMARK                         _______ _______ _______ _____ _____    ______ ____
ROOT
ATOM      1  C   UNL     1      -1.268  11.994  22.637  0.00  0.00    +0.000 C 
ATOM      2  C   UNL     1      -0.638  12.223  21.252  0.00  0.00    +0.000 C 
ATOM      3  C   UNL     1      -1.546  12.028  20.030  0.00  0.00    +0.000 A 
ATOM      4  C   UNL     1      -2.938  12.197  20.123  0.00  0.00    +0.000 A 
ATOM      5  C   UNL     1      -3.764  11.963  19.024  0.00  0.00    +0.000 A 
ATOM      6  C   UNL     1      -3.212  11.560  17.815  0.00  0.00    +0.000 A 
ATOM      7  C   UNL     1      -1.830  11.414  17.698  0.00  0.00    +0.000 A 
ATOM      8  C   UNL     1      -0.973  11.660  18.782  0.00  0.00    +0.000 A 
ATOM      9  N   UNL     1       0.407  11.648  18.608  0.00  0.00    +0.000 N 
ATOM     10  C   UNL     1       1.075  12.935  18.811  0.00  0.00    +0.000 C 
ATOM     11  C   UNL     1       1.428  13.145  20.296  0.00  0.00    +0.000 C 
ATOM     12  C   UNL     1       2.757  13.908  20.467  0.00  0.00    +0.000 C 
ATOM     13  N   UNL     1       0.200  13.453  21.112  0.00  0.00    +0.000 N 
ATOM     14  C   UNL     1      -0.509  14.622  21.317  0.00  0.00    +0.000 C 
ATOM     15  O   UNL     1      -1.562  14.665  21.962  0.00  0.00    +0.000 OA
ATOM     16  N   UNL     1      -0.131  15.817  20.834  0.00  0.00    +0.000 N 
ATOM     17  H   UNL     1      -0.765  16.555  21.123  0.00  0.00    +0.000 HD
ENDROOT
BRANCH   9  18
ATOM     18  C   UNL     1       1.136  10.512  18.051  0.00  0.00    +0.000 C 
BRANCH  18  19
ATOM     19  C   UNL     1       1.291   9.357  19.017  0.00  0.00    +0.000 A 
ATOM     20  C   UNL     1       0.728   9.384  20.302  0.00  0.00    +0.000 A 
ATOM     21  C   UNL     1       0.982   8.366  21.218  0.00  0.00    +0.000 A 
ATOM     22  C   UNL     1       1.763   7.279  20.846  0.00  0.00    +0.000 A 
ATOM     23  C   UNL     1       2.267   7.196  19.550  0.00  0.00    +0.000 A 
ATOM     24  C   UNL     1       2.031   8.226  18.639  0.00  0.00    +0.000 A 
ENDBRANCH  18  19
ENDBRANCH   9  18
BRANCH  16  25
ATOM     25  C   UNL     1       1.032  16.194  20.127  0.00  0.00    +0.000 C 
BRANCH  25  26
ATOM     26  C   UNL     1       0.843  16.852  18.807  0.00  0.00    +0.000 A 
ATOM     27  C   UNL     1      -0.397  17.365  18.443  0.00  0.00    +0.000 A 
ATOM     28  C   UNL     1      -0.518  18.114  17.278  0.00  0.00    +0.000 A 
ATOM     29  C   UNL     1       0.602  18.352  16.482  0.00  0.00    +0.000 A 
ATOM     30  C   UNL     1       1.850  17.850  16.848  0.00  0.00    +0.000 A 
ATOM     31  C   UNL     1       1.974  17.094  18.006  0.00  0.00    +0.000 A 
ENDBRANCH  25  26
ENDBRANCH  16  25
TORSDOF 4
ENDMDL
MODEL 5
REMARK VINA RESULT:      -7.0      2.506      5.448
REMARK  Name = 
REMARK  6 active torsions:
REMARK  status: ('A' for Active; 'I' for Inactive)
REMARK    1  A    between atoms: C_1  and  C_2
REMARK    2  A    between atoms: N_9  and  C_10
REMARK    3  A    between atoms: C_10  and  C_11
REMARK    4  A    between atoms: C_18  and  C_19
REMARK    5  A    between atoms: N_23  and  C_24
REMARK    6  A    between atoms: C_24  and  C_25
REMARK                            x       y       z     vdW  Elec       q    Type
REMARK                         _______ _______ _______ _____ _____    ______ ____
ROOT
ATOM      1  C   UNL     1      -1.450  11.890  22.446  0.00  0.00    +0.000 C 
ATOM      2  C   UNL     1      -0.794  12.076  21.066  0.00  0.00    +0.000 C 
ATOM      3  C   UNL     1      -1.691  11.886  19.835  0.00  0.00    +0.000 A 
ATOM      4  C   UNL     1      -3.079  12.099  19.905  0.00  0.00    +0.000 A 
ATOM      5  C   UNL     1      -3.896  11.871  18.799  0.00  0.00    +0.000 A 
ATOM      6  C   UNL     1      -3.340  11.430  17.605  0.00  0.00    +0.000 A 
ATOM      7  C   UNL     1      -1.962  11.241  17.511  0.00  0.00    +0.000 A 
ATOM      8  C   UNL     1      -1.112  11.480  18.602  0.00  0.00    +0.000 A 
ATOM      9  N   UNL     1       0.268  11.424  18.447  0.00  0.00    +0.000 N 
ATOM     10  C   UNL     1       0.972  12.693  18.638  0.00  0.00    +0.000 C 
ATOM     11  C   UNL     1       1.311  12.919  20.124  0.00  0.00    +0.000 C 
ATOM     12  C   UNL     1       2.660  13.644  20.300  0.00  0.00    +0.000 C 
ATOM     13  N   UNL     1       0.082  13.277  20.917  0.00  0.00    +0.000 N 
ATOM     14  C   UNL     1      -0.594  14.471  21.092  0.00  0.00    +0.000 C 
ATOM     15  O   UNL     1      -1.653  14.556  21.721  0.00  0.00    +0.000 OA
ATOM     16  N   UNL     1      -0.173  15.646  20.594  0.00  0.00    +0.000 N 
ATOM     17  H   UNL     1      -0.788  16.407  20.862  0.00  0.00    +0.000 HD
ENDROOT
BRANCH   9  18
ATOM     18  C   UNL     1       0.970  10.256  17.921  0.00  0.00    +0.000 C 
BRANCH  18  19
ATOM     19  C   UNL     1       1.289   9.213  18.970  0.00  0.00    +0.000 A 
ATOM     20  C   UNL     1       2.118   8.115  18.694  0.00  0.00    +0.000 A 
ATOM     21  C   UNL     1       2.304   7.103  19.633  0.00  0.00    +0.000 A 
ATOM     22  C   UNL     1       1.704   7.200  20.883  0.00  0.00    +0.000 A 
ATOM     23  C   UNL     1       0.940   8.320  21.203  0.00  0.00    +0.000 A 
ATOM     24  C   UNL     1       0.736   9.322  20.254  0.00  0.00    +0.000 A 
ENDBRANCH  18  19
ENDBRANCH   9  18
BRANCH  16  25
ATOM     25  C   UNL     1       1.011  15.974  19.898  0.00  0.00    +0.000 C 
BRANCH  25  26
ATOM     26  C   UNL     1       0.883  16.898  18.738  0.00  0.00    +0.000 A 
ATOM     27  C   UNL     1       1.971  17.145  17.909  0.00  0.00    +0.000 A 
ATOM     28  C   UNL     1       1.795  17.883  16.742  0.00  0.00    +0.000 A 
ATOM     29  C   UNL     1       0.530  18.367  16.408  0.00  0.00    +0.000 A 
ATOM     30  C   UNL     1      -0.566  18.112  17.231  0.00  0.00    +0.000 A 
ATOM     31  C   UNL     1      -0.393  17.383  18.400  0.00  0.00    +0.000 A 
ENDBRANCH  25  26
ENDBRANCH  16  25
TORSDOF 4
ENDMDL
MODEL 6
REMARK VINA RESULT:      -6.9      0.975      1.415
REMARK  Name = 
REMARK  6 active torsions:
REMARK  status: ('A' for Active; 'I' for Inactive)
REMARK    1  A    between atoms: C_1  and  C_2
REMARK    2  A    between atoms: N_9  and  C_10
REMARK    3  A    between atoms: C_10  and  C_11
REMARK    4  A    between atoms: C_18  and  C_19
REMARK    5  A    between atoms: N_23  and  C_24
REMARK    6  A    between atoms: C_24  and  C_25
REMARK                            x       y       z     vdW  Elec       q    Type
REMARK                         _______ _______ _______ _____ _____    ______ ____
ROOT
ATOM      1  C   UNL     1      -1.005  10.252  18.031  0.00  0.00    +0.000 C 
ATOM      2  C   UNL     1      -0.861  11.302  19.147  0.00  0.00    +0.000 C 
ATOM      3  C   UNL     1      -0.705  10.780  20.582  0.00  0.00    +0.000 A 
ATOM      4  C   UNL     1      -0.159   9.511  20.839  0.00  0.00    +0.000 A 
ATOM      5  C   UNL     1      -0.072   9.018  22.141  0.00  0.00    +0.000 A 
ATOM      6  C   UNL     1      -0.524   9.787  23.205  0.00  0.00    +0.000 A 
ATOM      7  C   UNL     1      -1.042  11.059  22.969  0.00  0.00    +0.000 A 
ATOM      8  C   UNL     1      -1.126  11.589  21.672  0.00  0.00    +0.000 A 
ATOM      9  N   UNL     1      -1.512  12.910  21.472  0.00  0.00    +0.000 N 
ATOM     10  C   UNL     1      -0.483  13.784  20.907  0.00  0.00    +0.000 C 
ATOM     11  C   UNL     1      -0.489  13.720  19.367  0.00  0.00    +0.000 C 
ATOM     12  C   UNL     1      -0.144  15.083  18.735  0.00  0.00    +0.000 C 
ATOM     13  N   UNL     1       0.091  12.421  18.872  0.00  0.00    +0.000 N 
ATOM     14  C   UNL     1       1.394  11.996  18.690  0.00  0.00    +0.000 C 
ATOM     15  O   UNL     1       1.683  10.844  18.350  0.00  0.00    +0.000 OA
ATOM     16  N   UNL     1       2.467  12.784  18.869  0.00  0.00    +0.000 N 
ATOM     17  H   UNL     1       3.329  12.296  18.651  0.00  0.00    +0.000 HD
ENDROOT
BRANCH   9  18
ATOM     18  C   UNL     1      -2.764  13.466  21.979  0.00  0.00    +0.000 C 
BRANCH  18  19
ATOM     19  C   UNL     1      -3.995  12.928  21.282  0.00  0.00    +0.000 A 
ATOM     20  C   UNL     1      -3.996  12.621  19.913  0.00  0.00    +0.000 A 
ATOM     21  C   UNL     1      -5.170  12.242  19.264  0.00  0.00    +0.000 A 
ATOM     22  C   UNL     1      -6.350  12.115  19.987  0.00  0.00    +0.000 A 
ATOM     23  C   UNL     1      -6.352  12.341  21.361  0.00  0.00    +0.000 A 
ATOM     24  C   UNL     1      -5.181  12.742  22.006  0.00  0.00    +0.000 A 
ENDBRANCH  18  19
ENDBRANCH   9  18
BRANCH  16  25
ATOM     25  C   UNL     1       2.552  14.160  19.174  0.00  0.00    +0.000 C 
BRANCH  25  26
ATOM     26  C   UNL     1       3.548  14.568  20.202  0.00  0.00    +0.000 A 
ATOM     27  C   UNL     1       4.822  14.979  19.828  0.00  0.00    +0.000 A 
ATOM     28  C   UNL     1       5.684  15.506  20.784  0.00  0.00    +0.000 A 
ATOM     29  C   UNL     1       5.267  15.623  22.110  0.00  0.00    +0.000 A 
ATOM     30  C   UNL     1       3.987  15.222  22.488  0.00  0.00    +0.000 A 
ATOM     31  C   UNL     1       3.126  14.688  21.538  0.00  0.00    +0.000 A 
ENDBRANCH  25  26
ENDBRANCH  16  25
TORSDOF 4
ENDMDL
MODEL 7
REMARK VINA RESULT:      -6.9      0.990      1.498
REMARK  Name = 
REMARK  6 active torsions:
REMARK  status: ('A' for Active; 'I' for Inactive)
REMARK    1  A    between atoms: C_1  and  C_2
REMARK    2  A    between atoms: N_9  and  C_10
REMARK    3  A    between atoms: C_10  and  C_11
REMARK    4  A    between atoms: C_18  and  C_19
REMARK    5  A    between atoms: N_23  and  C_24
REMARK    6  A    between atoms: C_24  and  C_25
REMARK                            x       y       z     vdW  Elec       q    Type
REMARK                         _______ _______ _______ _____ _____    ______ ____
ROOT
ATOM      1  C   UNL     1      -0.873  10.105  17.990  0.00  0.00    +0.000 C 
ATOM      2  C   UNL     1      -0.758  11.174  19.092  0.00  0.00    +0.000 C 
ATOM      3  C   UNL     1      -0.596  10.676  20.534  0.00  0.00    +0.000 A 
ATOM      4  C   UNL     1      -0.022   9.423  20.812  0.00  0.00    +0.000 A 
ATOM      5  C   UNL     1       0.072   8.951  22.121  0.00  0.00    +0.000 A 
ATOM      6  C   UNL     1      -0.402   9.725  23.173  0.00  0.00    +0.000 A 
ATOM      7  C   UNL     1      -0.949  10.981  22.917  0.00  0.00    +0.000 A 
ATOM      8  C   UNL     1      -1.040  11.490  21.611  0.00  0.00    +0.000 A 
ATOM      9  N   UNL     1      -1.456  12.799  21.391  0.00  0.00    +0.000 N 
ATOM     10  C   UNL     1      -0.445  13.688  20.817  0.00  0.00    +0.000 C 
ATOM     11  C   UNL     1      -0.442  13.602  19.278  0.00  0.00    +0.000 C 
ATOM     12  C   UNL     1      -0.127  14.964  18.628  0.00  0.00    +0.000 C 
ATOM     13  N   UNL     1       0.169  12.310  18.804  0.00  0.00    +0.000 N 
ATOM     14  C   UNL     1       1.482  11.913  18.633  0.00  0.00    +0.000 C 
ATOM     15  O   UNL     1       1.799  10.763  18.311  0.00  0.00    +0.000 OA
ATOM     16  N   UNL     1       2.536  12.728  18.805  0.00  0.00    +0.000 N 
ATOM     17  H   UNL     1       3.410  12.257  18.598  0.00  0.00    +0.000 HD
ENDROOT
BRANCH   9  18
ATOM     18  C   UNL     1      -2.722  13.333  21.885  0.00  0.00    +0.000 C 
BRANCH  18  19
ATOM     19  C   UNL     1      -3.927  12.875  21.091  0.00  0.00    +0.000 A 
ATOM     20  C   UNL     1      -5.194  12.743  21.678  0.00  0.00    +0.000 A 
ATOM     21  C   UNL     1      -6.264  12.207  20.964  0.00  0.00    +0.000 A 
ATOM     22  C   UNL     1      -6.093  11.842  19.634  0.00  0.00    +0.000 A 
ATOM     23  C   UNL     1      -4.863  12.037  19.011  0.00  0.00    +0.000 A 
ATOM     24  C   UNL     1      -3.786  12.553  19.733  0.00  0.00    +0.000 A 
ENDBRANCH  18  19
ENDBRANCH   9  18
BRANCH  16  25
ATOM     25  C   UNL     1       2.588  14.110  19.091  0.00  0.00    +0.000 C 
BRANCH  25  26
ATOM     26  C   UNL     1       3.613  14.563  20.070  0.00  0.00    +0.000 A 
ATOM     27  C   UNL     1       3.510  14.217  21.412  0.00  0.00    +0.000 A 
ATOM     28  C   UNL     1       4.554  14.514  22.282  0.00  0.00    +0.000 A 
ATOM     29  C   UNL     1       5.699  15.152  21.806  0.00  0.00    +0.000 A 
ATOM     30  C   UNL     1       5.811  15.491  20.458  0.00  0.00    +0.000 A 
ATOM     31  C   UNL     1       4.768  15.204  19.588  0.00  0.00    +0.000 A 
ENDBRANCH  25  26
ENDBRANCH  16  25
TORSDOF 4
ENDMDL
MODEL 8
REMARK VINA RESULT:      -6.9      2.886      5.553
REMARK  Name = 
REMARK  6 active torsions:
REMARK  status: ('A' for Active; 'I' for Inactive)
REMARK    1  A    between atoms: C_1  and  C_2
REMARK    2  A    between atoms: N_9  and  C_10
REMARK    3  A    between atoms: C_10  and  C_11
REMARK    4  A    between atoms: C_18  and  C_19
REMARK    5  A    between atoms: N_23  and  C_24
REMARK    6  A    between atoms: C_24  and  C_25
REMARK                            x       y       z     vdW  Elec       q    Type
REMARK                         _______ _______ _______ _____ _____    ______ ____
ROOT
ATOM      1  C   UNL     1      -4.800  12.903  21.878  0.00  0.00    +0.000 C 
ATOM      2  C   UNL     1      -3.600  12.770  20.923  0.00  0.00    +0.000 C 
ATOM      3  C   UNL     1      -3.901  12.360  19.475  0.00  0.00    +0.000 A 
ATOM      4  C   UNL     1      -5.146  12.635  18.884  0.00  0.00    +0.000 A 
ATOM      5  C   UNL     1      -5.435  12.210  17.588  0.00  0.00    +0.000 A 
ATOM      6  C   UNL     1      -4.483  11.508  16.860  0.00  0.00    +0.000 A 
ATOM      7  C   UNL     1      -3.232  11.251  17.422  0.00  0.00    +0.000 A 
ATOM      8  C   UNL     1      -2.907  11.682  18.717  0.00  0.00    +0.000 A 
ATOM      9  N   UNL     1      -1.612  11.542  19.204  0.00  0.00    +0.000 N 
ATOM     10  C   UNL     1      -0.903  12.795  19.466  0.00  0.00    +0.000 C 
ATOM     11  C   UNL     1      -1.206  13.316  20.885  0.00  0.00    +0.000 C 
ATOM     12  C   UNL     1       0.019  14.010  21.513  0.00  0.00    +0.000 C 
ATOM     13  N   UNL     1      -2.599  13.879  20.974  0.00  0.00    +0.000 N 
ATOM     14  C   UNL     1      -3.128  15.107  20.622  0.00  0.00    +0.000 C 
ATOM     15  O   UNL     1      -4.335  15.363  20.691  0.00  0.00    +0.000 OA
ATOM     16  N   UNL     1      -2.390  16.134  20.169  0.00  0.00    +0.000 N 
ATOM     17  H   UNL     1      -2.959  16.957  20.001  0.00  0.00    +0.000 HD
ENDROOT
BRANCH   9  18
ATOM     18  C   UNL     1      -0.907  10.264  19.253  0.00  0.00    +0.000 C 
BRANCH  18  19
ATOM     19  C   UNL     1      -0.288   9.962  20.601  0.00  0.00    +0.000 A 
ATOM     20  C   UNL     1       0.947   9.304  20.718  0.00  0.00    +0.000 A 
ATOM     21  C   UNL     1       1.443   8.927  21.964  0.00  0.00    +0.000 A 
ATOM     22  C   UNL     1       0.736   9.248  23.116  0.00  0.00    +0.000 A 
ATOM     23  C   UNL     1      -0.453   9.968  23.025  0.00  0.00    +0.000 A 
ATOM     24  C   UNL     1      -0.961  10.325  21.776  0.00  0.00    +0.000 A 
ENDBRANCH  18  19
ENDBRANCH   9  18
BRANCH  16  25
ATOM     25  C   UNL     1      -0.991  16.264  20.026  0.00  0.00    +0.000 C 
BRANCH  25  26
ATOM     26  C   UNL     1      -0.495  16.974  18.816  0.00  0.00    +0.000 A 
ATOM     27  C   UNL     1      -1.317  17.859  18.128  0.00  0.00    +0.000 A 
ATOM     28  C   UNL     1      -0.789  18.631  17.098  0.00  0.00    +0.000 A 
ATOM     29  C   UNL     1       0.560  18.518  16.763  0.00  0.00    +0.000 A 
ATOM     30  C   UNL     1       1.391  17.640  17.456  0.00  0.00    +0.000 A 
ATOM     31  C   UNL     1       0.866  16.862  18.480  0.00  0.00    +0.000 A 
ENDBRANCH  25  26
ENDBRANCH  16  25
TORSDOF 4
ENDMDL
MODEL 9
REMARK VINA RESULT:      -6.7      2.242      6.002
REMARK  Name = 
REMARK  6 active torsions:
REMARK  status: ('A' for Active; 'I' for Inactive)
REMARK    1  A    between atoms: C_1  and  C_2
REMARK    2  A    between atoms: N_9  and  C_10
REMARK    3  A    between atoms: C_10  and  C_11
REMARK    4  A    between atoms: C_18  and  C_19
REMARK    5  A    between atoms: N_23  and  C_24
REMARK    6  A    between atoms: C_24  and  C_25
REMARK                            x       y       z     vdW  Elec       q    Type
REMARK                         _______ _______ _______ _____ _____    ______ ____
ROOT
ATOM      1  C   UNL     1       2.468  15.360  20.362  0.00  0.00    +0.000 C 
ATOM      2  C   UNL     1       1.015  14.912  20.603  0.00  0.00    +0.000 C 
ATOM      3  C   UNL     1      -0.096  15.839  20.093  0.00  0.00    +0.000 A 
ATOM      4  C   UNL     1       0.122  16.709  19.010  0.00  0.00    +0.000 A 
ATOM      5  C   UNL     1      -0.872  17.590  18.586  0.00  0.00    +0.000 A 
ATOM      6  C   UNL     1      -2.101  17.612  19.234  0.00  0.00    +0.000 A 
ATOM      7  C   UNL     1      -2.342  16.737  20.291  0.00  0.00    +0.000 A 
ATOM      8  C   UNL     1      -1.367  15.827  20.728  0.00  0.00    +0.000 A 
ATOM      9  N   UNL     1      -1.675  14.867  21.686  0.00  0.00    +0.000 N 
ATOM     10  C   UNL     1      -1.624  13.480  21.222  0.00  0.00    +0.000 C 
ATOM     11  C   UNL     1      -0.197  12.909  21.344  0.00  0.00    +0.000 C 
ATOM     12  C   UNL     1      -0.209  11.412  21.715  0.00  0.00    +0.000 C 
ATOM     13  N   UNL     1       0.713  13.482  20.290  0.00  0.00    +0.000 N 
ATOM     14  C   UNL     1       0.909  13.162  18.960  0.00  0.00    +0.000 C 
ATOM     15  O   UNL     1       1.650  13.811  18.215  0.00  0.00    +0.000 OA
ATOM     16  N   UNL     1       0.314  12.125  18.347  0.00  0.00    +0.000 N 
ATOM     17  H   UNL     1       0.615  12.038  17.383  0.00  0.00    +0.000 HD
ENDROOT
BRANCH   9  18
ATOM     18  C   UNL     1      -2.224  15.192  23.000  0.00  0.00    +0.000 C 
BRANCH  18  19
ATOM     19  C   UNL     1      -3.487  14.430  23.338  0.00  0.00    +0.000 A 
ATOM     20  C   UNL     1      -3.493  13.385  24.275  0.00  0.00    +0.000 A 
ATOM     21  C   UNL     1      -4.635  12.616  24.485  0.00  0.00    +0.000 A 
ATOM     22  C   UNL     1      -5.806  12.913  23.797  0.00  0.00    +0.000 A 
ATOM     23  C   UNL     1      -5.841  13.995  22.919  0.00  0.00    +0.000 A 
ATOM     24  C   UNL     1      -4.690  14.750  22.693  0.00  0.00    +0.000 A 
ENDBRANCH  18  19
ENDBRANCH   9  18
BRANCH  16  25
ATOM     25  C   UNL     1      -0.527  11.115  18.865  0.00  0.00    +0.000 C 
BRANCH  25  26
ATOM     26  C   UNL     1      -1.804  10.859  18.146  0.00  0.00    +0.000 A 
ATOM     27  C   UNL     1      -2.931  11.627  18.413  0.00  0.00    +0.000 A 
ATOM     28  C   UNL     1      -4.068  11.481  17.624  0.00  0.00    +0.000 A 
ATOM     29  C   UNL     1      -4.071  10.571  16.568  0.00  0.00    +0.000 A 
ATOM     30  C   UNL     1      -2.939   9.806  16.289  0.00  0.00    +0.000 A 
ATOM     31  C   UNL     1      -1.806   9.943  17.079  0.00  0.00    +0.000 A 
ENDBRANCH  25  26
ENDBRANCH  16  25
TORSDOF 4
ENDMDL
