MODEL 1
REMARK VINA RESULT:      -6.8      0.000      0.000
REMARK  Name = 
REMARK  3 active torsions:
REMARK  status: ('A' for Active; 'I' for Inactive)
REMARK    1  A    between atoms: C_5  and  C_6
REMARK    2  A    between atoms: C_6  and  C_7
REMARK    3  A    between atoms: C_14  and  N_15
REMARK                            x       y       z     vdW  Elec       q    Type
REMARK                         _______ _______ _______ _____ _____    ______ ____
ROOT
ATOM      1  N   UNL     1       7.879   5.516  13.980  0.00  0.00    +0.000 N 
ATOM      2  C   UNL     1       7.003   5.003  14.915  0.00  0.00    +0.000 A 
ATOM      3  N   UNL     1       5.772   4.701  14.503  0.00  0.00    +0.000 NA
ATOM      4  C   UNL     1       4.931   4.238  15.444  0.00  0.00    +0.000 A 
ATOM      5  C   UNL     1       5.264   4.080  16.775  0.00  0.00    +0.000 A 
ATOM      6  C   UNL     1       6.568   4.423  17.080  0.00  0.00    +0.000 A 
ATOM      7  N   UNL     1       7.434   4.900  16.173  0.00  0.00    +0.000 NA
ATOM      8  H   UNL     1       7.355   5.942  13.230  0.00  0.00    +0.000 HD
ATOM      9  H   UNL     1       8.568   6.089  14.447  0.00  0.00    +0.000 HD
ENDROOT
BRANCH   6  10
ATOM     10  N   UNL     1       7.080   4.320  18.375  0.00  0.00    +0.000 N 
ATOM     11  H   UNL     1       6.622   3.568  18.877  0.00  0.00    +0.000 HD
ATOM     12  H   UNL     1       8.072   4.119  18.270  0.00  0.00    +0.000 HD
ENDBRANCH   6  10
BRANCH   5  13
ATOM     13  C   UNL     1       4.255   3.584  17.772  0.00  0.00    +0.000 C 
BRANCH  13  14
ATOM     14  C   UNL     1       3.484   4.687  18.464  0.00  0.00    +0.000 A 
ATOM     15  C   UNL     1       3.434   5.975  17.912  0.00  0.00    +0.000 A 
ATOM     16  C   UNL     1       2.787   7.014  18.586  0.00  0.00    +0.000 A 
ATOM     17  C   UNL     1       2.174   6.767  19.813  0.00  0.00    +0.000 A 
ATOM     18  I   UNL     1       1.258   8.324  20.840  0.00  0.00    +0.000 I 
ATOM     19  C   UNL     1       2.183   5.485  20.358  0.00  0.00    +0.000 A 
ATOM     20  C   UNL     1       2.837   4.449  19.686  0.00  0.00    +0.000 A 
ENDBRANCH  13  14
ENDBRANCH   5  13
TORSDOF 3
ENDMDL
MODEL 2
REMARK VINA RESULT:      -6.8      0.109      1.210
REMARK  Name = 
REMARK  3 active torsions:
REMARK  status: ('A' for Active; 'I' for Inactive)
REMARK    1  A    between atoms: C_5  and  C_6
REMARK    2  A    between atoms: C_6  and  C_7
REMARK    3  A    between atoms: C_14  and  N_15
REMARK                            x       y       z     vdW  Elec       q    Type
REMARK                         _______ _______ _______ _____ _____    ______ ____
ROOT
ATOM      1  N   UNL     1       7.967   5.470  13.964  0.00  0.00    +0.000 N 
ATOM      2  C   UNL     1       7.059   4.986  14.884  0.00  0.00    +0.000 A 
ATOM      3  N   UNL     1       5.832   4.705  14.446  0.00  0.00    +0.000 NA
ATOM      4  C   UNL     1       4.960   4.269  15.372  0.00  0.00    +0.000 A 
ATOM      5  C   UNL     1       5.258   4.119  16.711  0.00  0.00    +0.000 A 
ATOM      6  C   UNL     1       6.562   4.437  17.043  0.00  0.00    +0.000 A 
ATOM      7  N   UNL     1       7.458   4.887  16.152  0.00  0.00    +0.000 NA
ATOM      8  H   UNL     1       7.469   5.899  13.198  0.00  0.00    +0.000 HD
ATOM      9  H   UNL     1       8.657   6.034  14.441  0.00  0.00    +0.000 HD
ENDROOT
BRANCH   6  10
ATOM     10  N   UNL     1       7.041   4.338  18.351  0.00  0.00    +0.000 N 
ATOM     11  H   UNL     1       7.572   3.483  18.469  0.00  0.00    +0.000 HD
ATOM     12  H   UNL     1       7.644   5.147  18.491  0.00  0.00    +0.000 HD
ENDBRANCH   6  10
BRANCH   5  13
ATOM     13  C   UNL     1       4.217   3.653  17.690  0.00  0.00    +0.000 C 
BRANCH  13  14
ATOM     14  C   UNL     1       3.559   4.775  18.463  0.00  0.00    +0.000 A 
ATOM     15  C   UNL     1       3.042   4.549  19.746  0.00  0.00    +0.000 A 
ATOM     16  C   UNL     1       2.368   5.563  20.432  0.00  0.00    +0.000 A 
ATOM     17  C   UNL     1       2.217   6.816  19.841  0.00  0.00    +0.000 A 
ATOM     18  I   UNL     1       1.169   8.308  20.838  0.00  0.00    +0.000 I 
ATOM     19  C   UNL     1       2.757   7.070  18.582  0.00  0.00    +0.000 A 
ATOM     20  C   UNL     1       3.425   6.052  17.895  0.00  0.00    +0.000 A 
ENDBRANCH  13  14
ENDBRANCH   5  13
TORSDOF 3
ENDMDL
MODEL 3
REMARK VINA RESULT:      -6.7      2.939      4.118
REMARK  Name = 
REMARK  3 active torsions:
REMARK  status: ('A' for Active; 'I' for Inactive)
REMARK    1  A    between atoms: C_5  and  C_6
REMARK    2  A    between atoms: C_6  and  C_7
REMARK    3  A    between atoms: C_14  and  N_15
REMARK                            x       y       z     vdW  Elec       q    Type
REMARK                         _______ _______ _______ _____ _____    ______ ____
ROOT
ATOM      1  N   UNL     1       4.969   2.029  19.989  0.00  0.00    +0.000 N 
ATOM      2  C   UNL     1       4.569   3.188  19.355  0.00  0.00    +0.000 A 
ATOM      3  N   UNL     1       5.411   4.220  19.375  0.00  0.00    +0.000 NA
ATOM      4  C   UNL     1       4.979   5.346  18.780  0.00  0.00    +0.000 A 
ATOM      5  C   UNL     1       3.740   5.485  18.185  0.00  0.00    +0.000 A 
ATOM      6  C   UNL     1       2.959   4.346  18.225  0.00  0.00    +0.000 A 
ATOM      7  N   UNL     1       3.348   3.208  18.819  0.00  0.00    +0.000 NA
ATOM      8  H   UNL     1       5.658   2.254  20.692  0.00  0.00    +0.000 HD
ATOM      9  H   UNL     1       4.153   1.513  20.289  0.00  0.00    +0.000 HD
ENDROOT
BRANCH   6  10
ATOM     10  N   UNL     1       1.679   4.302  17.667  0.00  0.00    +0.000 N 
ATOM     11  H   UNL     1       1.200   3.454  17.948  0.00  0.00    +0.000 HD
ATOM     12  H   UNL     1       1.188   5.118  18.027  0.00  0.00    +0.000 HD
ENDBRANCH   6  10
BRANCH   5  13
ATOM     13  C   UNL     1       3.319   6.789  17.567  0.00  0.00    +0.000 C 
BRANCH  13  14
ATOM     14  C   UNL     1       2.449   7.639  18.466  0.00  0.00    +0.000 A 
ATOM     15  C   UNL     1       1.839   8.803  17.975  0.00  0.00    +0.000 A 
ATOM     16  C   UNL     1       1.097   9.630  18.822  0.00  0.00    +0.000 A 
ATOM     17  C   UNL     1       0.949   9.291  20.166  0.00  0.00    +0.000 A 
ATOM     18  I   UNL     1      -0.111  10.548  21.437  0.00  0.00    +0.000 I 
ATOM     19  C   UNL     1       1.517   8.119  20.662  0.00  0.00    +0.000 A 
ATOM     20  C   UNL     1       2.265   7.297  19.815  0.00  0.00    +0.000 A 
ENDBRANCH  13  14
ENDBRANCH   5  13
TORSDOF 3
ENDMDL
MODEL 4
REMARK VINA RESULT:      -6.7      2.886      4.258
REMARK  Name = 
REMARK  3 active torsions:
REMARK  status: ('A' for Active; 'I' for Inactive)
REMARK    1  A    between atoms: C_5  and  C_6
REMARK    2  A    between atoms: C_6  and  C_7
REMARK    3  A    between atoms: C_14  and  N_15
REMARK                            x       y       z     vdW  Elec       q    Type
REMARK                         _______ _______ _______ _____ _____    ______ ____
ROOT
ATOM      1  N   UNL     1       4.938   1.946  20.013  0.00  0.00    +0.000 N 
ATOM      2  C   UNL     1       4.540   3.089  19.350  0.00  0.00    +0.000 A 
ATOM      3  N   UNL     1       5.408   4.099  19.293  0.00  0.00    +0.000 NA
ATOM      4  C   UNL     1       4.979   5.212  18.672  0.00  0.00    +0.000 A 
ATOM      5  C   UNL     1       3.720   5.360  18.123  0.00  0.00    +0.000 A 
ATOM      6  C   UNL     1       2.913   4.243  18.241  0.00  0.00    +0.000 A 
ATOM      7  N   UNL     1       3.299   3.120  18.864  0.00  0.00    +0.000 NA
ATOM      8  H   UNL     1       5.661   2.180  20.677  0.00  0.00    +0.000 HD
ATOM      9  H   UNL     1       4.123   1.464  20.367  0.00  0.00    +0.000 HD
ENDROOT
BRANCH   6  10
ATOM     10  N   UNL     1       1.611   4.212  17.738  0.00  0.00    +0.000 N 
ATOM     11  H   UNL     1       0.950   4.505  18.449  0.00  0.00    +0.000 HD
ATOM     12  H   UNL     1       1.596   4.863  16.956  0.00  0.00    +0.000 HD
ENDBRANCH   6  10
BRANCH   5  13
ATOM     13  C   UNL     1       3.306   6.649  17.471  0.00  0.00    +0.000 C 
BRANCH  13  14
ATOM     14  C   UNL     1       2.544   7.580  18.387  0.00  0.00    +0.000 A 
ATOM     15  C   UNL     1       2.334   7.243  19.732  0.00  0.00    +0.000 A 
ATOM     16  C   UNL     1       1.567   8.065  20.561  0.00  0.00    +0.000 A 
ATOM     17  C   UNL     1       1.014   9.239  20.052  0.00  0.00    +0.000 A 
ATOM     18  I   UNL     1      -0.171  10.435  21.270  0.00  0.00    +0.000 I 
ATOM     19  C   UNL     1       1.243   9.608  18.728  0.00  0.00    +0.000 A 
ATOM     20  C   UNL     1       2.005   8.780  17.899  0.00  0.00    +0.000 A 
ENDBRANCH  13  14
ENDBRANCH   5  13
TORSDOF 3
ENDMDL
MODEL 5
REMARK VINA RESULT:      -6.7      3.772      5.413
REMARK  Name = 
REMARK  3 active torsions:
REMARK  status: ('A' for Active; 'I' for Inactive)
REMARK    1  A    between atoms: C_5  and  C_6
REMARK    2  A    between atoms: C_6  and  C_7
REMARK    3  A    between atoms: C_14  and  N_15
REMARK                            x       y       z     vdW  Elec       q    Type
REMARK                         _______ _______ _______ _____ _____    ______ ____
ROOT
ATOM      1  N   UNL     1       0.781   2.923  21.169  0.00  0.00    +0.000 N 
ATOM      2  C   UNL     1       1.738   3.095  20.190  0.00  0.00    +0.000 A 
ATOM      3  N   UNL     1       1.385   3.774  19.099  0.00  0.00    +0.000 NA
ATOM      4  C   UNL     1       2.328   3.895  18.147  0.00  0.00    +0.000 A 
ATOM      5  C   UNL     1       3.595   3.354  18.236  0.00  0.00    +0.000 A 
ATOM      6  C   UNL     1       3.844   2.677  19.415  0.00  0.00    +0.000 A 
ATOM      7  N   UNL     1       2.927   2.524  20.382  0.00  0.00    +0.000 NA
ATOM      8  H   UNL     1      -0.137   2.997  20.755  0.00  0.00    +0.000 HD
ATOM      9  H   UNL     1       0.986   2.083  21.693  0.00  0.00    +0.000 HD
ENDROOT
BRANCH   6  10
ATOM     10  N   UNL     1       5.075   2.072  19.679  0.00  0.00    +0.000 N 
ATOM     11  H   UNL     1       4.989   1.063  19.635  0.00  0.00    +0.000 HD
ATOM     12  H   UNL     1       5.711   2.401  18.954  0.00  0.00    +0.000 HD
ENDBRANCH   6  10
BRANCH   5  13
ATOM     13  C   UNL     1       4.583   3.508  17.114  0.00  0.00    +0.000 C 
BRANCH  13  14
ATOM     14  C   UNL     1       5.448   4.744  17.226  0.00  0.00    +0.000 A 
ATOM     15  C   UNL     1       6.681   4.693  17.893  0.00  0.00    +0.000 A 
ATOM     16  C   UNL     1       7.446   5.849  18.065  0.00  0.00    +0.000 A 
ATOM     17  C   UNL     1       6.989   7.064  17.557  0.00  0.00    +0.000 A 
ATOM     18  I   UNL     1       8.103   8.792  17.857  0.00  0.00    +0.000 I 
ATOM     19  C   UNL     1       5.785   7.126  16.860  0.00  0.00    +0.000 A 
ATOM     20  C   UNL     1       5.017   5.969  16.696  0.00  0.00    +0.000 A 
ENDBRANCH  13  14
ENDBRANCH   5  13
TORSDOF 3
ENDMDL
MODEL 6
REMARK VINA RESULT:      -6.6      3.199      4.406
REMARK  Name = 
REMARK  3 active torsions:
REMARK  status: ('A' for Active; 'I' for Inactive)
REMARK    1  A    between atoms: C_5  and  C_6
REMARK    2  A    between atoms: C_6  and  C_7
REMARK    3  A    between atoms: C_14  and  N_15
REMARK                            x       y       z     vdW  Elec       q    Type
REMARK                         _______ _______ _______ _____ _____    ______ ____
ROOT
ATOM      1  N   UNL     1       1.745   1.410  18.826  0.00  0.00    +0.000 N 
ATOM      2  C   UNL     1       2.120   2.725  18.636  0.00  0.00    +0.000 A 
ATOM      3  N   UNL     1       1.279   3.512  17.966  0.00  0.00    +0.000 NA
ATOM      4  C   UNL     1       1.687   4.778  17.765  0.00  0.00    +0.000 A 
ATOM      5  C   UNL     1       2.901   5.279  18.191  0.00  0.00    +0.000 A 
ATOM      6  C   UNL     1       3.684   4.370  18.878  0.00  0.00    +0.000 A 
ATOM      7  N   UNL     1       3.318   3.096  19.088  0.00  0.00    +0.000 NA
ATOM      8  H   UNL     1       1.084   1.145  18.111  0.00  0.00    +0.000 HD
ATOM      9  H   UNL     1       2.572   0.838  18.928  0.00  0.00    +0.000 HD
ENDROOT
BRANCH   6  10
ATOM     10  N   UNL     1       4.940   4.705  19.387  0.00  0.00    +0.000 N 
ATOM     11  H   UNL     1       5.293   3.959  19.975  0.00  0.00    +0.000 HD
ATOM     12  H   UNL     1       5.546   4.832  18.579  0.00  0.00    +0.000 HD
ENDBRANCH   6  10
BRANCH   5  13
ATOM     13  C   UNL     1       3.297   6.700  17.901  0.00  0.00    +0.000 C 
BRANCH  13  14
ATOM     14  C   UNL     1       2.390   7.730  18.537  0.00  0.00    +0.000 A 
ATOM     15  C   UNL     1       1.909   8.814  17.789  0.00  0.00    +0.000 A 
ATOM     16  C   UNL     1       1.133   9.807  18.393  0.00  0.00    +0.000 A 
ATOM     17  C   UNL     1       0.823   9.715  19.749  0.00  0.00    +0.000 A 
ATOM     18  I   UNL     1      -0.287  11.218  20.658  0.00  0.00    +0.000 I 
ATOM     19  C   UNL     1       1.261   8.625  20.498  0.00  0.00    +0.000 A 
ATOM     20  C   UNL     1       2.044   7.637  19.893  0.00  0.00    +0.000 A 
ENDBRANCH  13  14
ENDBRANCH   5  13
TORSDOF 3
ENDMDL
MODEL 7
REMARK VINA RESULT:      -6.6      4.013      6.032
REMARK  Name = 
REMARK  3 active torsions:
REMARK  status: ('A' for Active; 'I' for Inactive)
REMARK    1  A    between atoms: C_5  and  C_6
REMARK    2  A    between atoms: C_6  and  C_7
REMARK    3  A    between atoms: C_14  and  N_15
REMARK                            x       y       z     vdW  Elec       q    Type
REMARK                         _______ _______ _______ _____ _____    ______ ____
ROOT
ATOM      1  N   UNL     1       0.623   3.255  20.707  0.00  0.00    +0.000 N 
ATOM      2  C   UNL     1       1.880   3.662  20.306  0.00  0.00    +0.000 A 
ATOM      3  N   UNL     1       2.038   4.948  19.995  0.00  0.00    +0.000 NA
ATOM      4  C   UNL     1       3.264   5.307  19.574  0.00  0.00    +0.000 A 
ATOM      5  C   UNL     1       4.325   4.435  19.436  0.00  0.00    +0.000 A 
ATOM      6  C   UNL     1       4.040   3.130  19.793  0.00  0.00    +0.000 A 
ATOM      7  N   UNL     1       2.828   2.729  20.206  0.00  0.00    +0.000 NA
ATOM      8  H   UNL     1      -0.067   3.893  20.341  0.00  0.00    +0.000 HD
ATOM      9  H   UNL     1       0.506   2.274  20.494  0.00  0.00    +0.000 HD
ENDROOT
BRANCH   6  10
ATOM     10  N   UNL     1       4.996   2.115  19.724  0.00  0.00    +0.000 N 
ATOM     11  H   UNL     1       4.587   1.226  19.990  0.00  0.00    +0.000 HD
ATOM     12  H   UNL     1       5.302   2.083  18.753  0.00  0.00    +0.000 HD
ENDBRANCH   6  10
BRANCH   5  13
ATOM     13  C   UNL     1       5.658   4.910  18.929  0.00  0.00    +0.000 C 
BRANCH  13  14
ATOM     14  C   UNL     1       5.843   4.734  17.439  0.00  0.00    +0.000 A 
ATOM     15  C   UNL     1       4.742   4.478  16.609  0.00  0.00    +0.000 A 
ATOM     16  C   UNL     1       4.919   4.240  15.244  0.00  0.00    +0.000 A 
ATOM     17  C   UNL     1       6.200   4.268  14.696  0.00  0.00    +0.000 A 
ATOM     18  I   UNL     1       6.468   3.862  12.676  0.00  0.00    +0.000 I 
ATOM     19  C   UNL     1       7.301   4.557  15.499  0.00  0.00    +0.000 A 
ATOM     20  C   UNL     1       7.123   4.788  16.866  0.00  0.00    +0.000 A 
ENDBRANCH  13  14
ENDBRANCH   5  13
TORSDOF 3
ENDMDL
MODEL 8
REMARK VINA RESULT:      -6.5      4.078      5.088
REMARK  Name = 
REMARK  3 active torsions:
REMARK  status: ('A' for Active; 'I' for Inactive)
REMARK    1  A    between atoms: C_5  and  C_6
REMARK    2  A    between atoms: C_6  and  C_7
REMARK    3  A    between atoms: C_14  and  N_15
REMARK                            x       y       z     vdW  Elec       q    Type
REMARK                         _______ _______ _______ _____ _____    ______ ____
ROOT
ATOM      1  N   UNL     1       0.679   1.604  18.598  0.00  0.00    +0.000 N 
ATOM      2  C   UNL     1       1.252   2.853  18.721  0.00  0.00    +0.000 A 
ATOM      3  N   UNL     1       1.486   3.534  17.600  0.00  0.00    +0.000 NA
ATOM      4  C   UNL     1       2.077   4.733  17.750  0.00  0.00    +0.000 A 
ATOM      5  C   UNL     1       2.456   5.267  18.966  0.00  0.00    +0.000 A 
ATOM      6  C   UNL     1       2.158   4.469  20.055  0.00  0.00    +0.000 A 
ATOM      7  N   UNL     1       1.580   3.263  19.947  0.00  0.00    +0.000 NA
ATOM      8  H   UNL     1       0.875   1.236  17.679  0.00  0.00    +0.000 HD
ATOM      9  H   UNL     1       0.944   1.035  19.390  0.00  0.00    +0.000 HD
ENDROOT
BRANCH   6  10
ATOM     10  N   UNL     1       2.463   4.853  21.362  0.00  0.00    +0.000 N 
ATOM     11  H   UNL     1       3.341   4.442  21.655  0.00  0.00    +0.000 HD
ATOM     12  H   UNL     1       2.539   5.869  21.346  0.00  0.00    +0.000 HD
ENDBRANCH   6  10
BRANCH   5  13
ATOM     13  C   UNL     1       3.141   6.602  19.046  0.00  0.00    +0.000 C 
BRANCH  13  14
ATOM     14  C   UNL     1       2.188   7.776  19.087  0.00  0.00    +0.000 A 
ATOM     15  C   UNL     1       1.904   8.505  17.922  0.00  0.00    +0.000 A 
ATOM     16  C   UNL     1       1.084   9.635  17.971  0.00  0.00    +0.000 A 
ATOM     17  C   UNL     1       0.531  10.037  19.186  0.00  0.00    +0.000 A 
ATOM     18  I   UNL     1      -0.645  11.748  19.268  0.00  0.00    +0.000 I 
ATOM     19  C   UNL     1       0.773   9.304  20.345  0.00  0.00    +0.000 A 
ATOM     20  C   UNL     1       1.599   8.178  20.296  0.00  0.00    +0.000 A 
ENDBRANCH  13  14
ENDBRANCH   5  13
TORSDOF 3
ENDMDL
MODEL 9
REMARK VINA RESULT:      -6.5      3.964      6.032
REMARK  Name = 
REMARK  3 active torsions:
REMARK  status: ('A' for Active; 'I' for Inactive)
REMARK    1  A    between atoms: C_5  and  C_6
REMARK    2  A    between atoms: C_6  and  C_7
REMARK    3  A    between atoms: C_14  and  N_15
REMARK                            x       y       z     vdW  Elec       q    Type
REMARK                         _______ _______ _______ _____ _____    ______ ____
ROOT
ATOM      1  N   UNL     1       0.829   2.962  21.101  0.00  0.00    +0.000 N 
ATOM      2  C   UNL     1       2.009   3.485  20.611  0.00  0.00    +0.000 A 
ATOM      3  N   UNL     1       2.034   4.787  20.331  0.00  0.00    +0.000 NA
ATOM      4  C   UNL     1       3.186   5.260  19.821  0.00  0.00    +0.000 A 
ATOM      5  C   UNL     1       4.300   4.485  19.568  0.00  0.00    +0.000 A 
ATOM      6  C   UNL     1       4.154   3.152  19.904  0.00  0.00    +0.000 A 
ATOM      7  N   UNL     1       3.019   2.639  20.402  0.00  0.00    +0.000 NA
ATOM      8  H   UNL     1       0.060   3.549  20.814  0.00  0.00    +0.000 HD
ATOM      9  H   UNL     1       0.776   1.981  20.866  0.00  0.00    +0.000 HD
ENDROOT
BRANCH   6  10
ATOM     10  N   UNL     1       5.181   2.223  19.723  0.00  0.00    +0.000 N 
ATOM     11  H   UNL     1       6.045   2.570  20.123  0.00  0.00    +0.000 HD
ATOM     12  H   UNL     1       4.885   1.378  20.209  0.00  0.00    +0.000 HD
ENDBRANCH   6  10
BRANCH   5  13
ATOM     13  C   UNL     1       5.541   5.084  18.969  0.00  0.00    +0.000 C 
BRANCH  13  14
ATOM     14  C   UNL     1       5.748   4.732  17.513  0.00  0.00    +0.000 A 
ATOM     15  C   UNL     1       7.040   4.671  16.971  0.00  0.00    +0.000 A 
ATOM     16  C   UNL     1       7.231   4.421  15.610  0.00  0.00    +0.000 A 
ATOM     17  C   UNL     1       6.128   4.216  14.782  0.00  0.00    +0.000 A 
ATOM     18  I   UNL     1       6.409   3.894  12.748  0.00  0.00    +0.000 I 
ATOM     19  C   UNL     1       4.839   4.235  15.311  0.00  0.00    +0.000 A 
ATOM     20  C   UNL     1       4.650   4.493  16.671  0.00  0.00    +0.000 A 
ENDBRANCH  13  14
ENDBRANCH   5  13
TORSDOF 3
ENDMDL
