MODEL 1
REMARK VINA RESULT:      -8.7      0.000      0.000
REMARK  Name = 
REMARK  8 active torsions:
REMARK  status: ('A' for Active; 'I' for Inactive)
REMARK    1  A    between atoms: C_1  and  N_2
REMARK    2  A    between atoms: C_11  and  C_12
REMARK    3  A    between atoms: C_16  and  N_17
REMARK    4  A    between atoms: N_17  and  C_18
REMARK    5  A    between atoms: C_18  and  C_19
REMARK    6  A    between atoms: C_18  and  C_22
REMARK    7  A    between atoms: C_19  and  C_20
REMARK    8  A    between atoms: C_20  and  N_21
REMARK                            x       y       z     vdW  Elec       q    Type
REMARK                         _______ _______ _______ _____ _____    ______ ____
ROOT
ATOM      1  C   UNL     1       2.622   5.239  20.099  0.00  0.00    +0.000 A 
ATOM      2  C   UNL     1       2.090   4.142  20.769  0.00  0.00    +0.000 A 
ATOM      3  C   UNL     1       2.818   2.966  20.768  0.00  0.00    +0.000 A 
ATOM      4  C   UNL     1       4.012   2.920  20.060  0.00  0.00    +0.000 A 
ATOM      5  C   UNL     1       4.435   4.015  19.302  0.00  0.00    +0.000 A 
ATOM      6  N   UNL     1       3.765   5.185  19.361  0.00  0.00    +0.000 NA
ENDROOT
BRANCH   1  17
ATOM      7  C   UNL     1      -0.042  15.117  20.551  0.00  0.00    +0.000 C 
ATOM      8  N   UNL     1      -0.216  13.680  20.370  0.00  0.00    +0.000 NA
ATOM      9  C   UNL     1       0.775  12.918  21.165  0.00  0.00    +0.000 C 
ATOM     10  C   UNL     1       0.618  11.387  20.990  0.00  0.00    +0.000 C 
ATOM     11  N   UNL     1       0.696  11.050  19.567  0.00  0.00    +0.000 N 
ATOM     12  C   UNL     1       1.300   9.896  19.098  0.00  0.00    +0.000 A 
ATOM     13  N   UNL     1       1.814   9.934  17.882  0.00  0.00    +0.000 NA
ATOM     14  C   UNL     1       2.477   8.831  17.389  0.00  0.00    +0.000 A 
ATOM     15  C   UNL     1       2.620   7.678  18.059  0.00  0.00    +0.000 A 
ATOM     16  N   UNL     1       2.073   7.580  19.324  0.00  0.00    +0.000 N 
ATOM     17  C   UNL     1       2.006   6.553  20.239  0.00  0.00    +0.000 A 
ATOM     18  C   UNL     1       1.246   7.079  21.276  0.00  0.00    +0.000 A 
ATOM     19  N   UNL     1       0.880   8.380  21.043  0.00  0.00    +0.000 NA
ATOM     20  C   UNL     1       1.407   8.654  19.866  0.00  0.00    +0.000 A 
ATOM     21  C   UNL     1      -0.234  11.798  18.719  0.00  0.00    +0.000 C 
ATOM     22  C   UNL     1      -0.064  13.312  18.942  0.00  0.00    +0.000 C 
ENDBRANCH   1  17
BRANCH   5  23
ATOM     23  N   UNL     1       5.586   3.857  18.556  0.00  0.00    +0.000 N 
ATOM     24  H   UNL     1       5.832   2.905  18.328  0.00  0.00    +0.000 HD
BRANCH  23  25
ATOM     25  C   UNL     1       6.245   4.903  17.780  0.00  0.00    +0.000 C 
BRANCH  25  26
ATOM     26  C   UNL     1       6.203   4.651  16.257  0.00  0.00    +0.000 A 
ATOM     27  C   UNL     1       5.123   4.027  15.604  0.00  0.00    +0.000 A 
ATOM     28  C   UNL     1       5.166   3.763  14.223  0.00  0.00    +0.000 A 
ATOM     29  C   UNL     1       6.264   4.142  13.467  0.00  0.00    +0.000 A 
ATOM     30  C   UNL     1       7.324   4.801  14.075  0.00  0.00    +0.000 A 
ATOM     31  C   UNL     1       7.285   5.060  15.453  0.00  0.00    +0.000 A 
ENDBRANCH  25  26
BRANCH  25  32
ATOM     32  C   UNL     1       7.710   4.990  18.303  0.00  0.00    +0.000 C 
BRANCH  32  33
ATOM     33  C   UNL     1       7.881   5.961  19.481  0.00  0.00    +0.000 C 
BRANCH  33  34
ATOM     34  N   UNL     1       8.277   5.256  20.700  0.00  0.00    +0.000 NA
ATOM     35  H   UNL     1       9.205   5.566  20.988  0.00  0.00    +0.000 HD
ATOM     36  H   UNL     1       8.364   4.261  20.495  0.00  0.00    +0.000 HD
ENDBRANCH  33  34
ENDBRANCH  32  33
ENDBRANCH  25  32
ENDBRANCH  23  25
ENDBRANCH   5  23
TORSDOF 7
ENDMDL
MODEL 2
REMARK VINA RESULT:      -8.6      1.201      2.205
REMARK  Name = 
REMARK  8 active torsions:
REMARK  status: ('A' for Active; 'I' for Inactive)
REMARK    1  A    between atoms: C_1  and  N_2
REMARK    2  A    between atoms: C_11  and  C_12
REMARK    3  A    between atoms: C_16  and  N_17
REMARK    4  A    between atoms: N_17  and  C_18
REMARK    5  A    between atoms: C_18  and  C_19
REMARK    6  A    between atoms: C_18  and  C_22
REMARK    7  A    between atoms: C_19  and  C_20
REMARK    8  A    between atoms: C_20  and  N_21
REMARK                            x       y       z     vdW  Elec       q    Type
REMARK                         _______ _______ _______ _____ _____    ______ ____
ROOT
ATOM      1  C   UNL     1       2.512   6.227  18.467  0.00  0.00    +0.000 A 
ATOM      2  C   UNL     1       1.772   5.309  19.206  0.00  0.00    +0.000 A 
ATOM      3  C   UNL     1       2.217   4.000  19.244  0.00  0.00    +0.000 A 
ATOM      4  C   UNL     1       3.343   3.655  18.507  0.00  0.00    +0.000 A 
ATOM      5  C   UNL     1       3.972   4.592  17.684  0.00  0.00    +0.000 A 
ATOM      6  N   UNL     1       3.584   5.885  17.703  0.00  0.00    +0.000 NA
ENDROOT
BRANCH   1  17
ATOM      7  C   UNL     1      -1.168  15.671  19.934  0.00  0.00    +0.000 C 
ATOM      8  N   UNL     1      -0.165  14.624  19.776  0.00  0.00    +0.000 NA
ATOM      9  C   UNL     1      -0.679  13.515  18.938  0.00  0.00    +0.000 C 
ATOM     10  C   UNL     1       0.363  12.384  18.753  0.00  0.00    +0.000 C 
ATOM     11  N   UNL     1       0.802  11.909  20.067  0.00  0.00    +0.000 N 
ATOM     12  C   UNL     1       1.090  10.580  20.330  0.00  0.00    +0.000 A 
ATOM     13  N   UNL     1       0.924  10.160  21.571  0.00  0.00    +0.000 NA
ATOM     14  C   UNL     1       1.142   8.833  21.873  0.00  0.00    +0.000 A 
ATOM     15  C   UNL     1       1.549   7.915  20.984  0.00  0.00    +0.000 A 
ATOM     16  N   UNL     1       1.764   8.315  19.680  0.00  0.00    +0.000 N 
ATOM     17  C   UNL     1       2.212   7.651  18.558  0.00  0.00    +0.000 A 
ATOM     18  C   UNL     1       2.285   8.645  17.591  0.00  0.00    +0.000 A 
ATOM     19  N   UNL     1       1.876   9.864  18.065  0.00  0.00    +0.000 NA
ATOM     20  C   UNL     1       1.556   9.626  19.322  0.00  0.00    +0.000 A 
ATOM     21  C   UNL     1       1.287  12.963  20.959  0.00  0.00    +0.000 C 
ATOM     22  C   UNL     1       0.234  14.078  21.094  0.00  0.00    +0.000 C 
ENDBRANCH   1  17
BRANCH   5  23
ATOM     23  N   UNL     1       5.029   4.146  16.916  0.00  0.00    +0.000 N 
ATOM     24  H   UNL     1       4.922   3.225  16.518  0.00  0.00    +0.000 HD
BRANCH  23  25
ATOM     25  C   UNL     1       6.073   4.987  16.339  0.00  0.00    +0.000 C 
BRANCH  25  26
ATOM     26  C   UNL     1       6.342   4.687  14.848  0.00  0.00    +0.000 A 
ATOM     27  C   UNL     1       5.545   3.822  14.075  0.00  0.00    +0.000 A 
ATOM     28  C   UNL     1       5.875   3.534  12.737  0.00  0.00    +0.000 A 
ATOM     29  C   UNL     1       6.978   4.123  12.141  0.00  0.00    +0.000 A 
ATOM     30  C   UNL     1       7.756   5.017  12.864  0.00  0.00    +0.000 A 
ATOM     31  C   UNL     1       7.432   5.302  14.199  0.00  0.00    +0.000 A 
ENDBRANCH  25  26
BRANCH  25  32
ATOM     32  C   UNL     1       7.350   4.768  17.203  0.00  0.00    +0.000 C 
BRANCH  32  33
ATOM     33  C   UNL     1       7.482   5.768  18.362  0.00  0.00    +0.000 C 
BRANCH  33  34
ATOM     34  N   UNL     1       6.857   5.257  19.582  0.00  0.00    +0.000 NA
ATOM     35  H   UNL     1       7.060   4.262  19.679  0.00  0.00    +0.000 HD
ATOM     36  H   UNL     1       5.843   5.327  19.490  0.00  0.00    +0.000 HD
ENDBRANCH  33  34
ENDBRANCH  32  33
ENDBRANCH  25  32
ENDBRANCH  23  25
ENDBRANCH   5  23
TORSDOF 7
ENDMDL
MODEL 3
REMARK VINA RESULT:      -8.6      2.508      4.529
REMARK  Name = 
REMARK  8 active torsions:
REMARK  status: ('A' for Active; 'I' for Inactive)
REMARK    1  A    between atoms: C_1  and  N_2
REMARK    2  A    between atoms: C_11  and  C_12
REMARK    3  A    between atoms: C_16  and  N_17
REMARK    4  A    between atoms: N_17  and  C_18
REMARK    5  A    between atoms: C_18  and  C_19
REMARK    6  A    between atoms: C_18  and  C_22
REMARK    7  A    between atoms: C_19  and  C_20
REMARK    8  A    between atoms: C_20  and  N_21
REMARK                            x       y       z     vdW  Elec       q    Type
REMARK                         _______ _______ _______ _____ _____    ______ ____
ROOT
ATOM      1  C   UNL     1       1.552   8.710  19.790  0.00  0.00    +0.000 A 
ATOM      2  C   UNL     1       1.786   9.073  18.468  0.00  0.00    +0.000 A 
ATOM      3  C   UNL     1       2.374   8.138  17.634  0.00  0.00    +0.000 A 
ATOM      4  C   UNL     1       2.749   6.910  18.166  0.00  0.00    +0.000 A 
ATOM      5  C   UNL     1       2.603   6.649  19.531  0.00  0.00    +0.000 A 
ATOM      6  N   UNL     1       1.964   7.530  20.329  0.00  0.00    +0.000 NA
ENDROOT
BRANCH   1  17
ATOM      7  C   UNL     1      -3.715  16.068  24.586  0.00  0.00    +0.000 C 
ATOM      8  N   UNL     1      -3.360  14.716  24.170  0.00  0.00    +0.000 NA
ATOM      9  C   UNL     1      -1.911  14.610  23.879  0.00  0.00    +0.000 C 
ATOM     10  C   UNL     1      -1.503  13.185  23.431  0.00  0.00    +0.000 C 
ATOM     11  N   UNL     1      -2.315  12.786  22.279  0.00  0.00    +0.000 N 
ATOM     12  C   UNL     1      -1.819  12.026  21.234  0.00  0.00    +0.000 A 
ATOM     13  N   UNL     1      -2.382  12.184  20.050  0.00  0.00    +0.000 NA
ATOM     14  C   UNL     1      -1.888  11.494  18.965  0.00  0.00    +0.000 A 
ATOM     15  C   UNL     1      -0.867  10.627  19.025  0.00  0.00    +0.000 A 
ATOM     16  N   UNL     1      -0.265  10.406  20.249  0.00  0.00    +0.000 N 
ATOM     17  C   UNL     1       0.753   9.571  20.655  0.00  0.00    +0.000 A 
ATOM     18  C   UNL     1       0.817   9.767  22.028  0.00  0.00    +0.000 A 
ATOM     19  N   UNL     1      -0.090  10.699  22.462  0.00  0.00    +0.000 NA
ATOM     20  C   UNL     1      -0.714  11.073  21.363  0.00  0.00    +0.000 A 
ATOM     21  C   UNL     1      -3.759  12.904  22.490  0.00  0.00    +0.000 C 
ATOM     22  C   UNL     1      -4.119  14.325  22.959  0.00  0.00    +0.000 C 
ENDBRANCH   1  17
BRANCH   5  23
ATOM     23  N   UNL     1       3.082   5.441  19.995  0.00  0.00    +0.000 N 
ATOM     24  H   UNL     1       3.066   5.320  20.997  0.00  0.00    +0.000 HD
BRANCH  23  25
ATOM     25  C   UNL     1       3.252   4.232  19.196  0.00  0.00    +0.000 C 
BRANCH  25  26
ATOM     26  C   UNL     1       4.486   4.282  18.269  0.00  0.00    +0.000 A 
ATOM     27  C   UNL     1       5.766   4.679  18.701  0.00  0.00    +0.000 A 
ATOM     28  C   UNL     1       6.841   4.770  17.798  0.00  0.00    +0.000 A 
ATOM     29  C   UNL     1       6.669   4.438  16.464  0.00  0.00    +0.000 A 
ATOM     30  C   UNL     1       5.431   3.998  16.017  0.00  0.00    +0.000 A 
ATOM     31  C   UNL     1       4.357   3.912  16.915  0.00  0.00    +0.000 A 
ENDBRANCH  25  26
BRANCH  25  32
ATOM     32  C   UNL     1       1.937   4.046  18.383  0.00  0.00    +0.000 C 
BRANCH  32  33
ATOM     33  C   UNL     1       0.948   3.069  19.038  0.00  0.00    +0.000 C 
BRANCH  33  34
ATOM     34  N   UNL     1       0.717   3.405  20.442  0.00  0.00    +0.000 NA
ATOM     35  H   UNL     1       0.399   2.576  20.944  0.00  0.00    +0.000 HD
ATOM     36  H   UNL     1      -0.047   4.078  20.501  0.00  0.00    +0.000 HD
ENDBRANCH  33  34
ENDBRANCH  32  33
ENDBRANCH  25  32
ENDBRANCH  23  25
ENDBRANCH   5  23
TORSDOF 7
ENDMDL
MODEL 4
REMARK VINA RESULT:      -8.5      2.775      4.925
REMARK  Name = 
REMARK  8 active torsions:
REMARK  status: ('A' for Active; 'I' for Inactive)
REMARK    1  A    between atoms: C_1  and  N_2
REMARK    2  A    between atoms: C_11  and  C_12
REMARK    3  A    between atoms: C_16  and  N_17
REMARK    4  A    between atoms: N_17  and  C_18
REMARK    5  A    between atoms: C_18  and  C_19
REMARK    6  A    between atoms: C_18  and  C_22
REMARK    7  A    between atoms: C_19  and  C_20
REMARK    8  A    between atoms: C_20  and  N_21
REMARK                            x       y       z     vdW  Elec       q    Type
REMARK                         _______ _______ _______ _____ _____    ______ ____
ROOT
ATOM      1  C   UNL     1       1.547   8.985  19.167  0.00  0.00    +0.000 A 
ATOM      2  C   UNL     1       2.143   9.185  17.926  0.00  0.00    +0.000 A 
ATOM      3  C   UNL     1       2.883   8.147  17.387  0.00  0.00    +0.000 A 
ATOM      4  C   UNL     1       3.038   6.983  18.129  0.00  0.00    +0.000 A 
ATOM      5  C   UNL     1       2.521   6.887  19.423  0.00  0.00    +0.000 A 
ATOM      6  N   UNL     1       1.739   7.868  19.920  0.00  0.00    +0.000 NA
ENDROOT
BRANCH   1  17
ATOM      7  C   UNL     1      -5.971  14.335  23.608  0.00  0.00    +0.000 C 
ATOM      8  N   UNL     1      -4.646  14.072  23.058  0.00  0.00    +0.000 NA
ATOM      9  C   UNL     1      -4.704  13.038  21.999  0.00  0.00    +0.000 C 
ATOM     10  C   UNL     1      -3.309  12.733  21.397  0.00  0.00    +0.000 C 
ATOM     11  N   UNL     1      -2.388  12.355  22.471  0.00  0.00    +0.000 N 
ATOM     12  C   UNL     1      -1.407  11.390  22.317  0.00  0.00    +0.000 A 
ATOM     13  N   UNL     1      -1.030  10.733  23.399  0.00  0.00    +0.000 NA
ATOM     14  C   UNL     1      -0.099   9.724  23.291  0.00  0.00    +0.000 A 
ATOM     15  C   UNL     1       0.493   9.366  22.143  0.00  0.00    +0.000 A 
ATOM     16  N   UNL     1       0.153  10.045  20.989  0.00  0.00    +0.000 N 
ATOM     17  C   UNL     1       0.593   9.957  19.686  0.00  0.00    +0.000 A 
ATOM     18  C   UNL     1      -0.088  10.978  19.036  0.00  0.00    +0.000 A 
ATOM     19  N   UNL     1      -0.936  11.654  19.874  0.00  0.00    +0.000 NA
ATOM     20  C   UNL     1      -0.776  11.057  21.039  0.00  0.00    +0.000 A 
ATOM     21  C   UNL     1      -2.314  13.320  23.570  0.00  0.00    +0.000 C 
ATOM     22  C   UNL     1      -3.721  13.614  24.121  0.00  0.00    +0.000 C 
ENDBRANCH   1  17
BRANCH   5  23
ATOM     23  N   UNL     1       2.796   5.731  20.126  0.00  0.00    +0.000 N 
ATOM     24  H   UNL     1       2.568   5.753  21.109  0.00  0.00    +0.000 HD
BRANCH  23  25
ATOM     25  C   UNL     1       3.024   4.414  19.540  0.00  0.00    +0.000 C 
BRANCH  25  26
ATOM     26  C   UNL     1       4.249   4.369  18.601  0.00  0.00    +0.000 A 
ATOM     27  C   UNL     1       5.547   4.737  19.001  0.00  0.00    +0.000 A 
ATOM     28  C   UNL     1       6.616   4.739  18.085  0.00  0.00    +0.000 A 
ATOM     29  C   UNL     1       6.418   4.346  16.772  0.00  0.00    +0.000 A 
ATOM     30  C   UNL     1       5.158   3.932  16.359  0.00  0.00    +0.000 A 
ATOM     31  C   UNL     1       4.091   3.935  17.269  0.00  0.00    +0.000 A 
ENDBRANCH  25  26
BRANCH  25  32
ATOM     32  C   UNL     1       1.715   4.029  18.788  0.00  0.00    +0.000 C 
BRANCH  32  33
ATOM     33  C   UNL     1       0.857   3.003  19.543  0.00  0.00    +0.000 C 
BRANCH  33  34
ATOM     34  N   UNL     1       0.986   3.162  20.991  0.00  0.00    +0.000 NA
ATOM     35  H   UNL     1       0.991   4.154  21.227  0.00  0.00    +0.000 HD
ATOM     36  H   UNL     1       1.892   2.799  21.286  0.00  0.00    +0.000 HD
ENDBRANCH  33  34
ENDBRANCH  32  33
ENDBRANCH  25  32
ENDBRANCH  23  25
ENDBRANCH   5  23
TORSDOF 7
ENDMDL
MODEL 5
REMARK VINA RESULT:      -8.5      3.325     10.145
REMARK  Name = 
REMARK  8 active torsions:
REMARK  status: ('A' for Active; 'I' for Inactive)
REMARK    1  A    between atoms: C_1  and  N_2
REMARK    2  A    between atoms: C_11  and  C_12
REMARK    3  A    between atoms: C_16  and  N_17
REMARK    4  A    between atoms: N_17  and  C_18
REMARK    5  A    between atoms: C_18  and  C_19
REMARK    6  A    between atoms: C_18  and  C_22
REMARK    7  A    between atoms: C_19  and  C_20
REMARK    8  A    between atoms: C_20  and  N_21
REMARK                            x       y       z     vdW  Elec       q    Type
REMARK                         _______ _______ _______ _____ _____    ______ ____
ROOT
ATOM      1  C   UNL     1      -0.403  10.888  20.481  0.00  0.00    +0.000 A 
ATOM      2  C   UNL     1      -0.347  11.818  21.515  0.00  0.00    +0.000 A 
ATOM      3  C   UNL     1      -1.232  12.881  21.477  0.00  0.00    +0.000 A 
ATOM      4  C   UNL     1      -2.090  12.999  20.392  0.00  0.00    +0.000 A 
ATOM      5  C   UNL     1      -2.015  12.104  19.322  0.00  0.00    +0.000 A 
ATOM      6  N   UNL     1      -1.205  11.026  19.390  0.00  0.00    +0.000 NA
ENDROOT
BRANCH   1  17
ATOM      7  C   UNL     1       4.168   1.782  19.456  0.00  0.00    +0.000 C 
ATOM      8  N   UNL     1       3.994   3.161  19.895  0.00  0.00    +0.000 NA
ATOM      9  C   UNL     1       2.558   3.503  20.025  0.00  0.00    +0.000 C 
ATOM     10  C   UNL     1       2.340   4.965  20.488  0.00  0.00    +0.000 C 
ATOM     11  N   UNL     1       3.030   5.873  19.569  0.00  0.00    +0.000 N 
ATOM     12  C   UNL     1       2.522   7.111  19.211  0.00  0.00    +0.000 A 
ATOM     13  N   UNL     1       2.869   7.587  18.029  0.00  0.00    +0.000 NA
ATOM     14  C   UNL     1       2.346   8.788  17.600  0.00  0.00    +0.000 A 
ATOM     15  C   UNL     1       1.510   9.546  18.324  0.00  0.00    +0.000 A 
ATOM     16  N   UNL     1       1.142   9.103  19.580  0.00  0.00    +0.000 N 
ATOM     17  C   UNL     1       0.355   9.646  20.572  0.00  0.00    +0.000 A 
ATOM     18  C   UNL     1       0.462   8.737  21.617  0.00  0.00    +0.000 A 
ATOM     19  N   UNL     1       1.249   7.663  21.292  0.00  0.00    +0.000 NA
ATOM     20  C   UNL     1       1.630   7.908  20.054  0.00  0.00    +0.000 A 
ATOM     21  C   UNL     1       4.447   5.566  19.368  0.00  0.00    +0.000 C 
ATOM     22  C   UNL     1       4.621   4.099  18.935  0.00  0.00    +0.000 C 
ENDBRANCH   1  17
BRANCH   5  23
ATOM     23  N   UNL     1      -2.841  12.343  18.242  0.00  0.00    +0.000 N 
ATOM     24  H   UNL     1      -2.491  13.001  17.561  0.00  0.00    +0.000 HD
BRANCH  23  25
ATOM     25  C   UNL     1      -3.949  11.494  17.816  0.00  0.00    +0.000 C 
BRANCH  25  26
ATOM     26  C   UNL     1      -5.142  11.512  18.797  0.00  0.00    +0.000 A 
ATOM     27  C   UNL     1      -5.404  12.577  19.680  0.00  0.00    +0.000 A 
ATOM     28  C   UNL     1      -6.468  12.512  20.598  0.00  0.00    +0.000 A 
ATOM     29  C   UNL     1      -7.304  11.408  20.631  0.00  0.00    +0.000 A 
ATOM     30  C   UNL     1      -7.099  10.363  19.740  0.00  0.00    +0.000 A 
ATOM     31  C   UNL     1      -6.036  10.423  18.827  0.00  0.00    +0.000 A 
ENDBRANCH  25  26
BRANCH  25  32
ATOM     32  C   UNL     1      -3.371  10.057  17.650  0.00  0.00    +0.000 C 
BRANCH  32  33
ATOM     33  C   UNL     1      -2.597   9.859  16.338  0.00  0.00    +0.000 C 
BRANCH  33  34
ATOM     34  N   UNL     1      -2.605  11.075  15.525  0.00  0.00    +0.000 NA
ATOM     35  H   UNL     1      -1.937  11.745  15.905  0.00  0.00    +0.000 HD
ATOM     36  H   UNL     1      -3.520  11.518  15.600  0.00  0.00    +0.000 HD
ENDBRANCH  33  34
ENDBRANCH  32  33
ENDBRANCH  25  32
ENDBRANCH  23  25
ENDBRANCH   5  23
TORSDOF 7
ENDMDL
MODEL 6
REMARK VINA RESULT:      -8.5      1.626      3.447
REMARK  Name = 
REMARK  8 active torsions:
REMARK  status: ('A' for Active; 'I' for Inactive)
REMARK    1  A    between atoms: C_1  and  N_2
REMARK    2  A    between atoms: C_11  and  C_12
REMARK    3  A    between atoms: C_16  and  N_17
REMARK    4  A    between atoms: N_17  and  C_18
REMARK    5  A    between atoms: C_18  and  C_19
REMARK    6  A    between atoms: C_18  and  C_22
REMARK    7  A    between atoms: C_19  and  C_20
REMARK    8  A    between atoms: C_20  and  N_21
REMARK                            x       y       z     vdW  Elec       q    Type
REMARK                         _______ _______ _______ _____ _____    ______ ____
ROOT
ATOM      1  C   UNL     1       2.861   6.055  18.413  0.00  0.00    +0.000 A 
ATOM      2  C   UNL     1       2.588   5.137  19.421  0.00  0.00    +0.000 A 
ATOM      3  C   UNL     1       3.188   3.892  19.343  0.00  0.00    +0.000 A 
ATOM      4  C   UNL     1       3.985   3.603  18.244  0.00  0.00    +0.000 A 
ATOM      5  C   UNL     1       4.122   4.521  17.200  0.00  0.00    +0.000 A 
ATOM      6  N   UNL     1       3.599   5.760  17.308  0.00  0.00    +0.000 NA
ENDROOT
BRANCH   1  17
ATOM      7  C   UNL     1      -1.756  15.052  20.033  0.00  0.00    +0.000 C 
ATOM      8  N   UNL     1      -0.654  14.105  19.905  0.00  0.00    +0.000 NA
ATOM      9  C   UNL     1      -1.000  13.005  18.976  0.00  0.00    +0.000 C 
ATOM     10  C   UNL     1       0.151  11.980  18.822  0.00  0.00    +0.000 C 
ATOM     11  N   UNL     1       0.529  11.471  20.143  0.00  0.00    +0.000 N 
ATOM     12  C   UNL     1       0.915  10.160  20.363  0.00  0.00    +0.000 A 
ATOM     13  N   UNL     1       0.693   9.659  21.564  0.00  0.00    +0.000 NA
ATOM     14  C   UNL     1       1.006   8.341  21.819  0.00  0.00    +0.000 A 
ATOM     15  C   UNL     1       1.561   7.512  20.922  0.00  0.00    +0.000 A 
ATOM     16  N   UNL     1       1.838   8.001  19.660  0.00  0.00    +0.000 N 
ATOM     17  C   UNL     1       2.428   7.441  18.547  0.00  0.00    +0.000 A 
ATOM     18  C   UNL     1       2.485   8.489  17.638  0.00  0.00    +0.000 A 
ATOM     19  N   UNL     1       1.933   9.640  18.137  0.00  0.00    +0.000 NA
ATOM     20  C   UNL     1       1.540   9.307  19.351  0.00  0.00    +0.000 A 
ATOM     21  C   UNL     1       0.847  12.513  21.121  0.00  0.00    +0.000 C 
ATOM     22  C   UNL     1      -0.309  13.524  21.224  0.00  0.00    +0.000 C 
ENDBRANCH   1  17
BRANCH   5  23
ATOM     23  N   UNL     1       4.859   4.121  16.102  0.00  0.00    +0.000 N 
ATOM     24  H   UNL     1       4.352   4.068  15.231  0.00  0.00    +0.000 HD
BRANCH  23  25
ATOM     25  C   UNL     1       6.315   4.130  16.008  0.00  0.00    +0.000 C 
BRANCH  25  26
ATOM     26  C   UNL     1       6.983   5.122  16.986  0.00  0.00    +0.000 A 
ATOM     27  C   UNL     1       7.539   4.737  18.221  0.00  0.00    +0.000 A 
ATOM     28  C   UNL     1       8.077   5.693  19.103  0.00  0.00    +0.000 A 
ATOM     29  C   UNL     1       8.099   7.035  18.759  0.00  0.00    +0.000 A 
ATOM     30  C   UNL     1       7.600   7.438  17.527  0.00  0.00    +0.000 A 
ATOM     31  C   UNL     1       7.060   6.488  16.649  0.00  0.00    +0.000 A 
ENDBRANCH  25  26
BRANCH  25  32
ATOM     32  C   UNL     1       6.664   4.468  14.528  0.00  0.00    +0.000 C 
BRANCH  32  33
ATOM     33  C   UNL     1       5.644   3.917  13.520  0.00  0.00    +0.000 C 
BRANCH  33  34
ATOM     34  N   UNL     1       6.262   2.951  12.611  0.00  0.00    +0.000 NA
ATOM     35  H   UNL     1       7.136   3.332  12.249  0.00  0.00    +0.000 HD
ATOM     36  H   UNL     1       5.655   2.824  11.801  0.00  0.00    +0.000 HD
ENDBRANCH  33  34
ENDBRANCH  32  33
ENDBRANCH  25  32
ENDBRANCH  23  25
ENDBRANCH   5  23
TORSDOF 7
ENDMDL
MODEL 7
REMARK VINA RESULT:      -8.4      1.666      3.393
REMARK  Name = 
REMARK  8 active torsions:
REMARK  status: ('A' for Active; 'I' for Inactive)
REMARK    1  A    between atoms: C_1  and  N_2
REMARK    2  A    between atoms: C_11  and  C_12
REMARK    3  A    between atoms: C_16  and  N_17
REMARK    4  A    between atoms: N_17  and  C_18
REMARK    5  A    between atoms: C_18  and  C_19
REMARK    6  A    between atoms: C_18  and  C_22
REMARK    7  A    between atoms: C_19  and  C_20
REMARK    8  A    between atoms: C_20  and  N_21
REMARK                            x       y       z     vdW  Elec       q    Type
REMARK                         _______ _______ _______ _____ _____    ______ ____
ROOT
ATOM      1  C   UNL     1       2.506   6.374  18.924  0.00  0.00    +0.000 A 
ATOM      2  C   UNL     1       2.348   5.619  20.081  0.00  0.00    +0.000 A 
ATOM      3  C   UNL     1       2.851   4.330  20.087  0.00  0.00    +0.000 A 
ATOM      4  C   UNL     1       3.439   3.837  18.930  0.00  0.00    +0.000 A 
ATOM      5  C   UNL     1       3.457   4.598  17.758  0.00  0.00    +0.000 A 
ATOM      6  N   UNL     1       3.033   5.879  17.771  0.00  0.00    +0.000 NA
ENDROOT
BRANCH   1  17
ATOM      7  C   UNL     1      -1.347  15.825  19.765  0.00  0.00    +0.000 C 
ATOM      8  N   UNL     1      -0.326  14.787  19.694  0.00  0.00    +0.000 NA
ATOM      9  C   UNL     1      -0.798  13.627  18.902  0.00  0.00    +0.000 C 
ATOM     10  C   UNL     1       0.265  12.504  18.811  0.00  0.00    +0.000 C 
ATOM     11  N   UNL     1       0.668  12.106  20.161  0.00  0.00    +0.000 N 
ATOM     12  C   UNL     1       0.967  10.798  20.504  0.00  0.00    +0.000 A 
ATOM     13  N   UNL     1       0.768  10.442  21.760  0.00  0.00    +0.000 NA
ATOM     14  C   UNL     1       0.994   9.137  22.140  0.00  0.00    +0.000 A 
ATOM     15  C   UNL     1       1.441   8.180  21.315  0.00  0.00    +0.000 A 
ATOM     16  N   UNL     1       1.692   8.512  19.998  0.00  0.00    +0.000 N 
ATOM     17  C   UNL     1       2.184   7.796  18.928  0.00  0.00    +0.000 A 
ATOM     18  C   UNL     1       2.273   8.737  17.911  0.00  0.00    +0.000 A 
ATOM     19  N   UNL     1       1.833   9.973  18.306  0.00  0.00    +0.000 NA
ATOM     20  C   UNL     1       1.477   9.799  19.564  0.00  0.00    +0.000 A 
ATOM     21  C   UNL     1       1.111  13.215  21.009  0.00  0.00    +0.000 C 
ATOM     22  C   UNL     1       0.039  14.319  21.051  0.00  0.00    +0.000 C 
ENDBRANCH   1  17
BRANCH   5  23
ATOM     23  N   UNL     1       3.979   4.001  16.628  0.00  0.00    +0.000 N 
ATOM     24  H   UNL     1       3.304   3.713  15.935  0.00  0.00    +0.000 HD
BRANCH  23  25
ATOM     25  C   UNL     1       5.368   4.084  16.188  0.00  0.00    +0.000 C 
BRANCH  25  26
ATOM     26  C   UNL     1       6.200   5.111  16.988  0.00  0.00    +0.000 A 
ATOM     27  C   UNL     1       6.262   6.479  16.664  0.00  0.00    +0.000 A 
ATOM     28  C   UNL     1       7.088   7.359  17.388  0.00  0.00    +0.000 A 
ATOM     29  C   UNL     1       7.837   6.900  18.459  0.00  0.00    +0.000 A 
ATOM     30  C   UNL     1       7.760   5.564  18.832  0.00  0.00    +0.000 A 
ATOM     31  C   UNL     1       6.941   4.686  18.109  0.00  0.00    +0.000 A 
ENDBRANCH  25  26
BRANCH  25  32
ATOM     32  C   UNL     1       5.334   4.436  14.671  0.00  0.00    +0.000 C 
BRANCH  32  33
ATOM     33  C   UNL     1       6.594   3.990  13.913  0.00  0.00    +0.000 C 
BRANCH  33  34
ATOM     34  N   UNL     1       6.253   3.179  12.744  0.00  0.00    +0.000 NA
ATOM     35  H   UNL     1       6.405   3.722  11.895  0.00  0.00    +0.000 HD
ATOM     36  H   UNL     1       5.256   2.967  12.766  0.00  0.00    +0.000 HD
ENDBRANCH  33  34
ENDBRANCH  32  33
ENDBRANCH  25  32
ENDBRANCH  23  25
ENDBRANCH   5  23
TORSDOF 7
ENDMDL
MODEL 8
REMARK VINA RESULT:      -8.3      2.941      9.729
REMARK  Name = 
REMARK  8 active torsions:
REMARK  status: ('A' for Active; 'I' for Inactive)
REMARK    1  A    between atoms: C_1  and  N_2
REMARK    2  A    between atoms: C_11  and  C_12
REMARK    3  A    between atoms: C_16  and  N_17
REMARK    4  A    between atoms: N_17  and  C_18
REMARK    5  A    between atoms: C_18  and  C_19
REMARK    6  A    between atoms: C_18  and  C_22
REMARK    7  A    between atoms: C_19  and  C_20
REMARK    8  A    between atoms: C_20  and  N_21
REMARK                            x       y       z     vdW  Elec       q    Type
REMARK                         _______ _______ _______ _____ _____    ______ ____
ROOT
ATOM      1  C   UNL     1      -0.425  11.422  21.025  0.00  0.00    +0.000 A 
ATOM      2  C   UNL     1      -0.041  12.415  21.921  0.00  0.00    +0.000 A 
ATOM      3  C   UNL     1      -0.856  13.527  22.043  0.00  0.00    +0.000 A 
ATOM      4  C   UNL     1      -1.981  13.623  21.234  0.00  0.00    +0.000 A 
ATOM      5  C   UNL     1      -2.248  12.653  20.264  0.00  0.00    +0.000 A 
ATOM      6  N   UNL     1      -1.496  11.534  20.194  0.00  0.00    +0.000 NA
ENDROOT
BRANCH   1  17
ATOM      7  C   UNL     1       3.563   2.149  19.300  0.00  0.00    +0.000 C 
ATOM      8  N   UNL     1       3.504   3.521  19.789  0.00  0.00    +0.000 NA
ATOM      9  C   UNL     1       2.108   3.925  20.079  0.00  0.00    +0.000 C 
ATOM     10  C   UNL     1       2.011   5.381  20.597  0.00  0.00    +0.000 C 
ATOM     11  N   UNL     1       2.644   6.283  19.633  0.00  0.00    +0.000 N 
ATOM     12  C   UNL     1       2.163   7.553  19.360  0.00  0.00    +0.000 A 
ATOM     13  N   UNL     1       2.407   8.047  18.160  0.00  0.00    +0.000 NA
ATOM     14  C   UNL     1       1.901   9.283  17.819  0.00  0.00    +0.000 A 
ATOM     15  C   UNL     1       1.184  10.057  18.646  0.00  0.00    +0.000 A 
ATOM     16  N   UNL     1       0.929   9.595  19.923  0.00  0.00    +0.000 N 
ATOM     17  C   UNL     1       0.277  10.144  21.005  0.00  0.00    +0.000 A 
ATOM     18  C   UNL     1       0.448   9.201  22.010  0.00  0.00    +0.000 A 
ATOM     19  N   UNL     1       1.143   8.101  21.578  0.00  0.00    +0.000 NA
ATOM     20  C   UNL     1       1.404   8.365  20.313  0.00  0.00    +0.000 A 
ATOM     21  C   UNL     1       4.016   5.917  19.275  0.00  0.00    +0.000 C 
ATOM     22  C   UNL     1       4.072   4.457  18.790  0.00  0.00    +0.000 C 
ENDBRANCH   1  17
BRANCH   5  23
ATOM     23  N   UNL     1      -3.335  12.868  19.441  0.00  0.00    +0.000 N 
ATOM     24  H   UNL     1      -3.340  13.747  18.944  0.00  0.00    +0.000 HD
BRANCH  23  25
ATOM     25  C   UNL     1      -4.246  11.839  18.952  0.00  0.00    +0.000 C 
BRANCH  25  26
ATOM     26  C   UNL     1      -3.775  11.184  17.634  0.00  0.00    +0.000 A 
ATOM     27  C   UNL     1      -4.339  11.477  16.378  0.00  0.00    +0.000 A 
ATOM     28  C   UNL     1      -3.915  10.803  15.218  0.00  0.00    +0.000 A 
ATOM     29  C   UNL     1      -2.907   9.855  15.284  0.00  0.00    +0.000 A 
ATOM     30  C   UNL     1      -2.299   9.579  16.501  0.00  0.00    +0.000 A 
ATOM     31  C   UNL     1      -2.723  10.247  17.659  0.00  0.00    +0.000 A 
ENDBRANCH  25  26
BRANCH  25  32
ATOM     32  C   UNL     1      -5.638  12.519  18.784  0.00  0.00    +0.000 C 
BRANCH  32  33
ATOM     33  C   UNL     1      -5.958  13.535  19.890  0.00  0.00    +0.000 C 
BRANCH  33  34
ATOM     34  N   UNL     1      -5.613  14.896  19.480  0.00  0.00    +0.000 NA
ATOM     35  H   UNL     1      -6.390  15.304  18.961  0.00  0.00    +0.000 HD
ATOM     36  H   UNL     1      -4.830  14.858  18.828  0.00  0.00    +0.000 HD
ENDBRANCH  33  34
ENDBRANCH  32  33
ENDBRANCH  25  32
ENDBRANCH  23  25
ENDBRANCH   5  23
TORSDOF 7
ENDMDL
MODEL 9
REMARK VINA RESULT:      -8.3      1.624      3.347
REMARK  Name = 
REMARK  8 active torsions:
REMARK  status: ('A' for Active; 'I' for Inactive)
REMARK    1  A    between atoms: C_1  and  N_2
REMARK    2  A    between atoms: C_11  and  C_12
REMARK    3  A    between atoms: C_16  and  N_17
REMARK    4  A    between atoms: N_17  and  C_18
REMARK    5  A    between atoms: C_18  and  C_19
REMARK    6  A    between atoms: C_18  and  C_22
REMARK    7  A    between atoms: C_19  and  C_20
REMARK    8  A    between atoms: C_20  and  N_21
REMARK                            x       y       z     vdW  Elec       q    Type
REMARK                         _______ _______ _______ _____ _____    ______ ____
ROOT
ATOM      1  C   UNL     1       2.544   5.990  18.154  0.00  0.00    +0.000 A 
ATOM      2  C   UNL     1       1.517   5.052  18.193  0.00  0.00    +0.000 A 
ATOM      3  C   UNL     1       1.864   3.713  18.224  0.00  0.00    +0.000 A 
ATOM      4  C   UNL     1       3.208   3.369  18.163  0.00  0.00    +0.000 A 
ATOM      5  C   UNL     1       4.189   4.350  17.999  0.00  0.00    +0.000 A 
ATOM      6  N   UNL     1       3.859   5.658  18.042  0.00  0.00    +0.000 NA
ENDROOT
BRANCH   1  17
ATOM      7  C   UNL     1      -1.147  15.344  20.093  0.00  0.00    +0.000 C 
ATOM      8  N   UNL     1      -0.144  14.301  19.910  0.00  0.00    +0.000 NA
ATOM      9  C   UNL     1      -0.624  13.257  18.975  0.00  0.00    +0.000 C 
ATOM     10  C   UNL     1       0.419  12.132  18.762  0.00  0.00    +0.000 C 
ATOM     11  N   UNL     1       0.793  11.564  20.059  0.00  0.00    +0.000 N 
ATOM     12  C   UNL     1       1.061  10.218  20.243  0.00  0.00    +0.000 A 
ATOM     13  N   UNL     1       0.834   9.715  21.443  0.00  0.00    +0.000 NA
ATOM     14  C   UNL     1       1.030   8.369  21.663  0.00  0.00    +0.000 A 
ATOM     15  C   UNL     1       1.473   7.510  20.734  0.00  0.00    +0.000 A 
ATOM     16  N   UNL     1       1.752   7.996  19.471  0.00  0.00    +0.000 N 
ATOM     17  C   UNL     1       2.248   7.407  18.328  0.00  0.00    +0.000 A 
ATOM     18  C   UNL     1       2.373   8.463  17.436  0.00  0.00    +0.000 A 
ATOM     19  N   UNL     1       1.949   9.651  17.974  0.00  0.00    +0.000 NA
ATOM     20  C   UNL     1       1.568   9.330  19.195  0.00  0.00    +0.000 A 
ATOM     21  C   UNL     1       1.241  12.551  21.043  0.00  0.00    +0.000 C 
ATOM     22  C   UNL     1       0.189  13.663  21.205  0.00  0.00    +0.000 C 
ENDBRANCH   1  17
BRANCH   5  23
ATOM     23  N   UNL     1       5.493   3.919  17.856  0.00  0.00    +0.000 N 
ATOM     24  H   UNL     1       5.684   2.987  18.192  0.00  0.00    +0.000 HD
BRANCH  23  25
ATOM     25  C   UNL     1       6.489   4.508  16.967  0.00  0.00    +0.000 C 
BRANCH  25  26
ATOM     26  C   UNL     1       7.111   5.807  17.524  0.00  0.00    +0.000 A 
ATOM     27  C   UNL     1       7.011   7.054  16.879  0.00  0.00    +0.000 A 
ATOM     28  C   UNL     1       7.653   8.193  17.398  0.00  0.00    +0.000 A 
ATOM     29  C   UNL     1       8.374   8.117  18.579  0.00  0.00    +0.000 A 
ATOM     30  C   UNL     1       8.452   6.912  19.263  0.00  0.00    +0.000 A 
ATOM     31  C   UNL     1       7.816   5.774  18.744  0.00  0.00    +0.000 A 
ENDBRANCH  25  26
BRANCH  25  32
ATOM     32  C   UNL     1       5.777   4.757  15.603  0.00  0.00    +0.000 C 
BRANCH  32  33
ATOM     33  C   UNL     1       6.592   4.276  14.393  0.00  0.00    +0.000 C 
BRANCH  33  34
ATOM     34  N   UNL     1       7.595   5.266  13.999  0.00  0.00    +0.000 NA
ATOM     35  H   UNL     1       7.415   6.146  14.480  0.00  0.00    +0.000 HD
ATOM     36  H   UNL     1       7.492   5.464  13.004  0.00  0.00    +0.000 HD
ENDBRANCH  33  34
ENDBRANCH  32  33
ENDBRANCH  25  32
ENDBRANCH  23  25
ENDBRANCH   5  23
TORSDOF 7
ENDMDL
