MODEL 1
REMARK VINA RESULT:      -7.6      0.000      0.000
REMARK  Name = 
REMARK  8 active torsions:
REMARK  status: ('A' for Active; 'I' for Inactive)
REMARK    1  A    between atoms: C_2  and  C_3
REMARK    2  A    between atoms: C_3  and  N_4
REMARK    3  A    between atoms: C_5  and  C_7
REMARK    4  A    between atoms: C_7  and  N_8
REMARK    5  A    between atoms: C_9  and  C_11
REMARK    6  A    between atoms: N_19  and  C_20
REMARK    7  A    between atoms: C_20  and  C_21
REMARK    8  A    between atoms: C_21  and  C_22
REMARK                            x       y       z     vdW  Elec       q    Type
REMARK                         _______ _______ _______ _____ _____    ______ ____
ROOT
ATOM      1  N   UNL     1       5.619   4.190  18.000  0.00  0.00    +0.000 N 
ATOM      2  C   UNL     1       4.578   4.645  17.219  0.00  0.00    +0.000 C 
ATOM      3  O   UNL     1       4.735   5.334  16.215  0.00  0.00    +0.000 OA
ATOM      4  H   UNL     1       5.433   3.396  18.609  0.00  0.00    +0.000 HD
ENDROOT
BRANCH   1   5
ATOM      5  C   UNL     1       7.006   4.487  17.664  0.00  0.00    +0.000 C 
BRANCH   5   7
ATOM      6  O   UNL     1       7.958   5.453  19.669  0.00  0.00    +0.000 OA
ATOM      7  C   UNL     1       7.625   5.619  18.498  0.00  0.00    +0.000 C 
ATOM      8  N   UNL     1       7.735   6.833  17.851  0.00  0.00    +0.000 N 
ATOM      9  H   UNL     1       7.555   6.837  16.855  0.00  0.00    +0.000 HD
BRANCH   8  10
ATOM     10  C   UNL     1       8.365   7.970  18.492  0.00  0.00    +0.000 C 
BRANCH  10  11
ATOM     11  C   UNL     1       8.163   9.272  17.717  0.00  0.00    +0.000 C 
BRANCH  11  12
ATOM     12  C   UNL     1       8.843  10.432  18.406  0.00  0.00    +0.000 A 
ATOM     13  C   UNL     1       9.553  10.235  19.598  0.00  0.00    +0.000 A 
ATOM     14  C   UNL     1      10.129  11.319  20.265  0.00  0.00    +0.000 A 
ATOM     15  C   UNL     1       9.999  12.606  19.748  0.00  0.00    +0.000 A 
ATOM     16  C   UNL     1       9.299  12.812  18.560  0.00  0.00    +0.000 A 
ATOM     17  C   UNL     1       8.724  11.731  17.892  0.00  0.00    +0.000 A 
ENDBRANCH  11  12
ENDBRANCH  10  11
ENDBRANCH   8  10
ENDBRANCH   5   7
ENDBRANCH   1   5
BRANCH   2  18
ATOM     18  C   UNL     1       3.201   4.181  17.684  0.00  0.00    +0.000 C 
BRANCH  18  19
ATOM     19  N   UNL     1       2.437   5.284  18.222  0.00  0.00    +0.000 N 
ATOM     20  C   UNL     1       2.853   5.992  19.323  0.00  0.00    +0.000 C 
ATOM     21  O   UNL     1       3.829   5.643  19.983  0.00  0.00    +0.000 OA
ATOM     22  H   UNL     1       1.576   5.533  17.749  0.00  0.00    +0.000 HD
BRANCH  20  23
ATOM     23  C   UNL     1       2.039   7.179  19.734  0.00  0.00    +0.000 A 
ATOM     24  C   UNL     1       1.425   7.085  20.999  0.00  0.00    +0.000 A 
ATOM     25  C   UNL     1       0.634   8.119  21.496  0.00  0.00    +0.000 A 
ATOM     26  C   UNL     1       0.449   9.270  20.738  0.00  0.00    +0.000 A 
ATOM     27  C   UNL     1       1.065   9.392  19.489  0.00  0.00    +0.000 A 
ATOM     28 CL   UNL     1       0.786  10.871  18.628  0.00  0.00    +0.000 Cl
ATOM     29  C   UNL     1       1.869   8.356  18.977  0.00  0.00    +0.000 A 
ATOM     30 CL   UNL     1       2.666   8.591  17.451  0.00  0.00    +0.000 Cl
ENDBRANCH  20  23
ENDBRANCH  18  19
ENDBRANCH   2  18
TORSDOF 8
ENDMDL
MODEL 2
REMARK VINA RESULT:      -7.4      2.961      3.710
REMARK  Name = 
REMARK  8 active torsions:
REMARK  status: ('A' for Active; 'I' for Inactive)
REMARK    1  A    between atoms: C_2  and  C_3
REMARK    2  A    between atoms: C_3  and  N_4
REMARK    3  A    between atoms: C_5  and  C_7
REMARK    4  A    between atoms: C_7  and  N_8
REMARK    5  A    between atoms: C_9  and  C_11
REMARK    6  A    between atoms: N_19  and  C_20
REMARK    7  A    between atoms: C_20  and  C_21
REMARK    8  A    between atoms: C_21  and  C_22
REMARK                            x       y       z     vdW  Elec       q    Type
REMARK                         _______ _______ _______ _____ _____    ______ ____
ROOT
ATOM      1  N   UNL     1       6.352   6.364  16.706  0.00  0.00    +0.000 N 
ATOM      2  C   UNL     1       6.815   5.376  15.864  0.00  0.00    +0.000 C 
ATOM      3  O   UNL     1       7.712   5.548  15.044  0.00  0.00    +0.000 OA
ATOM      4  H   UNL     1       5.847   6.070  17.539  0.00  0.00    +0.000 HD
ENDROOT
BRANCH   1   5
ATOM      5  C   UNL     1       6.927   7.705  16.689  0.00  0.00    +0.000 C 
BRANCH   5   7
ATOM      6  O   UNL     1       8.271   7.109  18.612  0.00  0.00    +0.000 OA
ATOM      7  C   UNL     1       7.868   7.999  17.867  0.00  0.00    +0.000 C 
ATOM      8  N   UNL     1       8.185   9.330  18.047  0.00  0.00    +0.000 N 
ATOM      9  H   UNL     1       7.911   9.968  17.311  0.00  0.00    +0.000 HD
BRANCH   8  10
ATOM     10  C   UNL     1       9.119   9.745  19.075  0.00  0.00    +0.000 C 
BRANCH  10  11
ATOM     11  C   UNL     1       9.931  10.977  18.672  0.00  0.00    +0.000 C 
BRANCH  11  12
ATOM     12  C   UNL     1       9.630  12.152  19.571  0.00  0.00    +0.000 A 
ATOM     13  C   UNL     1       9.998  12.126  20.924  0.00  0.00    +0.000 A 
ATOM     14  C   UNL     1       9.664  13.188  21.767  0.00  0.00    +0.000 A 
ATOM     15  C   UNL     1       8.960  14.282  21.269  0.00  0.00    +0.000 A 
ATOM     16  C   UNL     1       8.595  14.320  19.924  0.00  0.00    +0.000 A 
ATOM     17  C   UNL     1       8.927  13.260  19.079  0.00  0.00    +0.000 A 
ENDBRANCH  11  12
ENDBRANCH  10  11
ENDBRANCH   8  10
ENDBRANCH   5   7
ENDBRANCH   1   5
BRANCH   2  18
ATOM     18  C   UNL     1       6.145   4.020  16.068  0.00  0.00    +0.000 C 
BRANCH  18  19
ATOM     19  N   UNL     1       5.031   4.126  16.984  0.00  0.00    +0.000 N 
ATOM     20  C   UNL     1       5.210   4.318  18.332  0.00  0.00    +0.000 C 
ATOM     21  O   UNL     1       6.326   4.282  18.846  0.00  0.00    +0.000 OA
ATOM     22  H   UNL     1       4.097   4.064  16.595  0.00  0.00    +0.000 HD
BRANCH  20  23
ATOM     23  C   UNL     1       3.988   4.516  19.174  0.00  0.00    +0.000 A 
ATOM     24  C   UNL     1       3.441   5.813  19.153  0.00  0.00    +0.000 A 
ATOM     25  C   UNL     1       2.307   6.131  19.899  0.00  0.00    +0.000 A 
ATOM     26  C   UNL     1       1.697   5.151  20.675  0.00  0.00    +0.000 A 
ATOM     27  C   UNL     1       2.212   3.852  20.694  0.00  0.00    +0.000 A 
ATOM     28 CL   UNL     1       1.372   2.699  21.679  0.00  0.00    +0.000 Cl
ATOM     29  C   UNL     1       3.355   3.518  19.942  0.00  0.00    +0.000 A 
ATOM     30 CL   UNL     1       3.909   1.871  19.949  0.00  0.00    +0.000 Cl
ENDBRANCH  20  23
ENDBRANCH  18  19
ENDBRANCH   2  18
TORSDOF 8
ENDMDL
MODEL 3
REMARK VINA RESULT:      -7.4      3.209      4.110
REMARK  Name = 
REMARK  8 active torsions:
REMARK  status: ('A' for Active; 'I' for Inactive)
REMARK    1  A    between atoms: C_2  and  C_3
REMARK    2  A    between atoms: C_3  and  N_4
REMARK    3  A    between atoms: C_5  and  C_7
REMARK    4  A    between atoms: C_7  and  N_8
REMARK    5  A    between atoms: C_9  and  C_11
REMARK    6  A    between atoms: N_19  and  C_20
REMARK    7  A    between atoms: C_20  and  C_21
REMARK    8  A    between atoms: C_21  and  C_22
REMARK                            x       y       z     vdW  Elec       q    Type
REMARK                         _______ _______ _______ _____ _____    ______ ____
ROOT
ATOM      1  N   UNL     1       7.021   5.031  17.481  0.00  0.00    +0.000 N 
ATOM      2  C   UNL     1       7.071   5.001  16.104  0.00  0.00    +0.000 C 
ATOM      3  O   UNL     1       7.840   5.688  15.437  0.00  0.00    +0.000 OA
ATOM      4  H   UNL     1       6.596   4.235  17.951  0.00  0.00    +0.000 HD
ENDROOT
BRANCH   1   5
ATOM      5  C   UNL     1       7.914   5.887  18.253  0.00  0.00    +0.000 C 
BRANCH   5   7
ATOM      6  O   UNL     1       6.649   7.817  17.523  0.00  0.00    +0.000 OA
ATOM      7  C   UNL     1       7.673   7.390  18.052  0.00  0.00    +0.000 C 
ATOM      8  N   UNL     1       8.703   8.211  18.464  0.00  0.00    +0.000 N 
ATOM      9  H   UNL     1       9.444   7.779  19.001  0.00  0.00    +0.000 HD
BRANCH   8  10
ATOM     10  C   UNL     1       8.583   9.654  18.399  0.00  0.00    +0.000 C 
BRANCH  10  11
ATOM     11  C   UNL     1       9.302  10.359  19.550  0.00  0.00    +0.000 C 
BRANCH  11  12
ATOM     12  C   UNL     1      10.336  11.333  19.038  0.00  0.00    +0.000 A 
ATOM     13  C   UNL     1      10.380  11.676  17.679  0.00  0.00    +0.000 A 
ATOM     14  C   UNL     1      11.374  12.530  17.198  0.00  0.00    +0.000 A 
ATOM     15  C   UNL     1      12.333  13.046  18.066  0.00  0.00    +0.000 A 
ATOM     16  C   UNL     1      12.295  12.716  19.420  0.00  0.00    +0.000 A 
ATOM     17  C   UNL     1      11.302  11.864  19.904  0.00  0.00    +0.000 A 
ENDBRANCH  11  12
ENDBRANCH  10  11
ENDBRANCH   8  10
ENDBRANCH   5   7
ENDBRANCH   1   5
BRANCH   2  18
ATOM     18  C   UNL     1       6.112   3.999  15.468  0.00  0.00    +0.000 C 
BRANCH  18  19
ATOM     19  N   UNL     1       5.197   3.462  16.450  0.00  0.00    +0.000 N 
ATOM     20  C   UNL     1       4.230   4.234  17.045  0.00  0.00    +0.000 C 
ATOM     21  O   UNL     1       4.174   5.448  16.868  0.00  0.00    +0.000 OA
ATOM     22  H   UNL     1       5.285   2.479  16.685  0.00  0.00    +0.000 HD
BRANCH  20  23
ATOM     23  C   UNL     1       3.271   3.553  17.973  0.00  0.00    +0.000 A 
ATOM     24  C   UNL     1       2.559   2.470  17.421  0.00  0.00    +0.000 A 
ATOM     25  C   UNL     1       1.631   1.756  18.176  0.00  0.00    +0.000 A 
ATOM     26  C   UNL     1       1.404   2.110  19.502  0.00  0.00    +0.000 A 
ATOM     27  C   UNL     1       2.115   3.169  20.075  0.00  0.00    +0.000 A 
ATOM     28 CL   UNL     1       1.773   3.523  21.737  0.00  0.00    +0.000 Cl
ATOM     29  C   UNL     1       3.057   3.896  19.323  0.00  0.00    +0.000 A 
ATOM     30 CL   UNL     1       3.961   5.157  20.107  0.00  0.00    +0.000 Cl
ENDBRANCH  20  23
ENDBRANCH  18  19
ENDBRANCH   2  18
TORSDOF 8
ENDMDL
MODEL 4
REMARK VINA RESULT:      -7.4      4.147      7.581
REMARK  Name = 
REMARK  8 active torsions:
REMARK  status: ('A' for Active; 'I' for Inactive)
REMARK    1  A    between atoms: C_2  and  C_3
REMARK    2  A    between atoms: C_3  and  N_4
REMARK    3  A    between atoms: C_5  and  C_7
REMARK    4  A    between atoms: C_7  and  N_8
REMARK    5  A    between atoms: C_9  and  C_11
REMARK    6  A    between atoms: N_19  and  C_20
REMARK    7  A    between atoms: C_20  and  C_21
REMARK    8  A    between atoms: C_21  and  C_22
REMARK                            x       y       z     vdW  Elec       q    Type
REMARK                         _______ _______ _______ _____ _____    ______ ____
ROOT
ATOM      1  N   UNL     1       2.559   4.034  20.170  0.00  0.00    +0.000 N 
ATOM      2  C   UNL     1       2.998   2.914  20.843  0.00  0.00    +0.000 C 
ATOM      3  O   UNL     1       2.671   2.643  21.995  0.00  0.00    +0.000 OA
ATOM      4  H   UNL     1       2.621   4.023  19.155  0.00  0.00    +0.000 HD
ENDROOT
BRANCH   1   5
ATOM      5  C   UNL     1       1.640   4.980  20.792  0.00  0.00    +0.000 C 
BRANCH   5   7
ATOM      6  O   UNL     1       2.533   6.762  19.418  0.00  0.00    +0.000 OA
ATOM      7  C   UNL     1       1.910   6.448  20.430  0.00  0.00    +0.000 C 
ATOM      8  N   UNL     1       1.445   7.373  21.342  0.00  0.00    +0.000 N 
ATOM      9  H   UNL     1       0.837   7.027  22.073  0.00  0.00    +0.000 HD
BRANCH   8  10
ATOM     10  C   UNL     1       1.568   8.796  21.095  0.00  0.00    +0.000 C 
BRANCH  10  11
ATOM     11  C   UNL     1       0.416   9.353  20.257  0.00  0.00    +0.000 C 
BRANCH  11  12
ATOM     12  C   UNL     1      -0.390  10.366  21.035  0.00  0.00    +0.000 A 
ATOM     13  C   UNL     1      -0.537  10.244  22.424  0.00  0.00    +0.000 A 
ATOM     14  C   UNL     1      -1.332  11.147  23.132  0.00  0.00    +0.000 A 
ATOM     15  C   UNL     1      -1.988  12.176  22.460  0.00  0.00    +0.000 A 
ATOM     16  C   UNL     1      -1.844  12.309  21.080  0.00  0.00    +0.000 A 
ATOM     17  C   UNL     1      -1.050  11.408  20.370  0.00  0.00    +0.000 A 
ENDBRANCH  11  12
ENDBRANCH  10  11
ENDBRANCH   8  10
ENDBRANCH   5   7
ENDBRANCH   1   5
BRANCH   2  18
ATOM     18  C   UNL     1       3.900   2.003  20.015  0.00  0.00    +0.000 C 
BRANCH  18  19
ATOM     19  N   UNL     1       4.769   2.777  19.157  0.00  0.00    +0.000 N 
ATOM     20  C   UNL     1       4.374   3.208  17.915  0.00  0.00    +0.000 C 
ATOM     21  O   UNL     1       3.310   2.850  17.417  0.00  0.00    +0.000 OA
ATOM     22  H   UNL     1       5.692   3.007  19.510  0.00  0.00    +0.000 HD
BRANCH  20  23
ATOM     23  C   UNL     1       5.316   4.089  17.153  0.00  0.00    +0.000 A 
ATOM     24  C   UNL     1       5.489   3.758  15.795  0.00  0.00    +0.000 A 
ATOM     25  C   UNL     1       6.344   4.494  14.977  0.00  0.00    +0.000 A 
ATOM     26  C   UNL     1       7.036   5.580  15.503  0.00  0.00    +0.000 A 
ATOM     27  C   UNL     1       6.863   5.937  16.843  0.00  0.00    +0.000 A 
ATOM     28 CL   UNL     1       7.756   7.314  17.401  0.00  0.00    +0.000 Cl
ATOM     29  C   UNL     1       5.999   5.203  17.679  0.00  0.00    +0.000 A 
ATOM     30 CL   UNL     1       5.769   5.734  19.318  0.00  0.00    +0.000 Cl
ENDBRANCH  20  23
ENDBRANCH  18  19
ENDBRANCH   2  18
TORSDOF 8
ENDMDL
MODEL 5
REMARK VINA RESULT:      -7.4      4.219      6.688
REMARK  Name = 
REMARK  8 active torsions:
REMARK  status: ('A' for Active; 'I' for Inactive)
REMARK    1  A    between atoms: C_2  and  C_3
REMARK    2  A    between atoms: C_3  and  N_4
REMARK    3  A    between atoms: C_5  and  C_7
REMARK    4  A    between atoms: C_7  and  N_8
REMARK    5  A    between atoms: C_9  and  C_11
REMARK    6  A    between atoms: N_19  and  C_20
REMARK    7  A    between atoms: C_20  and  C_21
REMARK    8  A    between atoms: C_21  and  C_22
REMARK                            x       y       z     vdW  Elec       q    Type
REMARK                         _______ _______ _______ _____ _____    ______ ____
ROOT
ATOM      1  N   UNL     1       2.326   3.521  19.978  0.00  0.00    +0.000 N 
ATOM      2  C   UNL     1       1.909   2.454  19.211  0.00  0.00    +0.000 C 
ATOM      3  O   UNL     1       0.734   2.236  18.932  0.00  0.00    +0.000 OA
ATOM      4  H   UNL     1       3.302   3.797  19.903  0.00  0.00    +0.000 HD
ENDROOT
BRANCH   1   5
ATOM      5  C   UNL     1       1.375   4.494  20.503  0.00  0.00    +0.000 C 
BRANCH   5   7
ATOM      6  O   UNL     1       1.496   6.860  21.000  0.00  0.00    +0.000 OA
ATOM      7  C   UNL     1       1.744   5.955  20.206  0.00  0.00    +0.000 C 
ATOM      8  N   UNL     1       2.326   6.175  18.974  0.00  0.00    +0.000 N 
ATOM      9  H   UNL     1       2.605   5.357  18.448  0.00  0.00    +0.000 HD
BRANCH   8  10
ATOM     10  C   UNL     1       2.789   7.494  18.589  0.00  0.00    +0.000 C 
BRANCH  10  11
ATOM     11  C   UNL     1       1.864   8.174  17.580  0.00  0.00    +0.000 C 
BRANCH  11  12
ATOM     12  C   UNL     1       1.398   9.520  18.082  0.00  0.00    +0.000 A 
ATOM     13  C   UNL     1       0.065   9.712  18.472  0.00  0.00    +0.000 A 
ATOM     14  C   UNL     1      -0.377  10.973  18.878  0.00  0.00    +0.000 A 
ATOM     15  C   UNL     1       0.505  12.051  18.897  0.00  0.00    +0.000 A 
ATOM     16  C   UNL     1       1.834  11.869  18.517  0.00  0.00    +0.000 A 
ATOM     17  C   UNL     1       2.279  10.610  18.111  0.00  0.00    +0.000 A 
ENDBRANCH  11  12
ENDBRANCH  10  11
ENDBRANCH   8  10
ENDBRANCH   5   7
ENDBRANCH   1   5
BRANCH   2  18
ATOM     18  C   UNL     1       3.046   1.579  18.692  0.00  0.00    +0.000 C 
BRANCH  18  19
ATOM     19  N   UNL     1       4.133   2.388  18.187  0.00  0.00    +0.000 N 
ATOM     20  C   UNL     1       3.929   3.412  17.296  0.00  0.00    +0.000 C 
ATOM     21  O   UNL     1       2.831   3.611  16.784  0.00  0.00    +0.000 OA
ATOM     22  H   UNL     1       5.067   2.181  18.525  0.00  0.00    +0.000 HD
BRANCH  20  23
ATOM     23  C   UNL     1       5.111   4.250  16.918  0.00  0.00    +0.000 A 
ATOM     24  C   UNL     1       5.462   4.223  15.555  0.00  0.00    +0.000 A 
ATOM     25  C   UNL     1       6.547   4.954  15.074  0.00  0.00    +0.000 A 
ATOM     26  C   UNL     1       7.296   5.732  15.950  0.00  0.00    +0.000 A 
ATOM     27  C   UNL     1       6.952   5.788  17.304  0.00  0.00    +0.000 A 
ATOM     28 CL   UNL     1       7.937   6.798  18.313  0.00  0.00    +0.000 Cl
ATOM     29  C   UNL     1       5.856   5.057  17.801  0.00  0.00    +0.000 A 
ATOM     30 CL   UNL     1       5.433   5.220  19.479  0.00  0.00    +0.000 Cl
ENDBRANCH  20  23
ENDBRANCH  18  19
ENDBRANCH   2  18
TORSDOF 8
ENDMDL
MODEL 6
REMARK VINA RESULT:      -7.4      4.193      7.153
REMARK  Name = 
REMARK  8 active torsions:
REMARK  status: ('A' for Active; 'I' for Inactive)
REMARK    1  A    between atoms: C_2  and  C_3
REMARK    2  A    between atoms: C_3  and  N_4
REMARK    3  A    between atoms: C_5  and  C_7
REMARK    4  A    between atoms: C_7  and  N_8
REMARK    5  A    between atoms: C_9  and  C_11
REMARK    6  A    between atoms: N_19  and  C_20
REMARK    7  A    between atoms: C_20  and  C_21
REMARK    8  A    between atoms: C_21  and  C_22
REMARK                            x       y       z     vdW  Elec       q    Type
REMARK                         _______ _______ _______ _____ _____    ______ ____
ROOT
ATOM      1  N   UNL     1       3.145   2.975  20.370  0.00  0.00    +0.000 N 
ATOM      2  C   UNL     1       2.478   2.076  19.566  0.00  0.00    +0.000 C 
ATOM      3  O   UNL     1       1.264   1.898  19.608  0.00  0.00    +0.000 OA
ATOM      4  H   UNL     1       4.068   3.279  20.067  0.00  0.00    +0.000 HD
ENDROOT
BRANCH   1   5
ATOM      5  C   UNL     1       2.431   3.806  21.333  0.00  0.00    +0.000 C 
BRANCH   5   7
ATOM      6  O   UNL     1       0.575   4.962  20.294  0.00  0.00    +0.000 OA
ATOM      7  C   UNL     1       1.729   5.023  20.712  0.00  0.00    +0.000 C 
ATOM      8  N   UNL     1       2.502   6.163  20.620  0.00  0.00    +0.000 N 
ATOM      9  H   UNL     1       3.390   6.153  21.104  0.00  0.00    +0.000 HD
BRANCH   8  10
ATOM     10  C   UNL     1       1.947   7.406  20.120  0.00  0.00    +0.000 C 
BRANCH  10  11
ATOM     11  C   UNL     1       1.339   8.268  21.226  0.00  0.00    +0.000 C 
BRANCH  11  12
ATOM     12  C   UNL     1       0.553   9.423  20.652  0.00  0.00    +0.000 A 
ATOM     13  C   UNL     1       0.637   9.734  19.287  0.00  0.00    +0.000 A 
ATOM     14  C   UNL     1      -0.043  10.839  18.771  0.00  0.00    +0.000 A 
ATOM     15  C   UNL     1      -0.810  11.643  19.611  0.00  0.00    +0.000 A 
ATOM     16  C   UNL     1      -0.905  11.339  20.968  0.00  0.00    +0.000 A 
ATOM     17  C   UNL     1      -0.227  10.235  21.487  0.00  0.00    +0.000 A 
ENDBRANCH  11  12
ENDBRANCH  10  11
ENDBRANCH   8  10
ENDBRANCH   5   7
ENDBRANCH   1   5
BRANCH   2  18
ATOM     18  C   UNL     1       3.376   1.343  18.573  0.00  0.00    +0.000 C 
BRANCH  18  19
ATOM     19  N   UNL     1       4.357   2.240  18.003  0.00  0.00    +0.000 N 
ATOM     20  C   UNL     1       3.998   3.364  17.302  0.00  0.00    +0.000 C 
ATOM     21  O   UNL     1       2.827   3.598  17.014  0.00  0.00    +0.000 OA
ATOM     22  H   UNL     1       5.336   2.016  18.147  0.00  0.00    +0.000 HD
BRANCH  20  23
ATOM     23  C   UNL     1       5.094   4.276  16.843  0.00  0.00    +0.000 A 
ATOM     24  C   UNL     1       5.357   4.259  15.460  0.00  0.00    +0.000 A 
ATOM     25  C   UNL     1       6.357   5.056  14.905  0.00  0.00    +0.000 A 
ATOM     26  C   UNL     1       7.107   5.890  15.726  0.00  0.00    +0.000 A 
ATOM     27  C   UNL     1       6.850   5.937  17.099  0.00  0.00    +0.000 A 
ATOM     28 CL   UNL     1       7.828   7.019  18.036  0.00  0.00    +0.000 Cl
ATOM     29  C   UNL     1       5.840   5.139  17.671  0.00  0.00    +0.000 A 
ATOM     30 CL   UNL     1       5.517   5.289  19.372  0.00  0.00    +0.000 Cl
ENDBRANCH  20  23
ENDBRANCH  18  19
ENDBRANCH   2  18
TORSDOF 8
ENDMDL
MODEL 7
REMARK VINA RESULT:      -7.3      4.206      6.991
REMARK  Name = 
REMARK  8 active torsions:
REMARK  status: ('A' for Active; 'I' for Inactive)
REMARK    1  A    between atoms: C_2  and  C_3
REMARK    2  A    between atoms: C_3  and  N_4
REMARK    3  A    between atoms: C_5  and  C_7
REMARK    4  A    between atoms: C_7  and  N_8
REMARK    5  A    between atoms: C_9  and  C_11
REMARK    6  A    between atoms: N_19  and  C_20
REMARK    7  A    between atoms: C_20  and  C_21
REMARK    8  A    between atoms: C_21  and  C_22
REMARK                            x       y       z     vdW  Elec       q    Type
REMARK                         _______ _______ _______ _____ _____    ______ ____
ROOT
ATOM      1  N   UNL     1       2.403   4.153  19.951  0.00  0.00    +0.000 N 
ATOM      2  C   UNL     1       2.284   2.798  20.174  0.00  0.00    +0.000 C 
ATOM      3  O   UNL     1       1.618   2.317  21.086  0.00  0.00    +0.000 OA
ATOM      4  H   UNL     1       2.703   4.449  19.025  0.00  0.00    +0.000 HD
ENDROOT
BRANCH   1   5
ATOM      5  C   UNL     1       1.711   5.124  20.791  0.00  0.00    +0.000 C 
BRANCH   5   7
ATOM      6  O   UNL     1       1.415   7.520  20.970  0.00  0.00    +0.000 OA
ATOM      7  C   UNL     1       1.835   6.576  20.305  0.00  0.00    +0.000 C 
ATOM      8  N   UNL     1       2.405   6.731  19.058  0.00  0.00    +0.000 N 
ATOM      9  H   UNL     1       2.834   5.912  18.646  0.00  0.00    +0.000 HD
BRANCH   8  10
ATOM     10  C   UNL     1       2.649   8.049  18.504  0.00  0.00    +0.000 C 
BRANCH  10  11
ATOM     11  C   UNL     1       1.536   8.509  17.562  0.00  0.00    +0.000 C 
BRANCH  11  12
ATOM     12  C   UNL     1       0.731   9.632  18.170  0.00  0.00    +0.000 A 
ATOM     13  C   UNL     1       1.311  10.497  19.108  0.00  0.00    +0.000 A 
ATOM     14  C   UNL     1       0.548  11.498  19.714  0.00  0.00    +0.000 A 
ATOM     15  C   UNL     1      -0.799  11.641  19.391  0.00  0.00    +0.000 A 
ATOM     16  C   UNL     1      -1.384  10.790  18.455  0.00  0.00    +0.000 A 
ATOM     17  C   UNL     1      -0.624   9.790  17.848  0.00  0.00    +0.000 A 
ENDBRANCH  11  12
ENDBRANCH  10  11
ENDBRANCH   8  10
ENDBRANCH   5   7
ENDBRANCH   1   5
BRANCH   2  18
ATOM     18  C   UNL     1       3.021   1.932  19.157  0.00  0.00    +0.000 C 
BRANCH  18  19
ATOM     19  N   UNL     1       4.096   2.670  18.531  0.00  0.00    +0.000 N 
ATOM     20  C   UNL     1       3.885   3.490  17.450  0.00  0.00    +0.000 C 
ATOM     21  O   UNL     1       2.798   3.539  16.880  0.00  0.00    +0.000 OA
ATOM     22  H   UNL     1       5.024   2.572  18.927  0.00  0.00    +0.000 HD
BRANCH  20  23
ATOM     23  C   UNL     1       5.049   4.285  16.945  0.00  0.00    +0.000 A 
ATOM     24  C   UNL     1       5.338   4.133  15.575  0.00  0.00    +0.000 A 
ATOM     25  C   UNL     1       6.400   4.812  14.981  0.00  0.00    +0.000 A 
ATOM     26  C   UNL     1       7.189   5.663  15.748  0.00  0.00    +0.000 A 
ATOM     27  C   UNL     1       6.907   5.844  17.106  0.00  0.00    +0.000 A 
ATOM     28 CL   UNL     1       7.937   6.936  17.973  0.00  0.00    +0.000 Cl
ATOM     29  C   UNL     1       5.835   5.165  17.716  0.00  0.00    +0.000 A 
ATOM     30 CL   UNL     1       5.488   5.482  19.390  0.00  0.00    +0.000 Cl
ENDBRANCH  20  23
ENDBRANCH  18  19
ENDBRANCH   2  18
TORSDOF 8
ENDMDL
MODEL 8
REMARK VINA RESULT:      -7.3      4.251      7.631
REMARK  Name = 
REMARK  8 active torsions:
REMARK  status: ('A' for Active; 'I' for Inactive)
REMARK    1  A    between atoms: C_2  and  C_3
REMARK    2  A    between atoms: C_3  and  N_4
REMARK    3  A    between atoms: C_5  and  C_7
REMARK    4  A    between atoms: C_7  and  N_8
REMARK    5  A    between atoms: C_9  and  C_11
REMARK    6  A    between atoms: N_19  and  C_20
REMARK    7  A    between atoms: C_20  and  C_21
REMARK    8  A    between atoms: C_21  and  C_22
REMARK                            x       y       z     vdW  Elec       q    Type
REMARK                         _______ _______ _______ _____ _____    ______ ____
ROOT
ATOM      1  N   UNL     1       2.517   4.048  20.112  0.00  0.00    +0.000 N 
ATOM      2  C   UNL     1       2.857   2.802  20.593  0.00  0.00    +0.000 C 
ATOM      3  O   UNL     1       2.675   2.450  21.755  0.00  0.00    +0.000 OA
ATOM      4  H   UNL     1       2.414   4.148  19.105  0.00  0.00    +0.000 HD
ENDROOT
BRANCH   1   5
ATOM      5  C   UNL     1       1.883   5.044  20.969  0.00  0.00    +0.000 C 
BRANCH   5   7
ATOM      6  O   UNL     1       2.282   6.697  19.245  0.00  0.00    +0.000 OA
ATOM      7  C   UNL     1       1.879   6.464  20.383  0.00  0.00    +0.000 C 
ATOM      8  N   UNL     1       1.437   7.451  21.240  0.00  0.00    +0.000 N 
ATOM      9  H   UNL     1       1.008   7.147  22.105  0.00  0.00    +0.000 HD
BRANCH   8  10
ATOM     10  C   UNL     1       1.313   8.826  20.798  0.00  0.00    +0.000 C 
BRANCH  10  11
ATOM     11  C   UNL     1       0.219   9.590  21.546  0.00  0.00    +0.000 C 
BRANCH  11  12
ATOM     12  C   UNL     1      -0.565  10.481  20.611  0.00  0.00    +0.000 A 
ATOM     13  C   UNL     1      -1.154  11.663  21.082  0.00  0.00    +0.000 A 
ATOM     14  C   UNL     1      -1.929  12.454  20.231  0.00  0.00    +0.000 A 
ATOM     15  C   UNL     1      -2.123  12.071  18.906  0.00  0.00    +0.000 A 
ATOM     16  C   UNL     1      -1.537  10.901  18.427  0.00  0.00    +0.000 A 
ATOM     17  C   UNL     1      -0.762  10.109  19.275  0.00  0.00    +0.000 A 
ENDBRANCH  11  12
ENDBRANCH  10  11
ENDBRANCH   8  10
ENDBRANCH   5   7
ENDBRANCH   1   5
BRANCH   2  18
ATOM     18  C   UNL     1       3.447   1.868  19.540  0.00  0.00    +0.000 C 
BRANCH  18  19
ATOM     19  N   UNL     1       4.417   2.559  18.721  0.00  0.00    +0.000 N 
ATOM     20  C   UNL     1       4.058   3.255  17.594  0.00  0.00    +0.000 C 
ATOM     21  O   UNL     1       2.912   3.220  17.152  0.00  0.00    +0.000 OA
ATOM     22  H   UNL     1       5.388   2.523  19.014  0.00  0.00    +0.000 HD
BRANCH  20  23
ATOM     23  C   UNL     1       5.129   4.018  16.877  0.00  0.00    +0.000 A 
ATOM     24  C   UNL     1       5.435   3.560  15.581  0.00  0.00    +0.000 A 
ATOM     25  C   UNL     1       6.419   4.178  14.810  0.00  0.00    +0.000 A 
ATOM     26  C   UNL     1       7.108   5.271  15.322  0.00  0.00    +0.000 A 
ATOM     27  C   UNL     1       6.807   5.754  16.599  0.00  0.00    +0.000 A 
ATOM     28 CL   UNL     1       7.710   7.130  17.142  0.00  0.00    +0.000 Cl
ATOM     29  C   UNL     1       5.813   5.140  17.386  0.00  0.00    +0.000 A 
ATOM     30 CL   UNL     1       5.432   5.825  18.937  0.00  0.00    +0.000 Cl
ENDBRANCH  20  23
ENDBRANCH  18  19
ENDBRANCH   2  18
TORSDOF 8
ENDMDL
MODEL 9
REMARK VINA RESULT:      -7.2      3.514      8.292
REMARK  Name = 
REMARK  8 active torsions:
REMARK  status: ('A' for Active; 'I' for Inactive)
REMARK    1  A    between atoms: C_2  and  C_3
REMARK    2  A    between atoms: C_3  and  N_4
REMARK    3  A    between atoms: C_5  and  C_7
REMARK    4  A    between atoms: C_7  and  N_8
REMARK    5  A    between atoms: C_9  and  C_11
REMARK    6  A    between atoms: N_19  and  C_20
REMARK    7  A    between atoms: C_20  and  C_21
REMARK    8  A    between atoms: C_21  and  C_22
REMARK                            x       y       z     vdW  Elec       q    Type
REMARK                         _______ _______ _______ _____ _____    ______ ____
ROOT
ATOM      1  N   UNL     1       7.578   6.520  16.939  0.00  0.00    +0.000 N 
ATOM      2  C   UNL     1       8.016   7.387  17.917  0.00  0.00    +0.000 C 
ATOM      3  O   UNL     1       8.350   7.028  19.042  0.00  0.00    +0.000 OA
ATOM      4  H   UNL     1       7.619   6.843  15.975  0.00  0.00    +0.000 HD
ENDROOT
BRANCH   1   5
ATOM      5  C   UNL     1       7.502   5.083  17.178  0.00  0.00    +0.000 C 
BRANCH   5   7
ATOM      6  O   UNL     1       5.903   4.064  18.683  0.00  0.00    +0.000 OA
ATOM      7  C   UNL     1       6.108   4.588  17.590  0.00  0.00    +0.000 C 
ATOM      8  N   UNL     1       5.126   4.734  16.632  0.00  0.00    +0.000 N 
ATOM      9  H   UNL     1       5.360   5.290  15.819  0.00  0.00    +0.000 HD
BRANCH   8  10
ATOM     10  C   UNL     1       3.749   4.375  16.910  0.00  0.00    +0.000 C 
BRANCH  10  11
ATOM     11  C   UNL     1       3.075   5.332  17.893  0.00  0.00    +0.000 C 
BRANCH  11  12
ATOM     12  C   UNL     1       2.379   4.580  19.003  0.00  0.00    +0.000 A 
ATOM     13  C   UNL     1       2.737   4.794  20.341  0.00  0.00    +0.000 A 
ATOM     14  C   UNL     1       2.135   4.053  21.361  0.00  0.00    +0.000 A 
ATOM     15  C   UNL     1       1.174   3.093  21.052  0.00  0.00    +0.000 A 
ATOM     16  C   UNL     1       0.807   2.877  19.725  0.00  0.00    +0.000 A 
ATOM     17  C   UNL     1       1.407   3.616  18.705  0.00  0.00    +0.000 A 
ENDBRANCH  11  12
ENDBRANCH  10  11
ENDBRANCH   8  10
ENDBRANCH   5   7
ENDBRANCH   1   5
BRANCH   2  18
ATOM     18  C   UNL     1       8.094   8.843  17.468  0.00  0.00    +0.000 C 
BRANCH  18  19
ATOM     19  N   UNL     1       8.363   9.716  18.589  0.00  0.00    +0.000 N 
ATOM     20  C   UNL     1       9.310  10.708  18.531  0.00  0.00    +0.000 C 
ATOM     21  O   UNL     1      10.067  10.821  17.571  0.00  0.00    +0.000 OA
ATOM     22  H   UNL     1       7.814   9.581  19.431  0.00  0.00    +0.000 HD
BRANCH  20  23
ATOM     23  C   UNL     1       9.435  11.619  19.713  0.00  0.00    +0.000 A 
ATOM     24  C   UNL     1       9.026  11.073  20.946  0.00  0.00    +0.000 A 
ATOM     25  C   UNL     1       9.085  11.819  22.121  0.00  0.00    +0.000 A 
ATOM     26  C   UNL     1       9.562  13.125  22.085  0.00  0.00    +0.000 A 
ATOM     27  C   UNL     1       9.991  13.680  20.875  0.00  0.00    +0.000 A 
ATOM     28 CL   UNL     1      10.583  15.308  20.936  0.00  0.00    +0.000 Cl
ATOM     29  C   UNL     1       9.939  12.935  19.682  0.00  0.00    +0.000 A 
ATOM     30 CL   UNL     1      10.551  13.651  18.221  0.00  0.00    +0.000 Cl
ENDBRANCH  20  23
ENDBRANCH  18  19
ENDBRANCH   2  18
TORSDOF 8
ENDMDL
