MODEL 1
REMARK VINA RESULT:      -8.0      0.000      0.000
REMARK  Name = 
REMARK  9 active torsions:
REMARK  status: ('A' for Active; 'I' for Inactive)
REMARK    1  A    between atoms: C_1  and  O_2
REMARK    2  A    between atoms: O_2  and  C_3
REMARK    3  A    between atoms: C_3  and  C_4
REMARK    4  A    between atoms: C_4  and  C_5
REMARK    5  A    between atoms: C_4  and  O_6
REMARK    6  A    between atoms: O_6  and  C_7
REMARK    7  A    between atoms: C_13  and  C_14
REMARK    8  A    between atoms: C_16  and  N_17
REMARK    9  A    between atoms: C_21  and  C_22
REMARK                            x       y       z     vdW  Elec       q    Type
REMARK                         _______ _______ _______ _____ _____    ______ ____
ROOT
ATOM      1  C   UNL     1       2.118   6.769  20.026  0.00  0.00    +0.000 A 
ATOM      2  C   UNL     1       1.356   5.923  20.832  0.00  0.00    +0.000 A 
ATOM      3  C   UNL     1       1.524   4.532  20.799  0.00  0.00    +0.000 A 
ATOM      4  C   UNL     1       2.543   4.034  19.993  0.00  0.00    +0.000 A 
ATOM      5  N   UNL     1       2.935   2.755  19.729  0.00  0.00    +0.000 N 
ATOM      6  N   UNL     1       4.014   2.660  18.945  0.00  0.00    +0.000 NA
ATOM      7  C   UNL     1       4.340   3.941  18.661  0.00  0.00    +0.000 A 
ATOM      8  C   UNL     1       3.400   4.844  19.264  0.00  0.00    +0.000 A 
ATOM      9  C   UNL     1       3.187   6.243  19.283  0.00  0.00    +0.000 A 
ATOM     10  H   UNL     1       2.506   1.899  20.064  0.00  0.00    +0.000 HD
ENDROOT
BRANCH   7  11
ATOM     11  C   UNL     1       5.542   4.257  17.867  0.00  0.00    +0.000 A 
ATOM     12  C   UNL     1       5.443   4.361  16.503  0.00  0.00    +0.000 A 
ATOM     13  C   UNL     1       6.602   4.550  15.780  0.00  0.00    +0.000 A 
ATOM     14  N   UNL     1       7.790   4.624  16.399  0.00  0.00    +0.000 NA
ATOM     15  C   UNL     1       7.783   4.549  17.739  0.00  0.00    +0.000 A 
ATOM     16  N   UNL     1       6.712   4.363  18.520  0.00  0.00    +0.000 NA
BRANCH  13  17
ATOM     17  N   UNL     1       6.550   4.580  14.410  0.00  0.00    +0.000 N 
ATOM     18  C   UNL     1       7.523   5.338  13.630  0.00  0.00    +0.000 C 
ATOM     19  C   UNL     1       7.923   4.454  12.433  0.00  0.00    +0.000 C 
ATOM     20  O   UNL     1       6.775   4.074  11.645  0.00  0.00    +0.000 OA
ATOM     21  C   UNL     1       5.816   3.344  12.442  0.00  0.00    +0.000 C 
ATOM     22  C   UNL     1       4.630   3.007  11.552  0.00  0.00    +0.000 C 
ATOM     23  C   UNL     1       5.361   4.170  13.663  0.00  0.00    +0.000 C 
ENDBRANCH  13  17
ENDBRANCH   7  11
BRANCH   1  24
ATOM     24  O   UNL     1       1.927   8.127  19.913  0.00  0.00    +0.000 OA
BRANCH  24  25
ATOM     25  C   UNL     1       0.847   8.699  20.680  0.00  0.00    +0.000 C 
ATOM     26  C   UNL     1       1.389   9.039  22.067  0.00  0.00    +0.000 C 
BRANCH  25  27
ATOM     27  C   UNL     1       0.317   9.988  20.026  0.00  0.00    +0.000 C 
BRANCH  27  29
ATOM     28  C   UNL     1       1.565  11.428  18.637  0.00  0.00    +0.000 C 
ATOM     29  O   UNL     1       0.876  10.185  18.724  0.00  0.00    +0.000 OA
ENDBRANCH  27  29
ENDBRANCH  25  27
ENDBRANCH  24  25
ENDBRANCH   1  24
TORSDOF 6
ENDMDL
MODEL 2
REMARK VINA RESULT:      -7.6      5.079     10.680
REMARK  Name = 
REMARK  9 active torsions:
REMARK  status: ('A' for Active; 'I' for Inactive)
REMARK    1  A    between atoms: C_1  and  O_2
REMARK    2  A    between atoms: O_2  and  C_3
REMARK    3  A    between atoms: C_3  and  C_4
REMARK    4  A    between atoms: C_4  and  C_5
REMARK    5  A    between atoms: C_4  and  O_6
REMARK    6  A    between atoms: O_6  and  C_7
REMARK    7  A    between atoms: C_13  and  C_14
REMARK    8  A    between atoms: C_16  and  N_17
REMARK    9  A    between atoms: C_21  and  C_22
REMARK                            x       y       z     vdW  Elec       q    Type
REMARK                         _______ _______ _______ _____ _____    ______ ____
ROOT
ATOM      1  C   UNL     1       2.941   6.291  19.252  0.00  0.00    +0.000 A 
ATOM      2  C   UNL     1       3.489   6.666  18.025  0.00  0.00    +0.000 A 
ATOM      3  C   UNL     1       3.110   7.853  17.385  0.00  0.00    +0.000 A 
ATOM      4  C   UNL     1       2.227   8.688  18.065  0.00  0.00    +0.000 A 
ATOM      5  N   UNL     1       1.658   9.874  17.709  0.00  0.00    +0.000 N 
ATOM      6  N   UNL     1       0.901  10.431  18.660  0.00  0.00    +0.000 NA
ATOM      7  C   UNL     1       0.958   9.557  19.691  0.00  0.00    +0.000 A 
ATOM      8  C   UNL     1       1.747   8.411  19.336  0.00  0.00    +0.000 A 
ATOM      9  C   UNL     1       2.114   7.188  19.946  0.00  0.00    +0.000 A 
ATOM     10  H   UNL     1       1.756  10.362  16.824  0.00  0.00    +0.000 HD
ENDROOT
BRANCH   7  11
ATOM     11  C   UNL     1       0.298   9.860  20.974  0.00  0.00    +0.000 A 
ATOM     12  C   UNL     1      -0.589  10.904  21.049  0.00  0.00    +0.000 A 
ATOM     13  C   UNL     1      -1.107  11.229  22.285  0.00  0.00    +0.000 A 
ATOM     14  N   UNL     1      -0.746  10.543  23.380  0.00  0.00    +0.000 NA
ATOM     15  C   UNL     1       0.097   9.515  23.202  0.00  0.00    +0.000 A 
ATOM     16  N   UNL     1       0.651   9.131  22.046  0.00  0.00    +0.000 NA
BRANCH  13  17
ATOM     17  N   UNL     1      -1.935  12.315  22.409  0.00  0.00    +0.000 N 
ATOM     18  C   UNL     1      -2.871  12.681  21.350  0.00  0.00    +0.000 C 
ATOM     19  C   UNL     1      -4.198  13.056  22.036  0.00  0.00    +0.000 C 
ATOM     20  O   UNL     1      -4.021  14.121  22.993  0.00  0.00    +0.000 OA
ATOM     21  C   UNL     1      -3.076  13.745  24.019  0.00  0.00    +0.000 C 
ATOM     22  C   UNL     1      -2.923  14.925  24.967  0.00  0.00    +0.000 C 
ATOM     23  C   UNL     1      -1.713  13.360  23.408  0.00  0.00    +0.000 C 
ENDBRANCH  13  17
ENDBRANCH   7  11
BRANCH   1  24
ATOM     24  O   UNL     1       3.171   5.087  19.878  0.00  0.00    +0.000 OA
BRANCH  24  25
ATOM     25  C   UNL     1       3.107   3.903  19.056  0.00  0.00    +0.000 C 
ATOM     26  C   UNL     1       4.320   3.038  19.390  0.00  0.00    +0.000 C 
BRANCH  25  27
ATOM     27  C   UNL     1       1.828   3.093  19.340  0.00  0.00    +0.000 C 
BRANCH  27  29
ATOM     28  C   UNL     1       1.430   2.677  21.627  0.00  0.00    +0.000 C 
ATOM     29  O   UNL     1       1.173   3.545  20.529  0.00  0.00    +0.000 OA
ENDBRANCH  27  29
ENDBRANCH  25  27
ENDBRANCH  24  25
ENDBRANCH   1  24
TORSDOF 6
ENDMDL
MODEL 3
REMARK VINA RESULT:      -7.5      3.358      8.664
REMARK  Name = 
REMARK  9 active torsions:
REMARK  status: ('A' for Active; 'I' for Inactive)
REMARK    1  A    between atoms: C_1  and  O_2
REMARK    2  A    between atoms: O_2  and  C_3
REMARK    3  A    between atoms: C_3  and  C_4
REMARK    4  A    between atoms: C_4  and  C_5
REMARK    5  A    between atoms: C_4  and  O_6
REMARK    6  A    between atoms: O_6  and  C_7
REMARK    7  A    between atoms: C_13  and  C_14
REMARK    8  A    between atoms: C_16  and  N_17
REMARK    9  A    between atoms: C_21  and  C_22
REMARK                            x       y       z     vdW  Elec       q    Type
REMARK                         _______ _______ _______ _____ _____    ______ ____
ROOT
ATOM      1  C   UNL     1       5.148   4.197  18.963  0.00  0.00    +0.000 A 
ATOM      2  C   UNL     1       4.631   3.004  19.470  0.00  0.00    +0.000 A 
ATOM      3  C   UNL     1       3.422   2.972  20.177  0.00  0.00    +0.000 A 
ATOM      4  C   UNL     1       2.713   4.166  20.280  0.00  0.00    +0.000 A 
ATOM      5  N   UNL     1       1.543   4.464  20.912  0.00  0.00    +0.000 N 
ATOM      6  N   UNL     1       1.126   5.722  20.735  0.00  0.00    +0.000 NA
ATOM      7  C   UNL     1       2.079   6.289  19.962  0.00  0.00    +0.000 A 
ATOM      8  C   UNL     1       3.132   5.350  19.693  0.00  0.00    +0.000 A 
ATOM      9  C   UNL     1       4.375   5.367  19.016  0.00  0.00    +0.000 A 
ATOM     10  H   UNL     1       0.975   3.843  21.479  0.00  0.00    +0.000 HD
ENDROOT
BRANCH   7  11
ATOM     11  C   UNL     1       1.936   7.676  19.481  0.00  0.00    +0.000 A 
ATOM     12  C   UNL     1       1.530   8.654  20.352  0.00  0.00    +0.000 A 
ATOM     13  C   UNL     1       1.301   9.918  19.849  0.00  0.00    +0.000 A 
ATOM     14  N   UNL     1       1.468  10.175  18.543  0.00  0.00    +0.000 NA
ATOM     15  C   UNL     1       1.904   9.163  17.776  0.00  0.00    +0.000 A 
ATOM     16  N   UNL     1       2.147   7.909  18.175  0.00  0.00    +0.000 NA
BRANCH  13  17
ATOM     17  N   UNL     1       0.820  10.901  20.676  0.00  0.00    +0.000 N 
ATOM     18  C   UNL     1       1.348  12.261  20.626  0.00  0.00    +0.000 C 
ATOM     19  C   UNL     1       0.141  13.212  20.717  0.00  0.00    +0.000 C 
ATOM     20  O   UNL     1      -0.636  12.977  21.910  0.00  0.00    +0.000 OA
ATOM     21  C   UNL     1      -1.130  11.620  21.949  0.00  0.00    +0.000 C 
ATOM     22  C   UNL     1      -1.908  11.443  23.244  0.00  0.00    +0.000 C 
ATOM     23  C   UNL     1       0.027  10.602  21.868  0.00  0.00    +0.000 C 
ENDBRANCH  13  17
ENDBRANCH   7  11
BRANCH   1  24
ATOM     24  O   UNL     1       6.383   4.326  18.370  0.00  0.00    +0.000 OA
BRANCH  24  25
ATOM     25  C   UNL     1       6.514   5.340  17.352  0.00  0.00    +0.000 C 
ATOM     26  C   UNL     1       7.596   6.318  17.804  0.00  0.00    +0.000 C 
BRANCH  25  27
ATOM     27  C   UNL     1       6.933   4.729  16.003  0.00  0.00    +0.000 C 
BRANCH  27  29
ATOM     28  C   UNL     1       6.189   3.869  13.937  0.00  0.00    +0.000 C 
ATOM     29  O   UNL     1       5.797   4.416  15.192  0.00  0.00    +0.000 OA
ENDBRANCH  27  29
ENDBRANCH  25  27
ENDBRANCH  24  25
ENDBRANCH   1  24
TORSDOF 6
ENDMDL
MODEL 4
REMARK VINA RESULT:      -7.4      2.958      7.444
REMARK  Name = 
REMARK  9 active torsions:
REMARK  status: ('A' for Active; 'I' for Inactive)
REMARK    1  A    between atoms: C_1  and  O_2
REMARK    2  A    between atoms: O_2  and  C_3
REMARK    3  A    between atoms: C_3  and  C_4
REMARK    4  A    between atoms: C_4  and  C_5
REMARK    5  A    between atoms: C_4  and  O_6
REMARK    6  A    between atoms: O_6  and  C_7
REMARK    7  A    between atoms: C_13  and  C_14
REMARK    8  A    between atoms: C_16  and  N_17
REMARK    9  A    between atoms: C_21  and  C_22
REMARK                            x       y       z     vdW  Elec       q    Type
REMARK                         _______ _______ _______ _____ _____    ______ ____
ROOT
ATOM      1  C   UNL     1       6.772   6.004  16.462  0.00  0.00    +0.000 A 
ATOM      2  C   UNL     1       7.032   5.017  15.510  0.00  0.00    +0.000 A 
ATOM      3  C   UNL     1       6.348   3.795  15.515  0.00  0.00    +0.000 A 
ATOM      4  C   UNL     1       5.337   3.636  16.458  0.00  0.00    +0.000 A 
ATOM      5  N   UNL     1       4.523   2.578  16.733  0.00  0.00    +0.000 N 
ATOM      6  N   UNL     1       3.609   2.816  17.680  0.00  0.00    +0.000 NA
ATOM      7  C   UNL     1       3.843   4.091  18.063  0.00  0.00    +0.000 A 
ATOM      8  C   UNL     1       4.967   4.632  17.349  0.00  0.00    +0.000 A 
ATOM      9  C   UNL     1       5.696   5.845  17.350  0.00  0.00    +0.000 A 
ATOM     10  H   UNL     1       4.539   1.661  16.299  0.00  0.00    +0.000 HD
ENDROOT
BRANCH   7  11
ATOM     11  C   UNL     1       2.976   4.754  19.055  0.00  0.00    +0.000 A 
ATOM     12  C   UNL     1       2.641   6.073  18.887  0.00  0.00    +0.000 A 
ATOM     13  C   UNL     1       1.920   6.693  19.885  0.00  0.00    +0.000 A 
ATOM     14  N   UNL     1       1.564   6.020  20.990  0.00  0.00    +0.000 NA
ATOM     15  C   UNL     1       1.905   4.724  21.048  0.00  0.00    +0.000 A 
ATOM     16  N   UNL     1       2.605   4.043  20.133  0.00  0.00    +0.000 NA
BRANCH  13  17
ATOM     17  N   UNL     1       1.634   8.030  19.785  0.00  0.00    +0.000 N 
ATOM     18  C   UNL     1       2.003   8.799  18.600  0.00  0.00    +0.000 C 
ATOM     19  C   UNL     1       0.805   9.708  18.267  0.00  0.00    +0.000 C 
ATOM     20  O   UNL     1       0.457  10.560  19.378  0.00  0.00    +0.000 OA
ATOM     21  C   UNL     1       0.116   9.779  20.545  0.00  0.00    +0.000 C 
ATOM     22  C   UNL     1      -0.208  10.745  21.674  0.00  0.00    +0.000 C 
ATOM     23  C   UNL     1       1.274   8.843  20.947  0.00  0.00    +0.000 C 
ENDBRANCH  13  17
ENDBRANCH   7  11
BRANCH   1  24
ATOM     24  O   UNL     1       7.485   7.173  16.594  0.00  0.00    +0.000 OA
BRANCH  24  25
ATOM     25  C   UNL     1       7.512   7.775  17.905  0.00  0.00    +0.000 C 
ATOM     26  C   UNL     1       8.298   6.847  18.829  0.00  0.00    +0.000 C 
BRANCH  25  27
ATOM     27  C   UNL     1       8.207   9.149  17.876  0.00  0.00    +0.000 C 
BRANCH  27  29
ATOM     28  C   UNL     1       9.292  10.711  19.270  0.00  0.00    +0.000 C 
ATOM     29  O   UNL     1       9.059   9.331  19.011  0.00  0.00    +0.000 OA
ENDBRANCH  27  29
ENDBRANCH  25  27
ENDBRANCH  24  25
ENDBRANCH   1  24
TORSDOF 6
ENDMDL
MODEL 5
REMARK VINA RESULT:      -7.4      3.805      9.191
REMARK  Name = 
REMARK  9 active torsions:
REMARK  status: ('A' for Active; 'I' for Inactive)
REMARK    1  A    between atoms: C_1  and  O_2
REMARK    2  A    between atoms: O_2  and  C_3
REMARK    3  A    between atoms: C_3  and  C_4
REMARK    4  A    between atoms: C_4  and  C_5
REMARK    5  A    between atoms: C_4  and  O_6
REMARK    6  A    between atoms: O_6  and  C_7
REMARK    7  A    between atoms: C_13  and  C_14
REMARK    8  A    between atoms: C_16  and  N_17
REMARK    9  A    between atoms: C_21  and  C_22
REMARK                            x       y       z     vdW  Elec       q    Type
REMARK                         _______ _______ _______ _____ _____    ______ ____
ROOT
ATOM      1  C   UNL     1       4.077   5.035  17.273  0.00  0.00    +0.000 A 
ATOM      2  C   UNL     1       3.800   3.846  17.948  0.00  0.00    +0.000 A 
ATOM      3  C   UNL     1       3.102   3.837  19.162  0.00  0.00    +0.000 A 
ATOM      4  C   UNL     1       2.619   5.058  19.626  0.00  0.00    +0.000 A 
ATOM      5  N   UNL     1       1.940   5.381  20.763  0.00  0.00    +0.000 N 
ATOM      6  N   UNL     1       1.576   6.666  20.842  0.00  0.00    +0.000 NA
ATOM      7  C   UNL     1       2.055   7.223  19.707  0.00  0.00    +0.000 A 
ATOM      8  C   UNL     1       2.771   6.248  18.931  0.00  0.00    +0.000 A 
ATOM      9  C   UNL     1       3.512   6.238  17.726  0.00  0.00    +0.000 A 
ATOM     10  H   UNL     1       1.688   4.762  21.526  0.00  0.00    +0.000 HD
ENDROOT
BRANCH   7  11
ATOM     11  C   UNL     1       1.786   8.637  19.388  0.00  0.00    +0.000 A 
ATOM     12  C   UNL     1       1.075   9.406  20.273  0.00  0.00    +0.000 A 
ATOM     13  C   UNL     1       0.747  10.693  19.898  0.00  0.00    +0.000 A 
ATOM     14  N   UNL     1       1.112  11.170  18.699  0.00  0.00    +0.000 NA
ATOM     15  C   UNL     1       1.837  10.356  17.916  0.00  0.00    +0.000 A 
ATOM     16  N   UNL     1       2.197   9.097  18.194  0.00  0.00    +0.000 NA
BRANCH  13  17
ATOM     17  N   UNL     1      -0.029  11.463  20.726  0.00  0.00    +0.000 N 
ATOM     18  C   UNL     1      -1.077  10.871  21.553  0.00  0.00    +0.000 C 
ATOM     19  C   UNL     1      -0.986  11.541  22.937  0.00  0.00    +0.000 C 
ATOM     20  O   UNL     1      -1.116  12.975  22.844  0.00  0.00    +0.000 OA
ATOM     21  C   UNL     1      -0.083  13.537  22.004  0.00  0.00    +0.000 C 
ATOM     22  C   UNL     1      -0.304  15.040  21.934  0.00  0.00    +0.000 C 
ATOM     23  C   UNL     1      -0.112  12.917  20.592  0.00  0.00    +0.000 C 
ENDBRANCH  13  17
ENDBRANCH   7  11
BRANCH   1  24
ATOM     24  O   UNL     1       4.859   5.133  16.145  0.00  0.00    +0.000 OA
BRANCH  24  25
ATOM     25  C   UNL     1       5.950   4.197  16.026  0.00  0.00    +0.000 C 
ATOM     26  C   UNL     1       6.202   3.960  14.539  0.00  0.00    +0.000 C 
BRANCH  25  27
ATOM     27  C   UNL     1       7.237   4.753  16.663  0.00  0.00    +0.000 C 
BRANCH  27  29
ATOM     28  C   UNL     1       7.558   6.936  17.494  0.00  0.00    +0.000 C 
ATOM     29  O   UNL     1       7.437   6.129  16.328  0.00  0.00    +0.000 OA
ENDBRANCH  27  29
ENDBRANCH  25  27
ENDBRANCH  24  25
ENDBRANCH   1  24
TORSDOF 6
ENDMDL
MODEL 6
REMARK VINA RESULT:      -7.4      3.358      8.515
REMARK  Name = 
REMARK  9 active torsions:
REMARK  status: ('A' for Active; 'I' for Inactive)
REMARK    1  A    between atoms: C_1  and  O_2
REMARK    2  A    between atoms: O_2  and  C_3
REMARK    3  A    between atoms: C_3  and  C_4
REMARK    4  A    between atoms: C_4  and  C_5
REMARK    5  A    between atoms: C_4  and  O_6
REMARK    6  A    between atoms: O_6  and  C_7
REMARK    7  A    between atoms: C_13  and  C_14
REMARK    8  A    between atoms: C_16  and  N_17
REMARK    9  A    between atoms: C_21  and  C_22
REMARK                            x       y       z     vdW  Elec       q    Type
REMARK                         _______ _______ _______ _____ _____    ______ ____
ROOT
ATOM      1  C   UNL     1       5.186   4.054  19.241  0.00  0.00    +0.000 A 
ATOM      2  C   UNL     1       4.628   2.865  19.712  0.00  0.00    +0.000 A 
ATOM      3  C   UNL     1       3.367   2.837  20.321  0.00  0.00    +0.000 A 
ATOM      4  C   UNL     1       2.653   4.032  20.359  0.00  0.00    +0.000 A 
ATOM      5  N   UNL     1       1.437   4.334  20.895  0.00  0.00    +0.000 N 
ATOM      6  N   UNL     1       1.036   5.592  20.679  0.00  0.00    +0.000 NA
ATOM      7  C   UNL     1       2.049   6.154  19.981  0.00  0.00    +0.000 A 
ATOM      8  C   UNL     1       3.119   5.213  19.802  0.00  0.00    +0.000 A 
ATOM      9  C   UNL     1       4.411   5.225  19.226  0.00  0.00    +0.000 A 
ATOM     10  H   UNL     1       0.825   3.717  21.418  0.00  0.00    +0.000 HD
ENDROOT
BRANCH   7  11
ATOM     11  C   UNL     1       1.946   7.538  19.483  0.00  0.00    +0.000 A 
ATOM     12  C   UNL     1       1.329   8.489  20.254  0.00  0.00    +0.000 A 
ATOM     13  C   UNL     1       1.152   9.748  19.717  0.00  0.00    +0.000 A 
ATOM     14  N   UNL     1       1.570  10.024  18.472  0.00  0.00    +0.000 NA
ATOM     15  C   UNL     1       2.196   9.040  17.809  0.00  0.00    +0.000 A 
ATOM     16  N   UNL     1       2.407   7.793  18.248  0.00  0.00    +0.000 NA
BRANCH  13  17
ATOM     17  N   UNL     1       0.471  10.700  20.430  0.00  0.00    +0.000 N 
ATOM     18  C   UNL     1      -0.657  10.346  21.286  0.00  0.00    +0.000 C 
ATOM     19  C   UNL     1      -0.500  11.153  22.589  0.00  0.00    +0.000 C 
ATOM     20  O   UNL     1      -0.441  12.572  22.332  0.00  0.00    +0.000 OA
ATOM     21  C   UNL     1       0.669  12.897  21.466  0.00  0.00    +0.000 C 
ATOM     22  C   UNL     1       0.646  14.398  21.221  0.00  0.00    +0.000 C 
ATOM     23  C   UNL     1       0.580  12.128  20.132  0.00  0.00    +0.000 C 
ENDBRANCH  13  17
ENDBRANCH   7  11
BRANCH   1  24
ATOM     24  O   UNL     1       6.463   4.179  18.747  0.00  0.00    +0.000 OA
BRANCH  24  25
ATOM     25  C   UNL     1       6.721   5.306  17.884  0.00  0.00    +0.000 C 
ATOM     26  C   UNL     1       7.842   6.130  18.515  0.00  0.00    +0.000 C 
BRANCH  25  27
ATOM     27  C   UNL     1       7.172   4.849  16.485  0.00  0.00    +0.000 C 
BRANCH  27  29
ATOM     28  C   UNL     1       5.317   5.980  15.567  0.00  0.00    +0.000 C 
ATOM     29  O   UNL     1       6.718   5.747  15.467  0.00  0.00    +0.000 OA
ENDBRANCH  27  29
ENDBRANCH  25  27
ENDBRANCH  24  25
ENDBRANCH   1  24
TORSDOF 6
ENDMDL
MODEL 7
REMARK VINA RESULT:      -7.4      4.462      7.087
REMARK  Name = 
REMARK  9 active torsions:
REMARK  status: ('A' for Active; 'I' for Inactive)
REMARK    1  A    between atoms: C_1  and  O_2
REMARK    2  A    between atoms: O_2  and  C_3
REMARK    3  A    between atoms: C_3  and  C_4
REMARK    4  A    between atoms: C_4  and  C_5
REMARK    5  A    between atoms: C_4  and  O_6
REMARK    6  A    between atoms: O_6  and  C_7
REMARK    7  A    between atoms: C_13  and  C_14
REMARK    8  A    between atoms: C_16  and  N_17
REMARK    9  A    between atoms: C_21  and  C_22
REMARK                            x       y       z     vdW  Elec       q    Type
REMARK                         _______ _______ _______ _____ _____    ______ ____
ROOT
ATOM      1  C   UNL     1      -1.643  11.645  19.026  0.00  0.00    +0.000 A 
ATOM      2  C   UNL     1      -1.808  12.399  20.188  0.00  0.00    +0.000 A 
ATOM      3  C   UNL     1      -1.221  12.015  21.401  0.00  0.00    +0.000 A 
ATOM      4  C   UNL     1      -0.394  10.896  21.380  0.00  0.00    +0.000 A 
ATOM      5  N   UNL     1       0.288  10.264  22.378  0.00  0.00    +0.000 N 
ATOM      6  N   UNL     1       1.046   9.242  21.967  0.00  0.00    +0.000 NA
ATOM      7  C   UNL     1       0.839   9.184  20.632  0.00  0.00    +0.000 A 
ATOM      8  C   UNL     1      -0.109  10.183  20.225  0.00  0.00    +0.000 A 
ATOM      9  C   UNL     1      -0.743  10.567  19.020  0.00  0.00    +0.000 A 
ATOM     10  H   UNL     1       0.281  10.491  23.367  0.00  0.00    +0.000 HD
ENDROOT
BRANCH   7  11
ATOM     11  C   UNL     1       1.573   8.215  19.796  0.00  0.00    +0.000 A 
ATOM     12  C   UNL     1       1.666   6.908  20.200  0.00  0.00    +0.000 A 
ATOM     13  C   UNL     1       2.448   6.051  19.453  0.00  0.00    +0.000 A 
ATOM     14  N   UNL     1       3.100   6.492  18.367  0.00  0.00    +0.000 NA
ATOM     15  C   UNL     1       2.917   7.778  18.028  0.00  0.00    +0.000 A 
ATOM     16  N   UNL     1       2.184   8.679  18.693  0.00  0.00    +0.000 NA
BRANCH  13  17
ATOM     17  N   UNL     1       2.626   4.758  19.871  0.00  0.00    +0.000 N 
ATOM     18  C   UNL     1       2.272   4.342  21.225  0.00  0.00    +0.000 C 
ATOM     19  C   UNL     1       1.570   2.976  21.104  0.00  0.00    +0.000 C 
ATOM     20  O   UNL     1       2.405   2.004  20.440  0.00  0.00    +0.000 OA
ATOM     21  C   UNL     1       2.761   2.446  19.111  0.00  0.00    +0.000 C 
ATOM     22  C   UNL     1       3.661   1.387  18.492  0.00  0.00    +0.000 C 
ATOM     23  C   UNL     1       3.477   3.812  19.150  0.00  0.00    +0.000 C 
ENDBRANCH  13  17
ENDBRANCH   7  11
BRANCH   1  24
ATOM     24  O   UNL     1      -2.285  11.890  17.835  0.00  0.00    +0.000 OA
BRANCH  24  25
ATOM     25  C   UNL     1      -3.209  10.883  17.373  0.00  0.00    +0.000 C 
ATOM     26  C   UNL     1      -4.585  11.533  17.250  0.00  0.00    +0.000 C 
BRANCH  25  27
ATOM     27  C   UNL     1      -2.796  10.335  15.994  0.00  0.00    +0.000 C 
BRANCH  27  29
ATOM     28  C   UNL     1      -3.472  10.043  13.754  0.00  0.00    +0.000 C 
ATOM     29  O   UNL     1      -3.899  10.319  15.083  0.00  0.00    +0.000 OA
ENDBRANCH  27  29
ENDBRANCH  25  27
ENDBRANCH  24  25
ENDBRANCH   1  24
TORSDOF 6
ENDMDL
MODEL 8
REMARK VINA RESULT:      -7.4      3.157      8.928
REMARK  Name = 
REMARK  9 active torsions:
REMARK  status: ('A' for Active; 'I' for Inactive)
REMARK    1  A    between atoms: C_1  and  O_2
REMARK    2  A    between atoms: O_2  and  C_3
REMARK    3  A    between atoms: C_3  and  C_4
REMARK    4  A    between atoms: C_4  and  C_5
REMARK    5  A    between atoms: C_4  and  O_6
REMARK    6  A    between atoms: O_6  and  C_7
REMARK    7  A    between atoms: C_13  and  C_14
REMARK    8  A    between atoms: C_16  and  N_17
REMARK    9  A    between atoms: C_21  and  C_22
REMARK                            x       y       z     vdW  Elec       q    Type
REMARK                         _______ _______ _______ _____ _____    ______ ____
ROOT
ATOM      1  C   UNL     1       4.239   4.018  17.013  0.00  0.00    +0.000 A 
ATOM      2  C   UNL     1       4.090   2.819  17.710  0.00  0.00    +0.000 A 
ATOM      3  C   UNL     1       3.546   2.785  19.001  0.00  0.00    +0.000 A 
ATOM      4  C   UNL     1       3.080   3.987  19.527  0.00  0.00    +0.000 A 
ATOM      5  N   UNL     1       2.534   4.285  20.739  0.00  0.00    +0.000 N 
ATOM      6  N   UNL     1       2.136   5.555  20.869  0.00  0.00    +0.000 NA
ATOM      7  C   UNL     1       2.454   6.130  19.687  0.00  0.00    +0.000 A 
ATOM      8  C   UNL     1       3.103   5.182  18.825  0.00  0.00    +0.000 A 
ATOM      9  C   UNL     1       3.692   5.199  17.538  0.00  0.00    +0.000 A 
ATOM     10  H   UNL     1       2.398   3.655  21.524  0.00  0.00    +0.000 HD
ENDROOT
BRANCH   7  11
ATOM     11  C   UNL     1       2.098   7.534  19.410  0.00  0.00    +0.000 A 
ATOM     12  C   UNL     1       1.365   8.239  20.330  0.00  0.00    +0.000 A 
ATOM     13  C   UNL     1       0.956   9.514  19.996  0.00  0.00    +0.000 A 
ATOM     14  N   UNL     1       1.265  10.040  18.802  0.00  0.00    +0.000 NA
ATOM     15  C   UNL     1       2.018   9.289  17.983  0.00  0.00    +0.000 A 
ATOM     16  N   UNL     1       2.454   8.046  18.220  0.00  0.00    +0.000 NA
BRANCH  13  17
ATOM     17  N   UNL     1       0.156  10.218  20.860  0.00  0.00    +0.000 N 
ATOM     18  C   UNL     1      -0.658   9.540  21.864  0.00  0.00    +0.000 C 
ATOM     19  C   UNL     1      -0.527  10.350  23.167  0.00  0.00    +0.000 C 
ATOM     20  O   UNL     1      -0.927  11.724  22.984  0.00  0.00    +0.000 OA
ATOM     21  C   UNL     1      -0.122  12.368  21.971  0.00  0.00    +0.000 C 
ATOM     22  C   UNL     1      -0.622  13.796  21.816  0.00  0.00    +0.000 C 
ATOM     23  C   UNL     1      -0.207  11.615  20.628  0.00  0.00    +0.000 C 
ENDBRANCH  13  17
ENDBRANCH   7  11
BRANCH   1  24
ATOM     24  O   UNL     1       4.875   4.145  15.799  0.00  0.00    +0.000 OA
BRANCH  24  25
ATOM     25  C   UNL     1       6.023   5.017  15.753  0.00  0.00    +0.000 C 
ATOM     26  C   UNL     1       6.979   4.589  16.864  0.00  0.00    +0.000 C 
BRANCH  25  27
ATOM     27  C   UNL     1       6.755   4.907  14.402  0.00  0.00    +0.000 C 
BRANCH  27  29
ATOM     28  C   UNL     1       6.250   3.734  12.420  0.00  0.00    +0.000 C 
ATOM     29  O   UNL     1       6.565   3.622  13.804  0.00  0.00    +0.000 OA
ENDBRANCH  27  29
ENDBRANCH  25  27
ENDBRANCH  24  25
ENDBRANCH   1  24
TORSDOF 6
ENDMDL
MODEL 9
REMARK VINA RESULT:      -7.4      4.192      6.982
REMARK  Name = 
REMARK  9 active torsions:
REMARK  status: ('A' for Active; 'I' for Inactive)
REMARK    1  A    between atoms: C_1  and  O_2
REMARK    2  A    between atoms: O_2  and  C_3
REMARK    3  A    between atoms: C_3  and  C_4
REMARK    4  A    between atoms: C_4  and  C_5
REMARK    5  A    between atoms: C_4  and  O_6
REMARK    6  A    between atoms: O_6  and  C_7
REMARK    7  A    between atoms: C_13  and  C_14
REMARK    8  A    between atoms: C_16  and  N_17
REMARK    9  A    between atoms: C_21  and  C_22
REMARK                            x       y       z     vdW  Elec       q    Type
REMARK                         _______ _______ _______ _____ _____    ______ ____
ROOT
ATOM      1  C   UNL     1      -1.685  11.572  18.875  0.00  0.00    +0.000 A 
ATOM      2  C   UNL     1      -1.844  12.281  20.066  0.00  0.00    +0.000 A 
ATOM      3  C   UNL     1      -1.188  11.896  21.242  0.00  0.00    +0.000 A 
ATOM      4  C   UNL     1      -0.303  10.825  21.154  0.00  0.00    +0.000 A 
ATOM      5  N   UNL     1       0.452  10.204  22.104  0.00  0.00    +0.000 N 
ATOM      6  N   UNL     1       1.248   9.238  21.632  0.00  0.00    +0.000 NA
ATOM      7  C   UNL     1       0.991   9.208  20.305  0.00  0.00    +0.000 A 
ATOM      8  C   UNL     1      -0.027  10.163  19.967  0.00  0.00    +0.000 A 
ATOM      9  C   UNL     1      -0.729  10.547  18.800  0.00  0.00    +0.000 A 
ATOM     10  H   UNL     1       0.473  10.401  23.099  0.00  0.00    +0.000 HD
ENDROOT
BRANCH   7  11
ATOM     11  C   UNL     1       1.742   8.306  19.411  0.00  0.00    +0.000 A 
ATOM     12  C   UNL     1       1.834   6.973  19.718  0.00  0.00    +0.000 A 
ATOM     13  C   UNL     1       2.632   6.176  18.923  0.00  0.00    +0.000 A 
ATOM     14  N   UNL     1       3.299   6.699  17.882  0.00  0.00    +0.000 NA
ATOM     15  C   UNL     1       3.116   8.006  17.638  0.00  0.00    +0.000 A 
ATOM     16  N   UNL     1       2.368   8.853  18.356  0.00  0.00    +0.000 NA
BRANCH  13  17
ATOM     17  N   UNL     1       2.809   4.856  19.246  0.00  0.00    +0.000 N 
ATOM     18  C   UNL     1       3.774   4.023  18.535  0.00  0.00    +0.000 C 
ATOM     19  C   UNL     1       4.501   3.176  19.597  0.00  0.00    +0.000 C 
ATOM     20  O   UNL     1       3.576   2.388  20.375  0.00  0.00    +0.000 OA
ATOM     21  C   UNL     1       2.617   3.231  21.052  0.00  0.00    +0.000 C 
ATOM     22  C   UNL     1       1.665   2.329  21.822  0.00  0.00    +0.000 C 
ATOM     23  C   UNL     1       1.841   4.110  20.050  0.00  0.00    +0.000 C 
ENDBRANCH  13  17
ENDBRANCH   7  11
BRANCH   1  24
ATOM     24  O   UNL     1      -2.388  11.816  17.717  0.00  0.00    +0.000 OA
BRANCH  24  25
ATOM     25  C   UNL     1      -2.774  10.667  16.936  0.00  0.00    +0.000 C 
ATOM     26  C   UNL     1      -4.052  10.095  17.546  0.00  0.00    +0.000 C 
BRANCH  25  27
ATOM     27  C   UNL     1      -3.056  11.054  15.472  0.00  0.00    +0.000 C 
BRANCH  27  29
ATOM     28  C   UNL     1      -3.850   9.927  13.559  0.00  0.00    +0.000 C 
ATOM     29  O   UNL     1      -2.867   9.945  14.589  0.00  0.00    +0.000 OA
ENDBRANCH  27  29
ENDBRANCH  25  27
ENDBRANCH  24  25
ENDBRANCH   1  24
TORSDOF 6
ENDMDL
