MODEL 1
REMARK VINA RESULT:      -7.3      0.000      0.000
REMARK  Name = 
REMARK  3 active torsions:
REMARK  status: ('A' for Active; 'I' for Inactive)
REMARK    1  A    between atoms: C_1  and  C_2
REMARK    2  A    between atoms: C_2  and  C_14
REMARK    3  A    between atoms: N_3  and  N_4
REMARK                            x       y       z     vdW  Elec       q    Type
REMARK                         _______ _______ _______ _____ _____    ______ ____
ROOT
ATOM      1  N   UNL     1       1.861   7.480  20.851  0.00  0.00    +0.000 N 
ATOM      2  C   UNL     1       1.048   8.637  20.886  0.00  0.00    +0.000 A 
ATOM      3  N   UNL     1       0.729   9.388  19.803  0.00  0.00    +0.000 NA
ATOM      4  C   UNL     1      -0.037  10.456  20.162  0.00  0.00    +0.000 A 
ATOM      5  C   UNL     1      -0.343  10.532  21.518  0.00  0.00    +0.000 A 
ATOM      6  S   UNL     1       0.395   9.255  22.314  0.00  0.00    +0.000 S 
ATOM      7  C   UNL     1      -1.175  11.609  22.150  0.00  0.00    +0.000 C 
ATOM      8  C   UNL     1      -1.902  12.447  21.079  0.00  0.00    +0.000 C 
ATOM      9  C   UNL     1      -0.955  12.788  19.925  0.00  0.00    +0.000 C 
ATOM     10  C   UNL     1      -0.511  11.501  19.190  0.00  0.00    +0.000 C 
ATOM     11  H   UNL     1       2.036   7.026  21.754  0.00  0.00    +0.000 HD
ENDROOT
BRANCH   1  14
ATOM     12  C   UNL     1       1.909   4.694  19.942  0.00  0.00    +0.000 C 
ATOM     13  C   UNL     1       2.614   5.867  19.271  0.00  0.00    +0.000 C 
ATOM     14  N   UNL     1       2.522   7.092  19.700  0.00  0.00    +0.000 NA
BRANCH  13  15
ATOM     15  C   UNL     1       3.488   5.580  18.083  0.00  0.00    +0.000 A 
ATOM     16  C   UNL     1       3.645   4.263  17.591  0.00  0.00    +0.000 A 
ATOM     17  C   UNL     1       4.499   3.994  16.518  0.00  0.00    +0.000 A 
ATOM     18  C   UNL     1       5.209   5.029  15.910  0.00  0.00    +0.000 A 
ATOM     19 CL   UNL     1       6.295   4.681  14.578  0.00  0.00    +0.000 Cl
ATOM     20  C   UNL     1       5.058   6.339  16.371  0.00  0.00    +0.000 A 
ATOM     21  C   UNL     1       4.207   6.614  17.448  0.00  0.00    +0.000 A 
ENDBRANCH  13  15
ENDBRANCH   1  14
TORSDOF 2
ENDMDL
MODEL 2
REMARK VINA RESULT:      -7.3      0.162      1.093
REMARK  Name = 
REMARK  3 active torsions:
REMARK  status: ('A' for Active; 'I' for Inactive)
REMARK    1  A    between atoms: C_1  and  C_2
REMARK    2  A    between atoms: C_2  and  C_14
REMARK    3  A    between atoms: N_3  and  N_4
REMARK                            x       y       z     vdW  Elec       q    Type
REMARK                         _______ _______ _______ _____ _____    ______ ____
ROOT
ATOM      1  N   UNL     1       1.760   7.476  20.888  0.00  0.00    +0.000 N 
ATOM      2  C   UNL     1       0.987   8.660  20.921  0.00  0.00    +0.000 A 
ATOM      3  N   UNL     1       0.724   9.439  19.844  0.00  0.00    +0.000 NA
ATOM      4  C   UNL     1      -0.015  10.528  20.201  0.00  0.00    +0.000 A 
ATOM      5  C   UNL     1      -0.353  10.591  21.550  0.00  0.00    +0.000 A 
ATOM      6  S   UNL     1       0.318   9.276  22.343  0.00  0.00    +0.000 S 
ATOM      7  C   UNL     1      -1.165  11.687  22.177  0.00  0.00    +0.000 C 
ATOM      8  C   UNL     1      -1.833  12.568  21.103  0.00  0.00    +0.000 C 
ATOM      9  C   UNL     1      -0.844  12.894  19.980  0.00  0.00    +0.000 C 
ATOM     10  C   UNL     1      -0.425  11.604  19.235  0.00  0.00    +0.000 C 
ATOM     11  H   UNL     1       1.895   7.001  21.787  0.00  0.00    +0.000 HD
ENDROOT
BRANCH   1  14
ATOM     12  C   UNL     1       2.231   4.656  20.243  0.00  0.00    +0.000 C 
ATOM     13  C   UNL     1       2.714   5.852  19.431  0.00  0.00    +0.000 C 
ATOM     14  N   UNL     1       2.439   7.084  19.748  0.00  0.00    +0.000 NA
BRANCH  13  15
ATOM     15  C   UNL     1       3.585   5.589  18.236  0.00  0.00    +0.000 A 
ATOM     16  C   UNL     1       4.237   6.645  17.558  0.00  0.00    +0.000 A 
ATOM     17  C   UNL     1       5.003   6.400  16.416  0.00  0.00    +0.000 A 
ATOM     18  C   UNL     1       5.143   5.101  15.929  0.00  0.00    +0.000 A 
ATOM     19 CL   UNL     1       6.090   4.805  14.483  0.00  0.00    +0.000 Cl
ATOM     20  C   UNL     1       4.520   4.041  16.592  0.00  0.00    +0.000 A 
ATOM     21  C   UNL     1       3.746   4.280  17.734  0.00  0.00    +0.000 A 
ENDBRANCH  13  15
ENDBRANCH   1  14
TORSDOF 2
ENDMDL
MODEL 3
REMARK VINA RESULT:      -7.2      2.148      2.782
REMARK  Name = 
REMARK  3 active torsions:
REMARK  status: ('A' for Active; 'I' for Inactive)
REMARK    1  A    between atoms: C_1  and  C_2
REMARK    2  A    between atoms: C_2  and  C_14
REMARK    3  A    between atoms: N_3  and  N_4
REMARK                            x       y       z     vdW  Elec       q    Type
REMARK                         _______ _______ _______ _____ _____    ______ ____
ROOT
ATOM      1  N   UNL     1       1.502   9.245  19.217  0.00  0.00    +0.000 N 
ATOM      2  C   UNL     1       0.255   9.765  18.798  0.00  0.00    +0.000 A 
ATOM      3  N   UNL     1      -0.415   9.363  17.690  0.00  0.00    +0.000 NA
ATOM      4  C   UNL     1      -1.566  10.076  17.533  0.00  0.00    +0.000 A 
ATOM      5  C   UNL     1      -1.814  11.018  18.528  0.00  0.00    +0.000 A 
ATOM      6  S   UNL     1      -0.545  11.001  19.623  0.00  0.00    +0.000 S 
ATOM      7  C   UNL     1      -3.017  11.914  18.577  0.00  0.00    +0.000 C 
ATOM      8  C   UNL     1      -4.089  11.460  17.567  0.00  0.00    +0.000 C 
ATOM      9  C   UNL     1      -3.449  11.109  16.221  0.00  0.00    +0.000 C 
ATOM     10  C   UNL     1      -2.502   9.894  16.371  0.00  0.00    +0.000 C 
ATOM     11  H   UNL     1       1.902   9.662  20.064  0.00  0.00    +0.000 HD
ENDROOT
BRANCH   1  14
ATOM     12  C   UNL     1       2.080   6.509  20.094  0.00  0.00    +0.000 C 
ATOM     13  C   UNL     1       2.541   7.146  18.788  0.00  0.00    +0.000 C 
ATOM     14  N   UNL     1       2.217   8.356  18.435  0.00  0.00    +0.000 NA
BRANCH  13  15
ATOM     15  C   UNL     1       3.446   6.348  17.893  0.00  0.00    +0.000 A 
ATOM     16  C   UNL     1       4.436   6.978  17.104  0.00  0.00    +0.000 A 
ATOM     17  C   UNL     1       5.241   6.237  16.235  0.00  0.00    +0.000 A 
ATOM     18  C   UNL     1       5.081   4.855  16.138  0.00  0.00    +0.000 A 
ATOM     19 CL   UNL     1       6.081   3.934  15.029  0.00  0.00    +0.000 Cl
ATOM     20  C   UNL     1       4.119   4.211  16.919  0.00  0.00    +0.000 A 
ATOM     21  C   UNL     1       3.307   4.948  17.789  0.00  0.00    +0.000 A 
ENDBRANCH  13  15
ENDBRANCH   1  14
TORSDOF 2
ENDMDL
MODEL 4
REMARK VINA RESULT:      -7.2      5.342      7.759
REMARK  Name = 
REMARK  3 active torsions:
REMARK  status: ('A' for Active; 'I' for Inactive)
REMARK    1  A    between atoms: C_1  and  C_2
REMARK    2  A    between atoms: C_2  and  C_14
REMARK    3  A    between atoms: N_3  and  N_4
REMARK                            x       y       z     vdW  Elec       q    Type
REMARK                         _______ _______ _______ _____ _____    ______ ____
ROOT
ATOM      1  N   UNL     1       7.291   6.351  16.392  0.00  0.00    +0.000 N 
ATOM      2  C   UNL     1       6.011   5.872  16.753  0.00  0.00    +0.000 A 
ATOM      3  N   UNL     1       5.068   6.603  17.397  0.00  0.00    +0.000 NA
ATOM      4  C   UNL     1       3.954   5.854  17.638  0.00  0.00    +0.000 A 
ATOM      5  C   UNL     1       4.011   4.547  17.163  0.00  0.00    +0.000 A 
ATOM      6  S   UNL     1       5.507   4.289  16.454  0.00  0.00    +0.000 S 
ATOM      7  C   UNL     1       2.909   3.538  17.301  0.00  0.00    +0.000 C 
ATOM      8  C   UNL     1       1.597   4.208  17.758  0.00  0.00    +0.000 C 
ATOM      9  C   UNL     1       1.865   5.208  18.885  0.00  0.00    +0.000 C 
ATOM     10  C   UNL     1       2.752   6.371  18.379  0.00  0.00    +0.000 C 
ATOM     11  H   UNL     1       7.910   5.677  15.929  0.00  0.00    +0.000 HD
ENDROOT
BRANCH   1  14
ATOM     12  C   UNL     1       8.296   6.840  19.102  0.00  0.00    +0.000 C 
ATOM     13  C   UNL     1       8.159   7.881  17.997  0.00  0.00    +0.000 C 
ATOM     14  N   UNL     1       7.742   7.594  16.798  0.00  0.00    +0.000 NA
BRANCH  13  15
ATOM     15  C   UNL     1       8.481   9.310  18.330  0.00  0.00    +0.000 A 
ATOM     16  C   UNL     1       8.079  10.368  17.481  0.00  0.00    +0.000 A 
ATOM     17  C   UNL     1       8.424  11.690  17.769  0.00  0.00    +0.000 A 
ATOM     18  C   UNL     1       9.172  11.988  18.908  0.00  0.00    +0.000 A 
ATOM     19 CL   UNL     1       9.620  13.650  19.250  0.00  0.00    +0.000 Cl
ATOM     20  C   UNL     1       9.567  10.961  19.767  0.00  0.00    +0.000 A 
ATOM     21  C   UNL     1       9.227   9.633  19.483  0.00  0.00    +0.000 A 
ENDBRANCH  13  15
ENDBRANCH   1  14
TORSDOF 2
ENDMDL
MODEL 5
REMARK VINA RESULT:      -7.1      2.347      2.824
REMARK  Name = 
REMARK  3 active torsions:
REMARK  status: ('A' for Active; 'I' for Inactive)
REMARK    1  A    between atoms: C_1  and  C_2
REMARK    2  A    between atoms: C_2  and  C_14
REMARK    3  A    between atoms: N_3  and  N_4
REMARK                            x       y       z     vdW  Elec       q    Type
REMARK                         _______ _______ _______ _____ _____    ______ ____
ROOT
ATOM      1  N   UNL     1       1.519   9.598  18.884  0.00  0.00    +0.000 N 
ATOM      2  C   UNL     1       0.218  10.021  18.525  0.00  0.00    +0.000 A 
ATOM      3  N   UNL     1      -0.548   9.435  17.573  0.00  0.00    +0.000 NA
ATOM      4  C   UNL     1      -1.734  10.091  17.432  0.00  0.00    +0.000 A 
ATOM      5  C   UNL     1      -1.912  11.174  18.288  0.00  0.00    +0.000 A 
ATOM      6  S   UNL     1      -0.537  11.357  19.229  0.00  0.00    +0.000 S 
ATOM      7  C   UNL     1      -3.135  12.044  18.326  0.00  0.00    +0.000 C 
ATOM      8  C   UNL     1      -4.289  11.413  17.521  0.00  0.00    +0.000 C 
ATOM      9  C   UNL     1      -3.780  10.865  16.185  0.00  0.00    +0.000 C 
ATOM     10  C   UNL     1      -2.779   9.708  16.420  0.00  0.00    +0.000 C 
ATOM     11  H   UNL     1       1.989  10.153  19.607  0.00  0.00    +0.000 HD
ENDROOT
BRANCH   1  14
ATOM     12  C   UNL     1       2.073   6.960  20.035  0.00  0.00    +0.000 C 
ATOM     13  C   UNL     1       2.493   7.438  18.650  0.00  0.00    +0.000 C 
ATOM     14  N   UNL     1       2.182   8.611  18.178  0.00  0.00    +0.000 NA
BRANCH  13  15
ATOM     15  C   UNL     1       3.342   6.523  17.814  0.00  0.00    +0.000 A 
ATOM     16  C   UNL     1       3.116   5.127  17.796  0.00  0.00    +0.000 A 
ATOM     17  C   UNL     1       3.940   4.275  17.057  0.00  0.00    +0.000 A 
ATOM     18  C   UNL     1       5.002   4.795  16.317  0.00  0.00    +0.000 A 
ATOM     19 CL   UNL     1       6.045   3.716  15.408  0.00  0.00    +0.000 Cl
ATOM     20  C   UNL     1       5.234   6.172  16.309  0.00  0.00    +0.000 A 
ATOM     21  C   UNL     1       4.414   7.031  17.050  0.00  0.00    +0.000 A 
ENDBRANCH  13  15
ENDBRANCH   1  14
TORSDOF 2
ENDMDL
MODEL 6
REMARK VINA RESULT:      -7.0      5.352      7.721
REMARK  Name = 
REMARK  3 active torsions:
REMARK  status: ('A' for Active; 'I' for Inactive)
REMARK    1  A    between atoms: C_1  and  C_2
REMARK    2  A    between atoms: C_2  and  C_14
REMARK    3  A    between atoms: N_3  and  N_4
REMARK                            x       y       z     vdW  Elec       q    Type
REMARK                         _______ _______ _______ _____ _____    ______ ____
ROOT
ATOM      1  N   UNL     1       7.293   6.254  16.377  0.00  0.00    +0.000 N 
ATOM      2  C   UNL     1       6.006   5.795  16.739  0.00  0.00    +0.000 A 
ATOM      3  N   UNL     1       5.072   6.542  17.377  0.00  0.00    +0.000 NA
ATOM      4  C   UNL     1       3.948   5.810  17.620  0.00  0.00    +0.000 A 
ATOM      5  C   UNL     1       3.987   4.500  17.152  0.00  0.00    +0.000 A 
ATOM      6  S   UNL     1       5.481   4.218  16.447  0.00  0.00    +0.000 S 
ATOM      7  C   UNL     1       2.871   3.507  17.294  0.00  0.00    +0.000 C 
ATOM      8  C   UNL     1       1.568   4.197  17.745  0.00  0.00    +0.000 C 
ATOM      9  C   UNL     1       1.849   5.199  18.868  0.00  0.00    +0.000 C 
ATOM     10  C   UNL     1       2.752   6.348  18.357  0.00  0.00    +0.000 C 
ATOM     11  H   UNL     1       7.903   5.569  15.918  0.00  0.00    +0.000 HD
ENDROOT
BRANCH   1  14
ATOM     12  C   UNL     1       8.251   6.757  19.101  0.00  0.00    +0.000 C 
ATOM     13  C   UNL     1       8.158   7.786  17.981  0.00  0.00    +0.000 C 
ATOM     14  N   UNL     1       7.761   7.493  16.777  0.00  0.00    +0.000 NA
BRANCH  13  15
ATOM     15  C   UNL     1       8.502   9.213  18.303  0.00  0.00    +0.000 A 
ATOM     16  C   UNL     1       9.211   9.548  19.480  0.00  0.00    +0.000 A 
ATOM     17  C   UNL     1       9.484  10.880  19.799  0.00  0.00    +0.000 A 
ATOM     18  C   UNL     1       9.062  11.905  18.953  0.00  0.00    +0.000 A 
ATOM     19 CL   UNL     1       9.390  13.577  19.372  0.00  0.00    +0.000 Cl
ATOM     20  C   UNL     1       8.373  11.596  17.778  0.00  0.00    +0.000 A 
ATOM     21  C   UNL     1       8.093  10.263  17.454  0.00  0.00    +0.000 A 
ENDBRANCH  13  15
ENDBRANCH   1  14
TORSDOF 2
ENDMDL
MODEL 7
REMARK VINA RESULT:      -6.9      1.024      1.211
REMARK  Name = 
REMARK  3 active torsions:
REMARK  status: ('A' for Active; 'I' for Inactive)
REMARK    1  A    between atoms: C_1  and  C_2
REMARK    2  A    between atoms: C_2  and  C_14
REMARK    3  A    between atoms: N_3  and  N_4
REMARK                            x       y       z     vdW  Elec       q    Type
REMARK                         _______ _______ _______ _____ _____    ______ ____
ROOT
ATOM      1  N   UNL     1       1.629   7.290  20.981  0.00  0.00    +0.000 N 
ATOM      2  C   UNL     1       0.974   8.535  20.843  0.00  0.00    +0.000 A 
ATOM      3  N   UNL     1       1.001   9.300  19.724  0.00  0.00    +0.000 NA
ATOM      4  C   UNL     1       0.307  10.458  19.911  0.00  0.00    +0.000 A 
ATOM      5  C   UNL     1      -0.287  10.593  21.163  0.00  0.00    +0.000 A 
ATOM      6  S   UNL     1       0.093   9.250  22.092  0.00  0.00    +0.000 S 
ATOM      7  C   UNL     1      -1.105  11.772  21.600  0.00  0.00    +0.000 C 
ATOM      8  C   UNL     1      -1.465  12.673  20.401  0.00  0.00    +0.000 C 
ATOM      9  C   UNL     1      -0.248  12.879  19.496  0.00  0.00    +0.000 C 
ATOM     10  C   UNL     1       0.194  11.535  18.867  0.00  0.00    +0.000 C 
ATOM     11  H   UNL     1       1.540   6.833  21.895  0.00  0.00    +0.000 HD
ENDROOT
BRANCH   1  14
ATOM     12  C   UNL     1       2.340   4.452  20.796  0.00  0.00    +0.000 C 
ATOM     13  C   UNL     1       2.867   5.567  19.900  0.00  0.00    +0.000 C 
ATOM     14  N   UNL     1       2.483   6.806  20.006  0.00  0.00    +0.000 NA
BRANCH  13  15
ATOM     15  C   UNL     1       3.912   5.218  18.878  0.00  0.00    +0.000 A 
ATOM     16  C   UNL     1       5.289   5.248  19.199  0.00  0.00    +0.000 A 
ATOM     17  C   UNL     1       6.258   4.972  18.231  0.00  0.00    +0.000 A 
ATOM     18  C   UNL     1       5.877   4.656  16.928  0.00  0.00    +0.000 A 
ATOM     19 CL   UNL     1       7.101   4.331  15.713  0.00  0.00    +0.000 Cl
ATOM     20  C   UNL     1       4.522   4.606  16.593  0.00  0.00    +0.000 A 
ATOM     21  C   UNL     1       3.546   4.885  17.557  0.00  0.00    +0.000 A 
ENDBRANCH  13  15
ENDBRANCH   1  14
TORSDOF 2
ENDMDL
MODEL 8
REMARK VINA RESULT:      -6.8      3.832      7.929
REMARK  Name = 
REMARK  3 active torsions:
REMARK  status: ('A' for Active; 'I' for Inactive)
REMARK    1  A    between atoms: C_1  and  C_2
REMARK    2  A    between atoms: C_2  and  C_14
REMARK    3  A    between atoms: N_3  and  N_4
REMARK                            x       y       z     vdW  Elec       q    Type
REMARK                         _______ _______ _______ _____ _____    ______ ____
ROOT
ATOM      1  N   UNL     1       2.977   8.229  17.924  0.00  0.00    +0.000 N 
ATOM      2  C   UNL     1       2.986   6.821  18.059  0.00  0.00    +0.000 A 
ATOM      3  N   UNL     1       1.897   6.027  17.917  0.00  0.00    +0.000 NA
ATOM      4  C   UNL     1       2.216   4.721  18.143  0.00  0.00    +0.000 A 
ATOM      5  C   UNL     1       3.556   4.486  18.437  0.00  0.00    +0.000 A 
ATOM      6  S   UNL     1       4.373   5.948  18.459  0.00  0.00    +0.000 S 
ATOM      7  C   UNL     1       4.146   3.134  18.715  0.00  0.00    +0.000 C 
ATOM      8  C   UNL     1       3.161   2.010  18.338  0.00  0.00    +0.000 C 
ATOM      9  C   UNL     1       1.749   2.344  18.827  0.00  0.00    +0.000 C 
ATOM     10  C   UNL     1       1.210   3.604  18.107  0.00  0.00    +0.000 C 
ATOM     11  H   UNL     1       3.874   8.702  18.082  0.00  0.00    +0.000 HD
ENDROOT
BRANCH   1  14
ATOM     12  C   UNL     1       1.397   9.165  20.208  0.00  0.00    +0.000 C 
ATOM     13  C   UNL     1       1.035   9.339  18.738  0.00  0.00    +0.000 C 
ATOM     14  N   UNL     1       1.799   8.936  17.764  0.00  0.00    +0.000 NA
BRANCH  13  15
ATOM     15  C   UNL     1      -0.288   9.969  18.406  0.00  0.00    +0.000 A 
ATOM     16  C   UNL     1      -0.853  10.967  19.234  0.00  0.00    +0.000 A 
ATOM     17  C   UNL     1      -2.107  11.512  18.949  0.00  0.00    +0.000 A 
ATOM     18  C   UNL     1      -2.822  11.081  17.832  0.00  0.00    +0.000 A 
ATOM     19 CL   UNL     1      -4.405  11.756  17.492  0.00  0.00    +0.000 Cl
ATOM     20  C   UNL     1      -2.276  10.107  16.992  0.00  0.00    +0.000 A 
ATOM     21  C   UNL     1      -1.022   9.554  17.275  0.00  0.00    +0.000 A 
ENDBRANCH  13  15
ENDBRANCH   1  14
TORSDOF 2
ENDMDL
MODEL 9
REMARK VINA RESULT:      -6.7      2.219      2.987
REMARK  Name = 
REMARK  3 active torsions:
REMARK  status: ('A' for Active; 'I' for Inactive)
REMARK    1  A    between atoms: C_1  and  C_2
REMARK    2  A    between atoms: C_2  and  C_14
REMARK    3  A    between atoms: N_3  and  N_4
REMARK                            x       y       z     vdW  Elec       q    Type
REMARK                         _______ _______ _______ _____ _____    ______ ____
ROOT
ATOM      1  N   UNL     1       1.768   8.954  18.448  0.00  0.00    +0.000 N 
ATOM      2  C   UNL     1       1.097   9.705  19.442  0.00  0.00    +0.000 A 
ATOM      3  N   UNL     1       0.825   9.259  20.693  0.00  0.00    +0.000 NA
ATOM      4  C   UNL     1       0.137  10.197  21.403  0.00  0.00    +0.000 A 
ATOM      5  C   UNL     1      -0.109  11.386  20.723  0.00  0.00    +0.000 A 
ATOM      6  S   UNL     1       0.510  11.263  19.170  0.00  0.00    +0.000 S 
ATOM      7  C   UNL     1      -0.839  12.565  21.297  0.00  0.00    +0.000 C 
ATOM      8  C   UNL     1      -1.015  12.420  22.822  0.00  0.00    +0.000 C 
ATOM      9  C   UNL     1      -1.454  10.997  23.182  0.00  0.00    +0.000 C 
ATOM     10  C   UNL     1      -0.351   9.978  22.809  0.00  0.00    +0.000 C 
ATOM     11  H   UNL     1       1.884   9.413  17.539  0.00  0.00    +0.000 HD
ENDROOT
BRANCH   1  14
ATOM     12  C   UNL     1       4.082   7.704  17.154  0.00  0.00    +0.000 C 
ATOM     13  C   UNL     1       3.075   7.002  18.058  0.00  0.00    +0.000 C 
ATOM     14  N   UNL     1       2.088   7.622  18.638  0.00  0.00    +0.000 NA
BRANCH  13  15
ATOM     15  C   UNL     1       3.212   5.519  18.249  0.00  0.00    +0.000 A 
ATOM     16  C   UNL     1       4.352   4.962  18.874  0.00  0.00    +0.000 A 
ATOM     17  C   UNL     1       4.497   3.579  19.003  0.00  0.00    +0.000 A 
ATOM     18  C   UNL     1       3.509   2.722  18.519  0.00  0.00    +0.000 A 
ATOM     19 CL   UNL     1       3.709   0.985  18.666  0.00  0.00    +0.000 Cl
ATOM     20  C   UNL     1       2.368   3.250  17.911  0.00  0.00    +0.000 A 
ATOM     21  C   UNL     1       2.219   4.636  17.775  0.00  0.00    +0.000 A 
ENDBRANCH  13  15
ENDBRANCH   1  14
TORSDOF 2
ENDMDL
