MODEL 1
REMARK VINA RESULT:      -6.9      0.000      0.000
REMARK  Name = 
REMARK  13 active torsions:
REMARK  status: ('A' for Active; 'I' for Inactive)
REMARK    1  A    between atoms: C_4  and  C_5
REMARK    2  A    between atoms: C_10  and  C_11
REMARK    3  A    between atoms: C_12  and  C_13
REMARK    4  A    between atoms: C_13  and  C_14
REMARK    5  A    between atoms: C_13  and  O_15
REMARK    6  A    between atoms: O_15  and  C_16
REMARK    7  A    between atoms: C_16  and  C_17
REMARK    8  A    between atoms: C_17  and  C_18
REMARK    9  A    between atoms: C_18  and  C_19
REMARK   10  A    between atoms: C_18  and  C_20
REMARK   11  A    between atoms: C_18  and  O_21
REMARK   12  A    between atoms: C_26  and  O_27
REMARK   13  A    between atoms: C_29  and  O_30
REMARK                            x       y       z     vdW  Elec       q    Type
REMARK                         _______ _______ _______ _____ _____    ______ ____
ROOT
ATOM      1  C   UNL     1       1.813   6.758  19.542  0.00  0.00    +0.000 C 
ATOM      2  C   UNL     1       2.016   8.087  19.445  0.00  0.00    +0.000 C 
ATOM      3  C   UNL     1       2.573   8.784  18.211  0.00  0.00    +0.000 C 
ATOM      4  C   UNL     1       1.680   9.921  17.704  0.00  0.00    +0.000 C 
ATOM      5  C   UNL     1       1.171  10.837  18.820  0.00  0.00    +0.000 C 
ATOM      6  C   UNL     1       0.498  10.044  19.963  0.00  0.00    +0.000 C 
ATOM      7  C   UNL     1      -0.742   9.257  19.462  0.00  0.00    +0.000 C 
ATOM      8  C   UNL     1       0.138  10.906  21.221  0.00  0.00    +0.000 C 
ATOM      9  C   UNL     1       0.283   9.904  22.403  0.00  0.00    +0.000 C 
ATOM     10  C   UNL     1       0.999   8.649  21.862  0.00  0.00    +0.000 C 
ATOM     11  C   UNL     1       1.594   9.085  20.523  0.00  0.00    +0.000 C 
ENDROOT
BRANCH   1  15
ATOM     12  C   UNL     1       1.304   3.872  20.852  0.00  0.00    +0.000 C 
ATOM     13  C   UNL     1       2.310   3.772  19.964  0.00  0.00    +0.000 C 
ATOM     14  C   UNL     1       2.263   4.461  18.669  0.00  0.00    +0.000 C 
ATOM     15  C   UNL     1       2.039   5.781  18.492  0.00  0.00    +0.000 C 
ATOM     16  C   UNL     1       2.491   3.544  17.480  0.00  0.00    +0.000 C 
ATOM     17  C   UNL     1       3.740   2.666  17.648  0.00  0.00    +0.000 C 
ATOM     18  C   UNL     1       3.762   1.953  18.997  0.00  0.00    +0.000 C 
ATOM     19  C   UNL     1       3.556   2.924  20.164  0.00  0.00    +0.000 C 
BRANCH  17  20
ATOM     20  O   UNL     1       4.928   3.441  17.478  0.00  0.00    +0.000 OA
ATOM     21  H   UNL     1       4.989   4.079  18.212  0.00  0.00    +0.000 HD
ENDBRANCH  17  20
BRANCH  19  22
ATOM     22  O   UNL     1       3.491   2.171  21.375  0.00  0.00    +0.000 OA
ATOM     23  H   UNL     1       3.463   2.809  22.108  0.00  0.00    +0.000 HD
ENDBRANCH  19  22
ENDBRANCH   1  15
BRANCH   8  24
ATOM     24  C   UNL     1      -1.235  11.664  21.209  0.00  0.00    +0.000 C 
ATOM     25  C   UNL     1      -1.061  13.137  20.826  0.00  0.00    +0.000 C 
BRANCH  24  26
ATOM     26  O   UNL     1      -1.861  11.591  22.516  0.00  0.00    +0.000 OA
BRANCH  26  27
ATOM     27  C   UNL     1      -2.064  12.889  23.110  0.00  0.00    +0.000 C 
BRANCH  27  28
ATOM     28  C   UNL     1      -3.345  12.948  23.946  0.00  0.00    +0.000 C 
BRANCH  28  29
ATOM     29  C   UNL     1      -4.645  13.183  23.147  0.00  0.00    +0.000 C 
ATOM     30  C   UNL     1      -5.913  12.927  23.967  0.00  0.00    +0.000 C 
ATOM     31  C   UNL     1      -4.678  14.625  22.625  0.00  0.00    +0.000 C 
BRANCH  29  32
ATOM     32  O   UNL     1      -4.671  12.323  22.008  0.00  0.00    +0.000 OA
ATOM     33  H   UNL     1      -5.544  11.875  22.004  0.00  0.00    +0.000 HD
ENDBRANCH  29  32
ENDBRANCH  28  29
ENDBRANCH  27  28
ENDBRANCH  26  27
ENDBRANCH  24  26
ENDBRANCH   8  24
TORSDOF 9
ENDMDL
MODEL 2
REMARK VINA RESULT:      -6.9      0.946      1.418
REMARK  Name = 
REMARK  13 active torsions:
REMARK  status: ('A' for Active; 'I' for Inactive)
REMARK    1  A    between atoms: C_4  and  C_5
REMARK    2  A    between atoms: C_10  and  C_11
REMARK    3  A    between atoms: C_12  and  C_13
REMARK    4  A    between atoms: C_13  and  C_14
REMARK    5  A    between atoms: C_13  and  O_15
REMARK    6  A    between atoms: O_15  and  C_16
REMARK    7  A    between atoms: C_16  and  C_17
REMARK    8  A    between atoms: C_17  and  C_18
REMARK    9  A    between atoms: C_18  and  C_19
REMARK   10  A    between atoms: C_18  and  C_20
REMARK   11  A    between atoms: C_18  and  O_21
REMARK   12  A    between atoms: C_26  and  O_27
REMARK   13  A    between atoms: C_29  and  O_30
REMARK                            x       y       z     vdW  Elec       q    Type
REMARK                         _______ _______ _______ _____ _____    ______ ____
ROOT
ATOM      1  C   UNL     1       1.762   6.670  19.548  0.00  0.00    +0.000 C 
ATOM      2  C   UNL     1       2.012   7.990  19.442  0.00  0.00    +0.000 C 
ATOM      3  C   UNL     1       2.610   8.656  18.209  0.00  0.00    +0.000 C 
ATOM      4  C   UNL     1       1.763   9.817  17.678  0.00  0.00    +0.000 C 
ATOM      5  C   UNL     1       1.269  10.760  18.777  0.00  0.00    +0.000 C 
ATOM      6  C   UNL     1       0.554  10.002  19.918  0.00  0.00    +0.000 C 
ATOM      7  C   UNL     1      -0.705   9.253  19.407  0.00  0.00    +0.000 C 
ATOM      8  C   UNL     1       0.205  10.888  21.163  0.00  0.00    +0.000 C 
ATOM      9  C   UNL     1       0.299   9.894  22.356  0.00  0.00    +0.000 C 
ATOM     10  C   UNL     1       0.980   8.610  21.838  0.00  0.00    +0.000 C 
ATOM     11  C   UNL     1       1.608   9.012  20.503  0.00  0.00    +0.000 C 
ENDROOT
BRANCH   1  15
ATOM     12  C   UNL     1       1.287   3.806  20.917  0.00  0.00    +0.000 C 
ATOM     13  C   UNL     1       2.276   3.693  20.012  0.00  0.00    +0.000 C 
ATOM     14  C   UNL     1       2.201   4.360  18.706  0.00  0.00    +0.000 C 
ATOM     15  C   UNL     1       1.971   5.676  18.510  0.00  0.00    +0.000 C 
ATOM     16  C   UNL     1       2.409   3.423  17.529  0.00  0.00    +0.000 C 
ATOM     17  C   UNL     1       3.663   2.550  17.688  0.00  0.00    +0.000 C 
ATOM     18  C   UNL     1       3.713   1.861  19.048  0.00  0.00    +0.000 C 
ATOM     19  C   UNL     1       3.527   2.851  20.202  0.00  0.00    +0.000 C 
BRANCH  17  20
ATOM     20  O   UNL     1       4.846   3.325  17.480  0.00  0.00    +0.000 OA
ATOM     21  H   UNL     1       4.615   4.103  16.941  0.00  0.00    +0.000 HD
ENDBRANCH  17  20
BRANCH  19  22
ATOM     22  O   UNL     1       3.488   2.120  21.427  0.00  0.00    +0.000 OA
ATOM     23  H   UNL     1       4.382   2.151  21.808  0.00  0.00    +0.000 HD
ENDBRANCH  19  22
ENDBRANCH   1  15
BRANCH   8  24
ATOM     24  C   UNL     1      -1.141  11.693  21.123  0.00  0.00    +0.000 C 
ATOM     25  C   UNL     1      -0.921  13.138  20.667  0.00  0.00    +0.000 C 
BRANCH  24  26
ATOM     26  O   UNL     1      -1.758  11.705  22.437  0.00  0.00    +0.000 OA
BRANCH  26  27
ATOM     27  C   UNL     1      -2.971  12.482  22.475  0.00  0.00    +0.000 C 
BRANCH  27  28
ATOM     28  C   UNL     1      -3.180  13.162  23.830  0.00  0.00    +0.000 C 
BRANCH  28  29
ATOM     29  C   UNL     1      -2.402  14.480  24.035  0.00  0.00    +0.000 C 
ATOM     30  C   UNL     1      -2.695  15.530  22.960  0.00  0.00    +0.000 C 
ATOM     31  C   UNL     1      -2.743  15.072  25.409  0.00  0.00    +0.000 C 
BRANCH  29  32
ATOM     32  O   UNL     1      -0.999  14.215  24.028  0.00  0.00    +0.000 OA
ATOM     33  H   UNL     1      -0.860  13.415  23.478  0.00  0.00    +0.000 HD
ENDBRANCH  29  32
ENDBRANCH  28  29
ENDBRANCH  27  28
ENDBRANCH  26  27
ENDBRANCH  24  26
ENDBRANCH   8  24
TORSDOF 9
ENDMDL
MODEL 3
REMARK VINA RESULT:      -6.8      2.890      5.227
REMARK  Name = 
REMARK  13 active torsions:
REMARK  status: ('A' for Active; 'I' for Inactive)
REMARK    1  A    between atoms: C_4  and  C_5
REMARK    2  A    between atoms: C_10  and  C_11
REMARK    3  A    between atoms: C_12  and  C_13
REMARK    4  A    between atoms: C_13  and  C_14
REMARK    5  A    between atoms: C_13  and  O_15
REMARK    6  A    between atoms: O_15  and  C_16
REMARK    7  A    between atoms: C_16  and  C_17
REMARK    8  A    between atoms: C_17  and  C_18
REMARK    9  A    between atoms: C_18  and  C_19
REMARK   10  A    between atoms: C_18  and  C_20
REMARK   11  A    between atoms: C_18  and  O_21
REMARK   12  A    between atoms: C_26  and  O_27
REMARK   13  A    between atoms: C_29  and  O_30
REMARK                            x       y       z     vdW  Elec       q    Type
REMARK                         _______ _______ _______ _____ _____    ______ ____
ROOT
ATOM      1  C   UNL     1       0.874   7.866  20.293  0.00  0.00    +0.000 C 
ATOM      2  C   UNL     1      -0.024   8.703  20.850  0.00  0.00    +0.000 C 
ATOM      3  C   UNL     1      -0.539   8.584  22.279  0.00  0.00    +0.000 C 
ATOM      4  C   UNL     1      -0.370   9.872  23.092  0.00  0.00    +0.000 C 
ATOM      5  C   UNL     1      -0.789  11.130  22.330  0.00  0.00    +0.000 C 
ATOM      6  C   UNL     1      -0.106  11.230  20.947  0.00  0.00    +0.000 C 
ATOM      7  C   UNL     1       1.439  11.308  21.076  0.00  0.00    +0.000 C 
ATOM      8  C   UNL     1      -0.647  12.388  20.041  0.00  0.00    +0.000 C 
ATOM      9  C   UNL     1      -0.488  11.828  18.599  0.00  0.00    +0.000 C 
ATOM     10  C   UNL     1      -0.182  10.320  18.718  0.00  0.00    +0.000 C 
ATOM     11  C   UNL     1      -0.548   9.959  20.157  0.00  0.00    +0.000 C 
ENDROOT
BRANCH   1  15
ATOM     12  C   UNL     1       2.515   6.290  18.029  0.00  0.00    +0.000 C 
ATOM     13  C   UNL     1       2.029   5.397  18.910  0.00  0.00    +0.000 C 
ATOM     14  C   UNL     1       2.041   5.659  20.355  0.00  0.00    +0.000 C 
ATOM     15  C   UNL     1       1.531   6.754  20.957  0.00  0.00    +0.000 C 
ATOM     16  C   UNL     1       2.702   4.560  21.168  0.00  0.00    +0.000 C 
ATOM     17  C   UNL     1       2.166   3.164  20.815  0.00  0.00    +0.000 C 
ATOM     18  C   UNL     1       2.172   2.913  19.310  0.00  0.00    +0.000 C 
ATOM     19  C   UNL     1       1.470   4.034  18.537  0.00  0.00    +0.000 C 
BRANCH  17  20
ATOM     20  O   UNL     1       0.852   2.980  21.343  0.00  0.00    +0.000 OA
ATOM     21  H   UNL     1       0.741   3.573  22.109  0.00  0.00    +0.000 HD
ENDBRANCH  17  20
BRANCH  19  22
ATOM     22  O   UNL     1       1.604   3.775  17.139  0.00  0.00    +0.000 OA
ATOM     23  H   UNL     1       0.707   3.748  16.766  0.00  0.00    +0.000 HD
ENDBRANCH  19  22
ENDBRANCH   1  15
BRANCH   8  24
ATOM     24  C   UNL     1      -0.015  13.811  20.233  0.00  0.00    +0.000 C 
ATOM     25  C   UNL     1      -0.967  14.756  20.972  0.00  0.00    +0.000 C 
BRANCH  24  26
ATOM     26  O   UNL     1       0.315  14.392  18.945  0.00  0.00    +0.000 OA
BRANCH  26  27
ATOM     27  C   UNL     1       1.027  15.639  19.063  0.00  0.00    +0.000 C 
BRANCH  27  28
ATOM     28  C   UNL     1       2.516  15.430  19.351  0.00  0.00    +0.000 C 
BRANCH  28  29
ATOM     29  C   UNL     1       3.372  15.008  18.137  0.00  0.00    +0.000 C 
ATOM     30  C   UNL     1       3.364  16.036  17.003  0.00  0.00    +0.000 C 
ATOM     31  C   UNL     1       4.821  14.775  18.583  0.00  0.00    +0.000 C 
BRANCH  29  32
ATOM     32  O   UNL     1       2.888  13.769  17.617  0.00  0.00    +0.000 OA
ATOM     33  H   UNL     1       2.497  13.274  18.368  0.00  0.00    +0.000 HD
ENDBRANCH  29  32
ENDBRANCH  28  29
ENDBRANCH  27  28
ENDBRANCH  26  27
ENDBRANCH  24  26
ENDBRANCH   8  24
TORSDOF 9
ENDMDL
MODEL 4
REMARK VINA RESULT:      -6.8      1.978     10.324
REMARK  Name = 
REMARK  13 active torsions:
REMARK  status: ('A' for Active; 'I' for Inactive)
REMARK    1  A    between atoms: C_4  and  C_5
REMARK    2  A    between atoms: C_10  and  C_11
REMARK    3  A    between atoms: C_12  and  C_13
REMARK    4  A    between atoms: C_13  and  C_14
REMARK    5  A    between atoms: C_13  and  O_15
REMARK    6  A    between atoms: O_15  and  C_16
REMARK    7  A    between atoms: C_16  and  C_17
REMARK    8  A    between atoms: C_17  and  C_18
REMARK    9  A    between atoms: C_18  and  C_19
REMARK   10  A    between atoms: C_18  and  C_20
REMARK   11  A    between atoms: C_18  and  O_21
REMARK   12  A    between atoms: C_26  and  O_27
REMARK   13  A    between atoms: C_29  and  O_30
REMARK                            x       y       z     vdW  Elec       q    Type
REMARK                         _______ _______ _______ _____ _____    ______ ____
ROOT
ATOM      1  C   UNL     1      -1.399  12.622  23.252  0.00  0.00    +0.000 C 
ATOM      2  C   UNL     1      -1.678  12.073  22.053  0.00  0.00    +0.000 C 
ATOM      3  C   UNL     1      -2.424  12.786  20.933  0.00  0.00    +0.000 C 
ATOM      4  C   UNL     1      -1.662  12.787  19.604  0.00  0.00    +0.000 C 
ATOM      5  C   UNL     1      -1.059  11.427  19.248  0.00  0.00    +0.000 C 
ATOM      6  C   UNL     1      -0.205  10.849  20.400  0.00  0.00    +0.000 C 
ATOM      7  C   UNL     1       0.998  11.769  20.739  0.00  0.00    +0.000 C 
ATOM      8  C   UNL     1       0.271   9.373  20.172  0.00  0.00    +0.000 C 
ATOM      9  C   UNL     1       0.331   8.783  21.610  0.00  0.00    +0.000 C 
ATOM     10  C   UNL     1      -0.387   9.776  22.549  0.00  0.00    +0.000 C 
ATOM     11  C   UNL     1      -1.170  10.700  21.616  0.00  0.00    +0.000 C 
ENDROOT
BRANCH   1  15
ATOM     12  C   UNL     1      -4.211  12.488  24.793  0.00  0.00    +0.000 C 
ATOM     13  C   UNL     1      -4.155  13.637  24.097  0.00  0.00    +0.000 C 
ATOM     14  C   UNL     1      -2.926  14.438  24.033  0.00  0.00    +0.000 C 
ATOM     15  C   UNL     1      -1.711  13.980  23.661  0.00  0.00    +0.000 C 
ATOM     16  C   UNL     1      -3.120  15.888  24.437  0.00  0.00    +0.000 C 
ATOM     17  C   UNL     1      -4.304  16.546  23.711  0.00  0.00    +0.000 C 
ATOM     18  C   UNL     1      -5.571  15.701  23.799  0.00  0.00    +0.000 C 
ATOM     19  C   UNL     1      -5.330  14.254  23.355  0.00  0.00    +0.000 C 
BRANCH  17  20
ATOM     20  O   UNL     1      -3.975  16.807  22.345  0.00  0.00    +0.000 OA
ATOM     21  H   UNL     1      -4.614  17.452  21.991  0.00  0.00    +0.000 HD
ENDBRANCH  17  20
BRANCH  19  22
ATOM     22  O   UNL     1      -6.530  13.510  23.558  0.00  0.00    +0.000 OA
ATOM     23  H   UNL     1      -6.269  12.614  23.827  0.00  0.00    +0.000 HD
ENDBRANCH  19  22
ENDBRANCH   1  15
BRANCH   8  24
ATOM     24  C   UNL     1       1.592   9.159  19.353  0.00  0.00    +0.000 C 
ATOM     25  C   UNL     1       1.352   9.310  17.848  0.00  0.00    +0.000 C 
BRANCH  24  26
ATOM     26  O   UNL     1       2.135   7.838  19.611  0.00  0.00    +0.000 OA
BRANCH  26  27
ATOM     27  C   UNL     1       2.571   7.171  18.410  0.00  0.00    +0.000 C 
BRANCH  27  28
ATOM     28  C   UNL     1       3.557   6.038  18.704  0.00  0.00    +0.000 C 
BRANCH  28  29
ATOM     29  C   UNL     1       2.972   4.834  19.473  0.00  0.00    +0.000 C 
ATOM     30  C   UNL     1       1.686   4.284  18.849  0.00  0.00    +0.000 C 
ATOM     31  C   UNL     1       4.011   3.707  19.536  0.00  0.00    +0.000 C 
BRANCH  29  32
ATOM     32  O   UNL     1       2.685   5.218  20.818  0.00  0.00    +0.000 OA
ATOM     33  H   UNL     1       1.819   4.822  21.053  0.00  0.00    +0.000 HD
ENDBRANCH  29  32
ENDBRANCH  28  29
ENDBRANCH  27  28
ENDBRANCH  26  27
ENDBRANCH  24  26
ENDBRANCH   8  24
TORSDOF 9
ENDMDL
MODEL 5
REMARK VINA RESULT:      -6.8      1.935      2.692
REMARK  Name = 
REMARK  13 active torsions:
REMARK  status: ('A' for Active; 'I' for Inactive)
REMARK    1  A    between atoms: C_4  and  C_5
REMARK    2  A    between atoms: C_10  and  C_11
REMARK    3  A    between atoms: C_12  and  C_13
REMARK    4  A    between atoms: C_13  and  C_14
REMARK    5  A    between atoms: C_13  and  O_15
REMARK    6  A    between atoms: O_15  and  C_16
REMARK    7  A    between atoms: C_16  and  C_17
REMARK    8  A    between atoms: C_17  and  C_18
REMARK    9  A    between atoms: C_18  and  C_19
REMARK   10  A    between atoms: C_18  and  C_20
REMARK   11  A    between atoms: C_18  and  O_21
REMARK   12  A    between atoms: C_26  and  O_27
REMARK   13  A    between atoms: C_29  and  O_30
REMARK                            x       y       z     vdW  Elec       q    Type
REMARK                         _______ _______ _______ _____ _____    ______ ____
ROOT
ATOM      1  C   UNL     1       1.736   6.449  19.606  0.00  0.00    +0.000 C 
ATOM      2  C   UNL     1       2.078   7.743  19.451  0.00  0.00    +0.000 C 
ATOM      3  C   UNL     1       2.667   8.330  18.175  0.00  0.00    +0.000 C 
ATOM      4  C   UNL     1       1.886   9.539  17.649  0.00  0.00    +0.000 C 
ATOM      5  C   UNL     1       1.515  10.544  18.742  0.00  0.00    +0.000 C 
ATOM      6  C   UNL     1       0.798   9.872  19.934  0.00  0.00    +0.000 C 
ATOM      7  C   UNL     1      -0.536   9.208  19.500  0.00  0.00    +0.000 C 
ATOM      8  C   UNL     1       0.575  10.812  21.167  0.00  0.00    +0.000 C 
ATOM      9  C   UNL     1       0.649   9.844  22.383  0.00  0.00    +0.000 C 
ATOM     10  C   UNL     1       1.207   8.499  21.872  0.00  0.00    +0.000 C 
ATOM     11  C   UNL     1       1.802   8.819  20.500  0.00  0.00    +0.000 C 
ENDROOT
BRANCH   1  15
ATOM     12  C   UNL     1       1.575   3.636  21.144  0.00  0.00    +0.000 C 
ATOM     13  C   UNL     1       2.420   3.512  20.104  0.00  0.00    +0.000 C 
ATOM     14  C   UNL     1       2.126   4.117  18.799  0.00  0.00    +0.000 C 
ATOM     15  C   UNL     1       1.821   5.416  18.589  0.00  0.00    +0.000 C 
ATOM     16  C   UNL     1       2.187   3.135  17.642  0.00  0.00    +0.000 C 
ATOM     17  C   UNL     1       3.482   2.308  17.643  0.00  0.00    +0.000 C 
ATOM     18  C   UNL     1       3.760   1.682  19.006  0.00  0.00    +0.000 C 
ATOM     19  C   UNL     1       3.715   2.717  20.135  0.00  0.00    +0.000 C 
BRANCH  17  20
ATOM     20  O   UNL     1       4.591   3.107  17.228  0.00  0.00    +0.000 OA
ATOM     21  H   UNL     1       5.396   2.559  17.260  0.00  0.00    +0.000 HD
ENDBRANCH  17  20
BRANCH  19  22
ATOM     22  O   UNL     1       3.887   2.040  21.379  0.00  0.00    +0.000 OA
ATOM     23  H   UNL     1       4.617   2.479  21.846  0.00  0.00    +0.000 HD
ENDBRANCH  19  22
ENDBRANCH   1  15
BRANCH   8  24
ATOM     24  C   UNL     1      -0.708  11.716  21.164  0.00  0.00    +0.000 C 
ATOM     25  C   UNL     1      -1.527  11.536  22.445  0.00  0.00    +0.000 C 
BRANCH  24  26
ATOM     26  O   UNL     1      -1.546  11.393  20.023  0.00  0.00    +0.000 OA
BRANCH  26  27
ATOM     27  C   UNL     1      -2.557  12.390  19.775  0.00  0.00    +0.000 C 
BRANCH  27  28
ATOM     28  C   UNL     1      -3.786  11.805  19.075  0.00  0.00    +0.000 C 
BRANCH  28  29
ATOM     29  C   UNL     1      -3.556  11.325  17.626  0.00  0.00    +0.000 C 
ATOM     30  C   UNL     1      -3.388   9.808  17.510  0.00  0.00    +0.000 C 
ATOM     31  C   UNL     1      -4.735  11.760  16.745  0.00  0.00    +0.000 C 
BRANCH  29  32
ATOM     32  O   UNL     1      -2.384  11.944  17.096  0.00  0.00    +0.000 OA
ATOM     33  H   UNL     1      -2.102  11.413  16.321  0.00  0.00    +0.000 HD
ENDBRANCH  29  32
ENDBRANCH  28  29
ENDBRANCH  27  28
ENDBRANCH  26  27
ENDBRANCH  24  26
ENDBRANCH   8  24
TORSDOF 9
ENDMDL
MODEL 6
REMARK VINA RESULT:      -6.6      3.241      5.275
REMARK  Name = 
REMARK  13 active torsions:
REMARK  status: ('A' for Active; 'I' for Inactive)
REMARK    1  A    between atoms: C_4  and  C_5
REMARK    2  A    between atoms: C_10  and  C_11
REMARK    3  A    between atoms: C_12  and  C_13
REMARK    4  A    between atoms: C_13  and  C_14
REMARK    5  A    between atoms: C_13  and  O_15
REMARK    6  A    between atoms: O_15  and  C_16
REMARK    7  A    between atoms: C_16  and  C_17
REMARK    8  A    between atoms: C_17  and  C_18
REMARK    9  A    between atoms: C_18  and  C_19
REMARK   10  A    between atoms: C_18  and  C_20
REMARK   11  A    between atoms: C_18  and  O_21
REMARK   12  A    between atoms: C_26  and  O_27
REMARK   13  A    between atoms: C_29  and  O_30
REMARK                            x       y       z     vdW  Elec       q    Type
REMARK                         _______ _______ _______ _____ _____    ______ ____
ROOT
ATOM      1  C   UNL     1       0.876   7.855  20.296  0.00  0.00    +0.000 C 
ATOM      2  C   UNL     1      -0.017   8.705  20.839  0.00  0.00    +0.000 C 
ATOM      3  C   UNL     1      -0.543   8.603  22.265  0.00  0.00    +0.000 C 
ATOM      4  C   UNL     1      -0.369   9.896  23.068  0.00  0.00    +0.000 C 
ATOM      5  C   UNL     1      -0.771  11.152  22.292  0.00  0.00    +0.000 C 
ATOM      6  C   UNL     1      -0.078  11.233  20.914  0.00  0.00    +0.000 C 
ATOM      7  C   UNL     1       1.467  11.299  21.052  0.00  0.00    +0.000 C 
ATOM      8  C   UNL     1      -0.602  12.388  19.994  0.00  0.00    +0.000 C 
ATOM      9  C   UNL     1      -0.438  11.814  18.557  0.00  0.00    +0.000 C 
ATOM     10  C   UNL     1      -0.146  10.305  18.692  0.00  0.00    +0.000 C 
ATOM     11  C   UNL     1      -0.526   9.960  20.132  0.00  0.00    +0.000 C 
ENDROOT
BRANCH   1  15
ATOM     12  C   UNL     1       2.533   6.255  18.060  0.00  0.00    +0.000 C 
ATOM     13  C   UNL     1       2.031   5.371  18.941  0.00  0.00    +0.000 C 
ATOM     14  C   UNL     1       2.029   5.641  20.384  0.00  0.00    +0.000 C 
ATOM     15  C   UNL     1       1.519   6.744  20.974  0.00  0.00    +0.000 C 
ATOM     16  C   UNL     1       2.674   4.544  21.212  0.00  0.00    +0.000 C 
ATOM     17  C   UNL     1       2.133   3.149  20.860  0.00  0.00    +0.000 C 
ATOM     18  C   UNL     1       2.154   2.888  19.357  0.00  0.00    +0.000 C 
ATOM     19  C   UNL     1       1.468   4.009  18.569  0.00  0.00    +0.000 C 
BRANCH  17  20
ATOM     20  O   UNL     1       0.811   2.977  21.375  0.00  0.00    +0.000 OA
ATOM     21  H   UNL     1       0.186   3.423  20.776  0.00  0.00    +0.000 HD
ENDBRANCH  17  20
BRANCH  19  22
ATOM     22  O   UNL     1       1.615   3.740  17.175  0.00  0.00    +0.000 OA
ATOM     23  H   UNL     1       1.073   4.391  16.700  0.00  0.00    +0.000 HD
ENDBRANCH  19  22
ENDBRANCH   1  15
BRANCH   8  24
ATOM     24  C   UNL     1       0.041  13.807  20.178  0.00  0.00    +0.000 C 
ATOM     25  C   UNL     1      -1.026  14.897  20.314  0.00  0.00    +0.000 C 
BRANCH  24  26
ATOM     26  O   UNL     1       0.892  14.124  19.045  0.00  0.00    +0.000 OA
BRANCH  26  27
ATOM     27  C   UNL     1       2.219  14.525  19.441  0.00  0.00    +0.000 C 
BRANCH  27  28
ATOM     28  C   UNL     1       3.012  15.124  18.277  0.00  0.00    +0.000 C 
BRANCH  28  29
ATOM     29  C   UNL     1       3.067  16.666  18.237  0.00  0.00    +0.000 C 
ATOM     30  C   UNL     1       2.530  17.258  16.931  0.00  0.00    +0.000 C 
ATOM     31  C   UNL     1       2.260  17.241  19.408  0.00  0.00    +0.000 C 
BRANCH  29  32
ATOM     32  O   UNL     1       4.416  17.102  18.402  0.00  0.00    +0.000 OA
ATOM     33  H   UNL     1       4.396  18.080  18.478  0.00  0.00    +0.000 HD
ENDBRANCH  29  32
ENDBRANCH  28  29
ENDBRANCH  27  28
ENDBRANCH  26  27
ENDBRANCH  24  26
ENDBRANCH   8  24
TORSDOF 9
ENDMDL
MODEL 7
REMARK VINA RESULT:      -6.6      2.927     10.670
REMARK  Name = 
REMARK  13 active torsions:
REMARK  status: ('A' for Active; 'I' for Inactive)
REMARK    1  A    between atoms: C_4  and  C_5
REMARK    2  A    between atoms: C_10  and  C_11
REMARK    3  A    between atoms: C_12  and  C_13
REMARK    4  A    between atoms: C_13  and  C_14
REMARK    5  A    between atoms: C_13  and  O_15
REMARK    6  A    between atoms: O_15  and  C_16
REMARK    7  A    between atoms: C_16  and  C_17
REMARK    8  A    between atoms: C_17  and  C_18
REMARK    9  A    between atoms: C_18  and  C_19
REMARK   10  A    between atoms: C_18  and  C_20
REMARK   11  A    between atoms: C_18  and  O_21
REMARK   12  A    between atoms: C_26  and  O_27
REMARK   13  A    between atoms: C_29  and  O_30
REMARK                            x       y       z     vdW  Elec       q    Type
REMARK                         _______ _______ _______ _____ _____    ______ ____
ROOT
ATOM      1  C   UNL     1       1.465   9.027  18.203  0.00  0.00    +0.000 C 
ATOM      2  C   UNL     1       2.176   8.142  18.930  0.00  0.00    +0.000 C 
ATOM      3  C   UNL     1       1.820   7.710  20.346  0.00  0.00    +0.000 C 
ATOM      4  C   UNL     1       1.707   6.190  20.504  0.00  0.00    +0.000 C 
ATOM      5  C   UNL     1       2.850   5.423  19.835  0.00  0.00    +0.000 C 
ATOM      6  C   UNL     1       3.043   5.835  18.358  0.00  0.00    +0.000 C 
ATOM      7  C   UNL     1       1.779   5.534  17.510  0.00  0.00    +0.000 C 
ATOM      8  C   UNL     1       4.322   5.233  17.682  0.00  0.00    +0.000 C 
ATOM      9  C   UNL     1       4.739   6.325  16.654  0.00  0.00    +0.000 C 
ATOM     10  C   UNL     1       3.928   7.598  16.974  0.00  0.00    +0.000 C 
ATOM     11  C   UNL     1       3.367   7.361  18.377  0.00  0.00    +0.000 C 
ENDROOT
BRANCH   1  15
ATOM     12  C   UNL     1       2.124  12.157  18.475  0.00  0.00    +0.000 C 
ATOM     13  C   UNL     1       1.245  11.816  19.434  0.00  0.00    +0.000 C 
ATOM     14  C   UNL     1       0.127  10.905  19.163  0.00  0.00    +0.000 C 
ATOM     15  C   UNL     1       0.233   9.675  18.615  0.00  0.00    +0.000 C 
ATOM     16  C   UNL     1      -1.228  11.468  19.556  0.00  0.00    +0.000 C 
ATOM     17  C   UNL     1      -1.239  12.023  20.988  0.00  0.00    +0.000 C 
ATOM     18  C   UNL     1      -0.073  12.974  21.243  0.00  0.00    +0.000 C 
ATOM     19  C   UNL     1       1.272  12.350  20.857  0.00  0.00    +0.000 C 
BRANCH  17  20
ATOM     20  O   UNL     1      -1.230  10.959  21.942  0.00  0.00    +0.000 OA
ATOM     21  H   UNL     1      -0.501  10.352  21.720  0.00  0.00    +0.000 HD
ENDBRANCH  17  20
BRANCH  19  22
ATOM     22  O   UNL     1       2.294  13.331  21.032  0.00  0.00    +0.000 OA
ATOM     23  H   UNL     1       2.188  13.984  20.321  0.00  0.00    +0.000 HD
ENDBRANCH  19  22
ENDBRANCH   1  15
BRANCH   8  24
ATOM     24  C   UNL     1       4.202   3.799  17.058  0.00  0.00    +0.000 C 
ATOM     25  C   UNL     1       4.092   2.721  18.140  0.00  0.00    +0.000 C 
BRANCH  24  26
ATOM     26  O   UNL     1       5.359   3.513  16.229  0.00  0.00    +0.000 OA
BRANCH  26  27
ATOM     27  C   UNL     1       5.194   3.960  14.869  0.00  0.00    +0.000 C 
BRANCH  27  28
ATOM     28  C   UNL     1       6.463   3.761  14.037  0.00  0.00    +0.000 C 
BRANCH  28  29
ATOM     29  C   UNL     1       6.237   3.549  12.525  0.00  0.00    +0.000 C 
ATOM     30  C   UNL     1       4.781   3.752  12.096  0.00  0.00    +0.000 C 
ATOM     31  C   UNL     1       7.125   4.514  11.729  0.00  0.00    +0.000 C 
BRANCH  29  32
ATOM     32  O   UNL     1       6.627   2.224  12.163  0.00  0.00    +0.000 OA
ATOM     33  H   UNL     1       7.597   2.237  12.019  0.00  0.00    +0.000 HD
ENDBRANCH  29  32
ENDBRANCH  28  29
ENDBRANCH  27  28
ENDBRANCH  26  27
ENDBRANCH  24  26
ENDBRANCH   8  24
TORSDOF 9
ENDMDL
MODEL 8
REMARK VINA RESULT:      -6.5      0.857      1.039
REMARK  Name = 
REMARK  13 active torsions:
REMARK  status: ('A' for Active; 'I' for Inactive)
REMARK    1  A    between atoms: C_4  and  C_5
REMARK    2  A    between atoms: C_10  and  C_11
REMARK    3  A    between atoms: C_12  and  C_13
REMARK    4  A    between atoms: C_13  and  C_14
REMARK    5  A    between atoms: C_13  and  O_15
REMARK    6  A    between atoms: O_15  and  C_16
REMARK    7  A    between atoms: C_16  and  C_17
REMARK    8  A    between atoms: C_17  and  C_18
REMARK    9  A    between atoms: C_18  and  C_19
REMARK   10  A    between atoms: C_18  and  C_20
REMARK   11  A    between atoms: C_18  and  O_21
REMARK   12  A    between atoms: C_26  and  O_27
REMARK   13  A    between atoms: C_29  and  O_30
REMARK                            x       y       z     vdW  Elec       q    Type
REMARK                         _______ _______ _______ _____ _____    ______ ____
ROOT
ATOM      1  C   UNL     1       1.606   6.602  19.315  0.00  0.00    +0.000 C 
ATOM      2  C   UNL     1       1.973   7.899  19.275  0.00  0.00    +0.000 C 
ATOM      3  C   UNL     1       2.866   8.507  18.201  0.00  0.00    +0.000 C 
ATOM      4  C   UNL     1       2.241   9.727  17.515  0.00  0.00    +0.000 C 
ATOM      5  C   UNL     1       1.602  10.713  18.495  0.00  0.00    +0.000 C 
ATOM      6  C   UNL     1       0.607  10.021  19.453  0.00  0.00    +0.000 C 
ATOM      7  C   UNL     1      -0.571   9.367  18.683  0.00  0.00    +0.000 C 
ATOM      8  C   UNL     1       0.075  10.941  20.605  0.00  0.00    +0.000 C 
ATOM      9  C   UNL     1      -0.160   9.951  21.783  0.00  0.00    +0.000 C 
ATOM     10  C   UNL     1       0.513   8.614  21.407  0.00  0.00    +0.000 C 
ATOM     11  C   UNL     1       1.436   8.957  20.237  0.00  0.00    +0.000 C 
ENDROOT
BRANCH   1  15
ATOM     12  C   UNL     1       1.156   3.763  20.743  0.00  0.00    +0.000 C 
ATOM     13  C   UNL     1       2.222   3.672  19.928  0.00  0.00    +0.000 C 
ATOM     14  C   UNL     1       2.227   4.292  18.598  0.00  0.00    +0.000 C 
ATOM     15  C   UNL     1       1.950   5.588  18.335  0.00  0.00    +0.000 C 
ATOM     16  C   UNL     1       2.579   3.329  17.477  0.00  0.00    +0.000 C 
ATOM     17  C   UNL     1       3.856   2.528  17.771  0.00  0.00    +0.000 C 
ATOM     18  C   UNL     1       3.824   1.887  19.155  0.00  0.00    +0.000 C 
ATOM     19  C   UNL     1       3.493   2.903  20.253  0.00  0.00    +0.000 C 
BRANCH  17  20
ATOM     20  O   UNL     1       5.013   3.356  17.635  0.00  0.00    +0.000 OA
ATOM     21  H   UNL     1       4.724   4.253  17.386  0.00  0.00    +0.000 HD
ENDBRANCH  17  20
BRANCH  19  22
ATOM     22  O   UNL     1       3.385   2.210  21.496  0.00  0.00    +0.000 OA
ATOM     23  H   UNL     1       2.494   1.825  21.533  0.00  0.00    +0.000 HD
ENDBRANCH  19  22
ENDBRANCH   1  15
BRANCH   8  24
ATOM     24  C   UNL     1      -1.167  11.846  20.291  0.00  0.00    +0.000 C 
ATOM     25  C   UNL     1      -0.743  13.244  19.831  0.00  0.00    +0.000 C 
BRANCH  24  26
ATOM     26  O   UNL     1      -2.005  11.976  21.469  0.00  0.00    +0.000 OA
BRANCH  26  27
ATOM     27  C   UNL     1      -3.149  12.824  21.248  0.00  0.00    +0.000 C 
BRANCH  27  28
ATOM     28  C   UNL     1      -3.338  13.844  22.373  0.00  0.00    +0.000 C 
BRANCH  28  29
ATOM     29  C   UNL     1      -3.920  13.280  23.687  0.00  0.00    +0.000 C 
ATOM     30  C   UNL     1      -3.522  14.091  24.923  0.00  0.00    +0.000 C 
ATOM     31  C   UNL     1      -5.451  13.237  23.597  0.00  0.00    +0.000 C 
BRANCH  29  32
ATOM     32  O   UNL     1      -3.472  11.937  23.872  0.00  0.00    +0.000 OA
ATOM     33  H   UNL     1      -3.292  11.823  24.830  0.00  0.00    +0.000 HD
ENDBRANCH  29  32
ENDBRANCH  28  29
ENDBRANCH  27  28
ENDBRANCH  26  27
ENDBRANCH  24  26
ENDBRANCH   8  24
TORSDOF 9
ENDMDL
MODEL 9
REMARK VINA RESULT:      -6.5      2.786      4.936
REMARK  Name = 
REMARK  13 active torsions:
REMARK  status: ('A' for Active; 'I' for Inactive)
REMARK    1  A    between atoms: C_4  and  C_5
REMARK    2  A    between atoms: C_10  and  C_11
REMARK    3  A    between atoms: C_12  and  C_13
REMARK    4  A    between atoms: C_13  and  C_14
REMARK    5  A    between atoms: C_13  and  O_15
REMARK    6  A    between atoms: O_15  and  C_16
REMARK    7  A    between atoms: C_16  and  C_17
REMARK    8  A    between atoms: C_17  and  C_18
REMARK    9  A    between atoms: C_18  and  C_19
REMARK   10  A    between atoms: C_18  and  C_20
REMARK   11  A    between atoms: C_18  and  O_21
REMARK   12  A    between atoms: C_26  and  O_27
REMARK   13  A    between atoms: C_29  and  O_30
REMARK                            x       y       z     vdW  Elec       q    Type
REMARK                         _______ _______ _______ _____ _____    ______ ____
ROOT
ATOM      1  C   UNL     1       0.869   7.852  20.300  0.00  0.00    +0.000 C 
ATOM      2  C   UNL     1      -0.021   8.701  20.852  0.00  0.00    +0.000 C 
ATOM      3  C   UNL     1      -0.536   8.596  22.281  0.00  0.00    +0.000 C 
ATOM      4  C   UNL     1      -0.355   9.889  23.085  0.00  0.00    +0.000 C 
ATOM      5  C   UNL     1      -0.765  11.145  22.314  0.00  0.00    +0.000 C 
ATOM      6  C   UNL     1      -0.082  11.228  20.930  0.00  0.00    +0.000 C 
ATOM      7  C   UNL     1       1.463  11.295  21.056  0.00  0.00    +0.000 C 
ATOM      8  C   UNL     1      -0.615  12.385  20.016  0.00  0.00    +0.000 C 
ATOM      9  C   UNL     1      -0.462  11.812  18.577  0.00  0.00    +0.000 C 
ATOM     10  C   UNL     1      -0.168  10.303  18.707  0.00  0.00    +0.000 C 
ATOM     11  C   UNL     1      -0.536   9.956  20.150  0.00  0.00    +0.000 C 
ENDROOT
BRANCH   1  15
ATOM     12  C   UNL     1       2.531   6.272  18.054  0.00  0.00    +0.000 C 
ATOM     13  C   UNL     1       2.034   5.380  18.931  0.00  0.00    +0.000 C 
ATOM     14  C   UNL     1       2.032   5.643  20.375  0.00  0.00    +0.000 C 
ATOM     15  C   UNL     1       1.518   6.740  20.971  0.00  0.00    +0.000 C 
ATOM     16  C   UNL     1       2.684   4.544  21.196  0.00  0.00    +0.000 C 
ATOM     17  C   UNL     1       2.149   3.149  20.838  0.00  0.00    +0.000 C 
ATOM     18  C   UNL     1       2.170   2.896  19.334  0.00  0.00    +0.000 C 
ATOM     19  C   UNL     1       1.477   4.017  18.553  0.00  0.00    +0.000 C 
BRANCH  17  20
ATOM     20  O   UNL     1       0.829   2.967  21.354  0.00  0.00    +0.000 OA
ATOM     21  H   UNL     1       0.190   3.256  20.677  0.00  0.00    +0.000 HD
ENDBRANCH  17  20
BRANCH  19  22
ATOM     22  O   UNL     1       1.624   3.757  17.157  0.00  0.00    +0.000 OA
ATOM     23  H   UNL     1       2.183   2.967  17.071  0.00  0.00    +0.000 HD
ENDBRANCH  19  22
ENDBRANCH   1  15
BRANCH   8  24
ATOM     24  C   UNL     1       0.029  13.803  20.197  0.00  0.00    +0.000 C 
ATOM     25  C   UNL     1      -1.020  14.856  20.566  0.00  0.00    +0.000 C 
BRANCH  24  26
ATOM     26  O   UNL     1       0.692  14.214  18.972  0.00  0.00    +0.000 OA
BRANCH  26  27
ATOM     27  C   UNL     1       1.796  15.109  19.210  0.00  0.00    +0.000 C 
BRANCH  27  28
ATOM     28  C   UNL     1       3.002  14.390  19.819  0.00  0.00    +0.000 C 
BRANCH  28  29
ATOM     29  C   UNL     1       3.530  14.986  21.141  0.00  0.00    +0.000 C 
ATOM     30  C   UNL     1       5.020  14.720  21.373  0.00  0.00    +0.000 C 
ATOM     31  C   UNL     1       3.291  16.501  21.156  0.00  0.00    +0.000 C 
BRANCH  29  32
ATOM     32  O   UNL     1       2.804  14.434  22.240  0.00  0.00    +0.000 OA
ATOM     33  H   UNL     1       2.485  15.187  22.782  0.00  0.00    +0.000 HD
ENDBRANCH  29  32
ENDBRANCH  28  29
ENDBRANCH  27  28
ENDBRANCH  26  27
ENDBRANCH  24  26
ENDBRANCH   8  24
TORSDOF 9
ENDMDL
