MODEL 1
REMARK VINA RESULT:      -8.8      0.000      0.000
REMARK  Name = 
REMARK  12 active torsions:
REMARK  status: ('A' for Active; 'I' for Inactive)
REMARK    1  A    between atoms: C_1  and  O_2
REMARK    2  A    between atoms: O_2  and  C_3
REMARK    3  A    between atoms: C_6  and  C_7
REMARK    4  A    between atoms: C_7  and  C_8
REMARK    5  A    between atoms: C_7  and  C_9
REMARK    6  A    between atoms: C_11  and  C_12
REMARK    7  A    between atoms: C_17  and  C_18
REMARK    8  A    between atoms: C_18  and  C_19
REMARK    9  A    between atoms: C_18  and  C_23
REMARK   10  A    between atoms: C_19  and  C_20
REMARK   11  A    between atoms: C_20  and  O_22
REMARK   12  A    between atoms: C_26  and  C_27
REMARK                            x       y       z     vdW  Elec       q    Type
REMARK                         _______ _______ _______ _____ _____    ______ ____
ROOT
ATOM      1  C   UNL     1       2.960   5.965  18.166  0.00  0.00    +0.000 A 
ATOM      2  C   UNL     1       2.506   4.646  18.023  0.00  0.00    +0.000 A 
ATOM      3  C   UNL     1       3.210   3.721  17.245  0.00  0.00    +0.000 A 
ATOM      4 CL   UNL     1       2.604   2.118  17.066  0.00  0.00    +0.000 Cl
ATOM      5  C   UNL     1       4.405   4.070  16.617  0.00  0.00    +0.000 A 
ATOM      6  C   UNL     1       4.903   5.371  16.746  0.00  0.00    +0.000 A 
ATOM      7  C   UNL     1       4.158   6.299  17.495  0.00  0.00    +0.000 A 
ENDROOT
BRANCH   1  13
ATOM      8  C   UNL     1       1.965   6.816  20.386  0.00  0.00    +0.000 A 
ATOM      9  C   UNL     1       1.323   7.846  21.093  0.00  0.00    +0.000 A 
ATOM     10  C   UNL     1       0.932   9.026  20.460  0.00  0.00    +0.000 A 
ATOM     11  C   UNL     1       1.197   9.220  19.107  0.00  0.00    +0.000 A 
ATOM     12  C   UNL     1       1.873   8.203  18.416  0.00  0.00    +0.000 A 
ATOM     13  C   UNL     1       2.271   6.983  19.016  0.00  0.00    +0.000 A 
BRANCH  11  14
ATOM     14  C   UNL     1       0.789  10.510  18.419  0.00  0.00    +0.000 C 
ATOM     15  C   UNL     1      -0.685  10.472  18.009  0.00  0.00    +0.000 C 
ATOM     16  C   UNL     1       1.080  11.740  19.283  0.00  0.00    +0.000 C 
ENDBRANCH  11  14
BRANCH   8  18
ATOM     17  C   UNL     1       1.377   4.593  20.975  0.00  0.00    +0.000 C 
ATOM     18  O   UNL     1       2.340   5.644  20.998  0.00  0.00    +0.000 OA
ENDBRANCH   8  18
ENDBRANCH   1  13
BRANCH   6  19
ATOM     19  C   UNL     1       6.227   5.810  16.129  0.00  0.00    +0.000 C 
BRANCH  19  20
ATOM     20  C   UNL     1       7.075   6.530  17.129  0.00  0.00    +0.000 A 
ATOM     21  N   UNL     1       7.678   6.065  18.204  0.00  0.00    +0.000 NA
ATOM     22  N   UNL     1       8.323   7.137  18.783  0.00  0.00    +0.000 NA
ATOM     23  C   UNL     1       8.068   8.179  18.022  0.00  0.00    +0.000 A 
ATOM     24  C   UNL     1       8.516   9.576  18.161  0.00  0.00    +0.000 C 
ATOM     25  O   UNL     1       7.283   7.874  16.943  0.00  0.00    +0.000 OA
ENDBRANCH  19  20
BRANCH  19  26
ATOM     26  C   UNL     1       7.012   4.640  15.520  0.00  0.00    +0.000 C 
BRANCH  26  27
ATOM     27  C   UNL     1       7.217   4.831  14.040  0.00  0.00    +0.000 C 
ATOM     28  O   UNL     1       8.029   5.598  13.551  0.00  0.00    +0.000 OA
BRANCH  27  29
ATOM     29  O   UNL     1       6.449   4.010  13.287  0.00  0.00    +0.000 OA
ATOM     30  H   UNL     1       6.940   3.336  12.783  0.00  0.00    +0.000 HD
ENDBRANCH  27  29
ENDBRANCH  26  27
ENDBRANCH  19  26
ENDBRANCH   6  19
TORSDOF 8
ENDMDL
MODEL 2
REMARK VINA RESULT:      -8.4      1.610      3.276
REMARK  Name = 
REMARK  12 active torsions:
REMARK  status: ('A' for Active; 'I' for Inactive)
REMARK    1  A    between atoms: C_1  and  O_2
REMARK    2  A    between atoms: O_2  and  C_3
REMARK    3  A    between atoms: C_6  and  C_7
REMARK    4  A    between atoms: C_7  and  C_8
REMARK    5  A    between atoms: C_7  and  C_9
REMARK    6  A    between atoms: C_11  and  C_12
REMARK    7  A    between atoms: C_17  and  C_18
REMARK    8  A    between atoms: C_18  and  C_19
REMARK    9  A    between atoms: C_18  and  C_23
REMARK   10  A    between atoms: C_19  and  C_20
REMARK   11  A    between atoms: C_20  and  O_22
REMARK   12  A    between atoms: C_26  and  C_27
REMARK                            x       y       z     vdW  Elec       q    Type
REMARK                         _______ _______ _______ _____ _____    ______ ____
ROOT
ATOM      1  C   UNL     1       3.132   5.579  18.344  0.00  0.00    +0.000 A 
ATOM      2  C   UNL     1       2.557   4.323  18.102  0.00  0.00    +0.000 A 
ATOM      3  C   UNL     1       3.266   3.323  17.431  0.00  0.00    +0.000 A 
ATOM      4 CL   UNL     1       2.515   1.803  17.122  0.00  0.00    +0.000 Cl
ATOM      5  C   UNL     1       4.581   3.528  17.014  0.00  0.00    +0.000 A 
ATOM      6  C   UNL     1       5.200   4.760  17.249  0.00  0.00    +0.000 A 
ATOM      7  C   UNL     1       4.455   5.770  17.885  0.00  0.00    +0.000 A 
ENDROOT
BRANCH   1  13
ATOM      8  C   UNL     1       2.084   6.615  20.459  0.00  0.00    +0.000 A 
ATOM      9  C   UNL     1       1.440   7.707  21.065  0.00  0.00    +0.000 A 
ATOM     10  C   UNL     1       1.091   8.840  20.330  0.00  0.00    +0.000 A 
ATOM     11  C   UNL     1       1.402   8.925  18.976  0.00  0.00    +0.000 A 
ATOM     12  C   UNL     1       2.080   7.847  18.387  0.00  0.00    +0.000 A 
ATOM     13  C   UNL     1       2.436   6.670  19.091  0.00  0.00    +0.000 A 
BRANCH  11  14
ATOM     14  C   UNL     1       1.040  10.165  18.179  0.00  0.00    +0.000 C 
ATOM     15  C   UNL     1      -0.430  10.134  17.752  0.00  0.00    +0.000 C 
ATOM     16  C   UNL     1       1.356  11.453  18.943  0.00  0.00    +0.000 C 
ENDBRANCH  11  14
BRANCH   8  18
ATOM     17  C   UNL     1       1.478   4.417  21.121  0.00  0.00    +0.000 C 
ATOM     18  O   UNL     1       2.418   5.487  21.171  0.00  0.00    +0.000 OA
ENDBRANCH   8  18
ENDBRANCH   1  13
BRANCH   6  19
ATOM     19  C   UNL     1       6.649   5.040  16.866  0.00  0.00    +0.000 C 
BRANCH  19  20
ATOM     20  C   UNL     1       6.852   4.906  15.390  0.00  0.00    +0.000 A 
ATOM     21  N   UNL     1       7.703   5.532  14.602  0.00  0.00    +0.000 NA
ATOM     22  N   UNL     1       7.479   5.053  13.330  0.00  0.00    +0.000 NA
ATOM     23  C   UNL     1       6.509   4.170  13.430  0.00  0.00    +0.000 A 
ATOM     24  C   UNL     1       5.880   3.343  12.385  0.00  0.00    +0.000 C 
ATOM     25  O   UNL     1       6.059   4.014  14.713  0.00  0.00    +0.000 OA
ENDBRANCH  19  20
BRANCH  19  26
ATOM     26  C   UNL     1       7.131   6.419  17.340  0.00  0.00    +0.000 C 
BRANCH  26  27
ATOM     27  C   UNL     1       7.883   6.318  18.640  0.00  0.00    +0.000 C 
ATOM     28  O   UNL     1       7.935   5.314  19.329  0.00  0.00    +0.000 OA
BRANCH  27  29
ATOM     29  O   UNL     1       8.564   7.446  18.949  0.00  0.00    +0.000 OA
ATOM     30  H   UNL     1       9.080   7.829  18.216  0.00  0.00    +0.000 HD
ENDBRANCH  27  29
ENDBRANCH  26  27
ENDBRANCH  19  26
ENDBRANCH   6  19
TORSDOF 8
ENDMDL
MODEL 3
REMARK VINA RESULT:      -8.2      4.494      8.133
REMARK  Name = 
REMARK  12 active torsions:
REMARK  status: ('A' for Active; 'I' for Inactive)
REMARK    1  A    between atoms: C_1  and  O_2
REMARK    2  A    between atoms: O_2  and  C_3
REMARK    3  A    between atoms: C_6  and  C_7
REMARK    4  A    between atoms: C_7  and  C_8
REMARK    5  A    between atoms: C_7  and  C_9
REMARK    6  A    between atoms: C_11  and  C_12
REMARK    7  A    between atoms: C_17  and  C_18
REMARK    8  A    between atoms: C_18  and  C_19
REMARK    9  A    between atoms: C_18  and  C_23
REMARK   10  A    between atoms: C_19  and  C_20
REMARK   11  A    between atoms: C_20  and  O_22
REMARK   12  A    between atoms: C_26  and  C_27
REMARK                            x       y       z     vdW  Elec       q    Type
REMARK                         _______ _______ _______ _____ _____    ______ ____
ROOT
ATOM      1  C   UNL     1       1.801   7.989  19.660  0.00  0.00    +0.000 A 
ATOM      2  C   UNL     1       1.482   8.097  21.021  0.00  0.00    +0.000 A 
ATOM      3  C   UNL     1       0.730   9.173  21.503  0.00  0.00    +0.000 A 
ATOM      4 CL   UNL     1       0.385   9.288  23.187  0.00  0.00    +0.000 Cl
ATOM      5  C   UNL     1       0.242  10.153  20.640  0.00  0.00    +0.000 A 
ATOM      6  C   UNL     1       0.523  10.077  19.272  0.00  0.00    +0.000 A 
ATOM      7  C   UNL     1       1.319   9.012  18.813  0.00  0.00    +0.000 A 
ENDROOT
BRANCH   1  13
ATOM      8  C   UNL     1       2.389   5.488  19.452  0.00  0.00    +0.000 A 
ATOM      9  C   UNL     1       3.157   4.485  18.836  0.00  0.00    +0.000 A 
ATOM     10  C   UNL     1       4.136   4.799  17.894  0.00  0.00    +0.000 A 
ATOM     11  C   UNL     1       4.355   6.122  17.520  0.00  0.00    +0.000 A 
ATOM     12  C   UNL     1       3.558   7.114  18.111  0.00  0.00    +0.000 A 
ATOM     13  C   UNL     1       2.566   6.842  19.085  0.00  0.00    +0.000 A 
BRANCH  11  14
ATOM     14  C   UNL     1       5.407   6.465  16.482  0.00  0.00    +0.000 C 
ATOM     15  C   UNL     1       6.787   6.619  17.126  0.00  0.00    +0.000 C 
ATOM     16  C   UNL     1       5.451   5.439  15.346  0.00  0.00    +0.000 C 
ENDBRANCH  11  14
BRANCH   8  18
ATOM     17  C   UNL     1       1.146   3.805  20.575  0.00  0.00    +0.000 C 
ATOM     18  O   UNL     1       1.433   5.189  20.394  0.00  0.00    +0.000 OA
ENDBRANCH   8  18
ENDBRANCH   1  13
BRANCH   6  19
ATOM     19  C   UNL     1      -0.018  11.085  18.263  0.00  0.00    +0.000 C 
BRANCH  19  20
ATOM     20  C   UNL     1      -1.481  10.882  18.030  0.00  0.00    +0.000 A 
ATOM     21  N   UNL     1      -2.094   9.963  17.311  0.00  0.00    +0.000 NA
ATOM     22  N   UNL     1      -3.443  10.222  17.418  0.00  0.00    +0.000 NA
ATOM     23  C   UNL     1      -3.559  11.279  18.193  0.00  0.00    +0.000 A 
ATOM     24  C   UNL     1      -4.772  11.979  18.653  0.00  0.00    +0.000 C 
ATOM     25  O   UNL     1      -2.353  11.756  18.630  0.00  0.00    +0.000 OA
ENDBRANCH  19  20
BRANCH  19  26
ATOM     26  C   UNL     1       0.252  12.539  18.677  0.00  0.00    +0.000 C 
BRANCH  26  27
ATOM     27  C   UNL     1       1.723  12.858  18.622  0.00  0.00    +0.000 C 
ATOM     28  O   UNL     1       2.379  13.246  19.574  0.00  0.00    +0.000 OA
BRANCH  27  29
ATOM     29  O   UNL     1       2.277  12.607  17.414  0.00  0.00    +0.000 OA
ATOM     30  H   UNL     1       2.134  11.705  17.075  0.00  0.00    +0.000 HD
ENDBRANCH  27  29
ENDBRANCH  26  27
ENDBRANCH  19  26
ENDBRANCH   6  19
TORSDOF 8
ENDMDL
MODEL 4
REMARK VINA RESULT:      -7.9      4.685      8.291
REMARK  Name = 
REMARK  12 active torsions:
REMARK  status: ('A' for Active; 'I' for Inactive)
REMARK    1  A    between atoms: C_1  and  O_2
REMARK    2  A    between atoms: O_2  and  C_3
REMARK    3  A    between atoms: C_6  and  C_7
REMARK    4  A    between atoms: C_7  and  C_8
REMARK    5  A    between atoms: C_7  and  C_9
REMARK    6  A    between atoms: C_11  and  C_12
REMARK    7  A    between atoms: C_17  and  C_18
REMARK    8  A    between atoms: C_18  and  C_19
REMARK    9  A    between atoms: C_18  and  C_23
REMARK   10  A    between atoms: C_19  and  C_20
REMARK   11  A    between atoms: C_20  and  O_22
REMARK   12  A    between atoms: C_26  and  C_27
REMARK                            x       y       z     vdW  Elec       q    Type
REMARK                         _______ _______ _______ _____ _____    ______ ____
ROOT
ATOM      1  C   UNL     1       1.646   8.125  19.690  0.00  0.00    +0.000 A 
ATOM      2  C   UNL     1       1.400   8.212  21.068  0.00  0.00    +0.000 A 
ATOM      3  C   UNL     1       0.626   9.249  21.598  0.00  0.00    +0.000 A 
ATOM      4 CL   UNL     1       0.373   9.342  23.300  0.00  0.00    +0.000 Cl
ATOM      5  C   UNL     1       0.042  10.207  20.770  0.00  0.00    +0.000 A 
ATOM      6  C   UNL     1       0.246  10.148  19.388  0.00  0.00    +0.000 A 
ATOM      7  C   UNL     1       1.066   9.126  18.878  0.00  0.00    +0.000 A 
ENDROOT
BRANCH   1  13
ATOM      8  C   UNL     1       2.280   5.647  19.373  0.00  0.00    +0.000 A 
ATOM      9  C   UNL     1       3.065   4.687  18.713  0.00  0.00    +0.000 A 
ATOM     10  C   UNL     1       4.038   5.060  17.785  0.00  0.00    +0.000 A 
ATOM     11  C   UNL     1       4.231   6.401  17.469  0.00  0.00    +0.000 A 
ATOM     12  C   UNL     1       3.417   7.352  18.103  0.00  0.00    +0.000 A 
ATOM     13  C   UNL     1       2.431   7.018  19.064  0.00  0.00    +0.000 A 
BRANCH  11  14
ATOM     14  C   UNL     1       5.276   6.809  16.446  0.00  0.00    +0.000 C 
ATOM     15  C   UNL     1       6.616   7.113  17.120  0.00  0.00    +0.000 C 
ATOM     16  C   UNL     1       5.448   5.756  15.348  0.00  0.00    +0.000 C 
ENDBRANCH  11  14
BRANCH   8  18
ATOM     17  C   UNL     1       1.596   4.100  21.039  0.00  0.00    +0.000 C 
ATOM     18  O   UNL     1       1.330   5.290  20.301  0.00  0.00    +0.000 OA
ENDBRANCH   8  18
ENDBRANCH   1  13
BRANCH   6  19
ATOM     19  C   UNL     1      -0.400  11.132  18.418  0.00  0.00    +0.000 C 
BRANCH  19  20
ATOM     20  C   UNL     1      -1.604  10.532  17.764  0.00  0.00    +0.000 A 
ATOM     21  N   UNL     1      -2.530   9.746  18.277  0.00  0.00    +0.000 NA
ATOM     22  N   UNL     1      -3.413   9.469  17.256  0.00  0.00    +0.000 NA
ATOM     23  C   UNL     1      -2.966  10.104  16.194  0.00  0.00    +0.000 A 
ATOM     24  C   UNL     1      -3.526  10.169  14.833  0.00  0.00    +0.000 C 
ATOM     25  O   UNL     1      -1.818  10.810  16.438  0.00  0.00    +0.000 OA
ENDBRANCH  19  20
BRANCH  19  26
ATOM     26  C   UNL     1      -0.773  12.463  19.086  0.00  0.00    +0.000 C 
BRANCH  26  27
ATOM     27  C   UNL     1       0.131  13.577  18.628  0.00  0.00    +0.000 C 
ATOM     28  O   UNL     1       1.308  13.435  18.344  0.00  0.00    +0.000 OA
BRANCH  27  29
ATOM     29  O   UNL     1      -0.510  14.761  18.494  0.00  0.00    +0.000 OA
ATOM     30  H   UNL     1       0.050  15.548  18.614  0.00  0.00    +0.000 HD
ENDBRANCH  27  29
ENDBRANCH  26  27
ENDBRANCH  19  26
ENDBRANCH   6  19
TORSDOF 8
ENDMDL
MODEL 5
REMARK VINA RESULT:      -7.9      4.607      7.674
REMARK  Name = 
REMARK  12 active torsions:
REMARK  status: ('A' for Active; 'I' for Inactive)
REMARK    1  A    between atoms: C_1  and  O_2
REMARK    2  A    between atoms: O_2  and  C_3
REMARK    3  A    between atoms: C_6  and  C_7
REMARK    4  A    between atoms: C_7  and  C_8
REMARK    5  A    between atoms: C_7  and  C_9
REMARK    6  A    between atoms: C_11  and  C_12
REMARK    7  A    between atoms: C_17  and  C_18
REMARK    8  A    between atoms: C_18  and  C_19
REMARK    9  A    between atoms: C_18  and  C_23
REMARK   10  A    between atoms: C_19  and  C_20
REMARK   11  A    between atoms: C_20  and  O_22
REMARK   12  A    between atoms: C_26  and  C_27
REMARK                            x       y       z     vdW  Elec       q    Type
REMARK                         _______ _______ _______ _____ _____    ______ ____
ROOT
ATOM      1  C   UNL     1       1.603   7.987  20.003  0.00  0.00    +0.000 A 
ATOM      2  C   UNL     1       1.497   8.127  21.394  0.00  0.00    +0.000 A 
ATOM      3  C   UNL     1       0.705   9.131  21.960  0.00  0.00    +0.000 A 
ATOM      4 CL   UNL     1       0.625   9.292  23.673  0.00  0.00    +0.000 Cl
ATOM      5  C   UNL     1      -0.035  10.001  21.159  0.00  0.00    +0.000 A 
ATOM      6  C   UNL     1       0.029   9.886  19.767  0.00  0.00    +0.000 A 
ATOM      7  C   UNL     1       0.866   8.901  19.216  0.00  0.00    +0.000 A 
ENDROOT
BRANCH   1  13
ATOM      8  C   UNL     1       2.294   5.530  19.639  0.00  0.00    +0.000 A 
ATOM      9  C   UNL     1       3.088   4.600  18.949  0.00  0.00    +0.000 A 
ATOM     10  C   UNL     1       4.028   5.009  18.003  0.00  0.00    +0.000 A 
ATOM     11  C   UNL     1       4.179   6.359  17.700  0.00  0.00    +0.000 A 
ATOM     12  C   UNL     1       3.355   7.280  18.365  0.00  0.00    +0.000 A 
ATOM     13  C   UNL     1       2.402   6.909  19.345  0.00  0.00    +0.000 A 
BRANCH  11  14
ATOM     14  C   UNL     1       5.188   6.807  16.658  0.00  0.00    +0.000 C 
ATOM     15  C   UNL     1       6.549   7.093  17.297  0.00  0.00    +0.000 C 
ATOM     16  C   UNL     1       5.326   5.794  15.518  0.00  0.00    +0.000 C 
ENDBRANCH  11  14
BRANCH   8  18
ATOM     17  C   UNL     1       1.297   3.736  20.832  0.00  0.00    +0.000 C 
ATOM     18  O   UNL     1       1.377   5.137  20.584  0.00  0.00    +0.000 OA
ENDBRANCH   8  18
ENDBRANCH   1  13
BRANCH   6  19
ATOM     19  C   UNL     1      -0.789  10.770  18.831  0.00  0.00    +0.000 C 
BRANCH  19  20
ATOM     20  C   UNL     1      -0.157  12.116  18.671  0.00  0.00    +0.000 A 
ATOM     21  N   UNL     1      -0.726  13.293  18.505  0.00  0.00    +0.000 NA
ATOM     22  N   UNL     1       0.298  14.209  18.401  0.00  0.00    +0.000 NA
ATOM     23  C   UNL     1       1.418  13.528  18.512  0.00  0.00    +0.000 A 
ATOM     24  C   UNL     1       2.813  14.004  18.487  0.00  0.00    +0.000 C 
ATOM     25  O   UNL     1       1.213  12.187  18.692  0.00  0.00    +0.000 OA
ENDBRANCH  19  20
BRANCH  19  26
ATOM     26  C   UNL     1      -1.012  10.127  17.454  0.00  0.00    +0.000 C 
BRANCH  26  27
ATOM     27  C   UNL     1      -2.356  10.501  16.887  0.00  0.00    +0.000 C 
ATOM     28  O   UNL     1      -3.394   9.910  17.130  0.00  0.00    +0.000 OA
BRANCH  27  29
ATOM     29  O   UNL     1      -2.317  11.615  16.120  0.00  0.00    +0.000 OA
ATOM     30  H   UNL     1      -2.734  12.401  16.515  0.00  0.00    +0.000 HD
ENDBRANCH  27  29
ENDBRANCH  26  27
ENDBRANCH  19  26
ENDBRANCH   6  19
TORSDOF 8
ENDMDL
MODEL 6
REMARK VINA RESULT:      -7.7      1.701      2.995
REMARK  Name = 
REMARK  12 active torsions:
REMARK  status: ('A' for Active; 'I' for Inactive)
REMARK    1  A    between atoms: C_1  and  O_2
REMARK    2  A    between atoms: O_2  and  C_3
REMARK    3  A    between atoms: C_6  and  C_7
REMARK    4  A    between atoms: C_7  and  C_8
REMARK    5  A    between atoms: C_7  and  C_9
REMARK    6  A    between atoms: C_11  and  C_12
REMARK    7  A    between atoms: C_17  and  C_18
REMARK    8  A    between atoms: C_18  and  C_19
REMARK    9  A    between atoms: C_18  and  C_23
REMARK   10  A    between atoms: C_19  and  C_20
REMARK   11  A    between atoms: C_20  and  O_22
REMARK   12  A    between atoms: C_26  and  C_27
REMARK                            x       y       z     vdW  Elec       q    Type
REMARK                         _______ _______ _______ _____ _____    ______ ____
ROOT
ATOM      1  C   UNL     1       3.063   5.638  18.353  0.00  0.00    +0.000 A 
ATOM      2  C   UNL     1       2.489   4.372  18.174  0.00  0.00    +0.000 A 
ATOM      3  C   UNL     1       3.188   3.348  17.527  0.00  0.00    +0.000 A 
ATOM      4 CL   UNL     1       2.438   1.814  17.296  0.00  0.00    +0.000 Cl
ATOM      5  C   UNL     1       4.492   3.543  17.072  0.00  0.00    +0.000 A 
ATOM      6  C   UNL     1       5.109   4.786  17.244  0.00  0.00    +0.000 A 
ATOM      7  C   UNL     1       4.374   5.816  17.856  0.00  0.00    +0.000 A 
ENDROOT
BRANCH   1  13
ATOM      8  C   UNL     1       2.009   6.730  20.437  0.00  0.00    +0.000 A 
ATOM      9  C   UNL     1       1.379   7.844  21.016  0.00  0.00    +0.000 A 
ATOM     10  C   UNL     1       1.061   8.971  20.258  0.00  0.00    +0.000 A 
ATOM     11  C   UNL     1       1.390   9.027  18.907  0.00  0.00    +0.000 A 
ATOM     12  C   UNL     1       2.054   7.927  18.345  0.00  0.00    +0.000 A 
ATOM     13  C   UNL     1       2.379   6.755  19.073  0.00  0.00    +0.000 A 
BRANCH  11  14
ATOM     14  C   UNL     1       1.062  10.259  18.084  0.00  0.00    +0.000 C 
ATOM     15  C   UNL     1      -0.437  10.568  18.129  0.00  0.00    +0.000 C 
ATOM     16  C   UNL     1       1.880  11.478  18.521  0.00  0.00    +0.000 C 
ENDBRANCH  11  14
BRANCH   8  18
ATOM     17  C   UNL     1       1.402   4.519  21.051  0.00  0.00    +0.000 C 
ATOM     18  O   UNL     1       2.312   5.608  21.172  0.00  0.00    +0.000 OA
ENDBRANCH   8  18
ENDBRANCH   1  13
BRANCH   6  19
ATOM     19  C   UNL     1       6.548   5.057  16.816  0.00  0.00    +0.000 C 
BRANCH  19  20
ATOM     20  C   UNL     1       6.735   4.791  15.356  0.00  0.00    +0.000 A 
ATOM     21  N   UNL     1       6.213   3.843  14.605  0.00  0.00    +0.000 NA
ATOM     22  N   UNL     1       6.709   4.037  13.334  0.00  0.00    +0.000 NA
ATOM     23  C   UNL     1       7.498   5.088  13.399  0.00  0.00    +0.000 A 
ATOM     24  C   UNL     1       8.277   5.745  12.334  0.00  0.00    +0.000 C 
ATOM     25  O   UNL     1       7.563   5.630  14.654  0.00  0.00    +0.000 OA
ENDBRANCH  19  20
BRANCH  19  26
ATOM     26  C   UNL     1       7.008   6.482  17.155  0.00  0.00    +0.000 C 
BRANCH  26  27
ATOM     27  C   UNL     1       7.876   6.499  18.384  0.00  0.00    +0.000 C 
ATOM     28  O   UNL     1       8.467   7.482  18.797  0.00  0.00    +0.000 OA
BRANCH  27  29
ATOM     29  O   UNL     1       7.890   5.316  19.041  0.00  0.00    +0.000 OA
ATOM     30  H   UNL     1       8.754   4.867  19.063  0.00  0.00    +0.000 HD
ENDBRANCH  27  29
ENDBRANCH  26  27
ENDBRANCH  19  26
ENDBRANCH   6  19
TORSDOF 8
ENDMDL
MODEL 7
REMARK VINA RESULT:      -7.7      3.209      8.156
REMARK  Name = 
REMARK  12 active torsions:
REMARK  status: ('A' for Active; 'I' for Inactive)
REMARK    1  A    between atoms: C_1  and  O_2
REMARK    2  A    between atoms: O_2  and  C_3
REMARK    3  A    between atoms: C_6  and  C_7
REMARK    4  A    between atoms: C_7  and  C_8
REMARK    5  A    between atoms: C_7  and  C_9
REMARK    6  A    between atoms: C_11  and  C_12
REMARK    7  A    between atoms: C_17  and  C_18
REMARK    8  A    between atoms: C_18  and  C_19
REMARK    9  A    between atoms: C_18  and  C_23
REMARK   10  A    between atoms: C_19  and  C_20
REMARK   11  A    between atoms: C_20  and  O_22
REMARK   12  A    between atoms: C_26  and  C_27
REMARK                            x       y       z     vdW  Elec       q    Type
REMARK                         _______ _______ _______ _____ _____    ______ ____
ROOT
ATOM      1  C   UNL     1       6.188   5.108  15.710  0.00  0.00    +0.000 A 
ATOM      2  C   UNL     1       7.161   5.133  16.719  0.00  0.00    +0.000 A 
ATOM      3  C   UNL     1       6.833   5.497  18.028  0.00  0.00    +0.000 A 
ATOM      4 CL   UNL     1       8.063   5.548  19.235  0.00  0.00    +0.000 Cl
ATOM      5  C   UNL     1       5.521   5.811  18.381  0.00  0.00    +0.000 A 
ATOM      6  C   UNL     1       4.515   5.783  17.410  0.00  0.00    +0.000 A 
ATOM      7  C   UNL     1       4.872   5.459  16.089  0.00  0.00    +0.000 A 
ENDROOT
BRANCH   1  13
ATOM      8  C   UNL     1       7.577   5.129  13.539  0.00  0.00    +0.000 A 
ATOM      9  C   UNL     1       7.755   4.660  12.226  0.00  0.00    +0.000 A 
ATOM     10  C   UNL     1       6.833   3.798  11.634  0.00  0.00    +0.000 A 
ATOM     11  C   UNL     1       5.722   3.357  12.347  0.00  0.00    +0.000 A 
ATOM     12  C   UNL     1       5.571   3.799  13.671  0.00  0.00    +0.000 A 
ATOM     13  C   UNL     1       6.473   4.689  14.304  0.00  0.00    +0.000 A 
BRANCH  11  14
ATOM     14  C   UNL     1       4.726   2.405  11.712  0.00  0.00    +0.000 C 
ATOM     15  C   UNL     1       3.762   3.152  10.787  0.00  0.00    +0.000 C 
ATOM     16  C   UNL     1       5.419   1.262  10.964  0.00  0.00    +0.000 C 
ENDBRANCH  11  14
BRANCH   8  18
ATOM     17  C   UNL     1       9.634   6.302  13.359  0.00  0.00    +0.000 C 
ATOM     18  O   UNL     1       8.473   5.992  14.125  0.00  0.00    +0.000 OA
ENDBRANCH   8  18
ENDBRANCH   1  13
BRANCH   6  19
ATOM     19  C   UNL     1       3.052   6.065  17.732  0.00  0.00    +0.000 C 
BRANCH  19  20
ATOM     20  C   UNL     1       2.329   4.809  18.102  0.00  0.00    +0.000 A 
ATOM     21  N   UNL     1       1.748   3.918  17.323  0.00  0.00    +0.000 NA
ATOM     22  N   UNL     1       1.221   2.957  18.158  0.00  0.00    +0.000 NA
ATOM     23  C   UNL     1       1.516   3.328  19.386  0.00  0.00    +0.000 A 
ATOM     24  C   UNL     1       1.211   2.666  20.666  0.00  0.00    +0.000 C 
ATOM     25  O   UNL     1       2.227   4.497  19.434  0.00  0.00    +0.000 OA
ENDBRANCH  19  20
BRANCH  19  26
ATOM     26  C   UNL     1       2.882   7.115  18.840  0.00  0.00    +0.000 C 
BRANCH  26  27
ATOM     27  C   UNL     1       2.222   8.362  18.315  0.00  0.00    +0.000 C 
ATOM     28  O   UNL     1       2.343   8.777  17.175  0.00  0.00    +0.000 OA
BRANCH  27  29
ATOM     29  O   UNL     1       1.414   8.958  19.222  0.00  0.00    +0.000 OA
ATOM     30  H   UNL     1       0.469   8.968  18.987  0.00  0.00    +0.000 HD
ENDBRANCH  27  29
ENDBRANCH  26  27
ENDBRANCH  19  26
ENDBRANCH   6  19
TORSDOF 8
ENDMDL
MODEL 8
REMARK VINA RESULT:      -7.7      3.286      7.264
REMARK  Name = 
REMARK  12 active torsions:
REMARK  status: ('A' for Active; 'I' for Inactive)
REMARK    1  A    between atoms: C_1  and  O_2
REMARK    2  A    between atoms: O_2  and  C_3
REMARK    3  A    between atoms: C_6  and  C_7
REMARK    4  A    between atoms: C_7  and  C_8
REMARK    5  A    between atoms: C_7  and  C_9
REMARK    6  A    between atoms: C_11  and  C_12
REMARK    7  A    between atoms: C_17  and  C_18
REMARK    8  A    between atoms: C_18  and  C_19
REMARK    9  A    between atoms: C_18  and  C_23
REMARK   10  A    between atoms: C_19  and  C_20
REMARK   11  A    between atoms: C_20  and  O_22
REMARK   12  A    between atoms: C_26  and  C_27
REMARK                            x       y       z     vdW  Elec       q    Type
REMARK                         _______ _______ _______ _____ _____    ______ ____
ROOT
ATOM      1  C   UNL     1       4.022   5.255  18.942  0.00  0.00    +0.000 A 
ATOM      2  C   UNL     1       3.523   4.240  19.770  0.00  0.00    +0.000 A 
ATOM      3  C   UNL     1       2.376   4.439  20.545  0.00  0.00    +0.000 A 
ATOM      4 CL   UNL     1       1.812   3.178  21.575  0.00  0.00    +0.000 Cl
ATOM      5  C   UNL     1       1.671   5.641  20.492  0.00  0.00    +0.000 A 
ATOM      6  C   UNL     1       2.124   6.675  19.667  0.00  0.00    +0.000 A 
ATOM      7  C   UNL     1       3.304   6.473  18.929  0.00  0.00    +0.000 A 
ENDROOT
BRANCH   1  13
ATOM      8  C   UNL     1       6.554   5.024  18.520  0.00  0.00    +0.000 A 
ATOM      9  C   UNL     1       7.604   4.849  17.603  0.00  0.00    +0.000 A 
ATOM     10  C   UNL     1       7.364   4.782  16.230  0.00  0.00    +0.000 A 
ATOM     11  C   UNL     1       6.064   4.858  15.739  0.00  0.00    +0.000 A 
ATOM     12  C   UNL     1       5.017   4.993  16.663  0.00  0.00    +0.000 A 
ATOM     13  C   UNL     1       5.217   5.085  18.062  0.00  0.00    +0.000 A 
BRANCH  11  14
ATOM     14  C   UNL     1       5.798   4.766  14.247  0.00  0.00    +0.000 C 
ATOM     15  C   UNL     1       7.090   4.939  13.446  0.00  0.00    +0.000 C 
ATOM     16  C   UNL     1       5.094   3.461  13.867  0.00  0.00    +0.000 C 
ENDBRANCH  11  14
BRANCH   8  18
ATOM     17  C   UNL     1       8.101   5.487  20.260  0.00  0.00    +0.000 C 
ATOM     18  O   UNL     1       6.783   5.108  19.873  0.00  0.00    +0.000 OA
ENDBRANCH   8  18
ENDBRANCH   1  13
BRANCH   6  19
ATOM     19  C   UNL     1       1.378   7.997  19.520  0.00  0.00    +0.000 C 
BRANCH  19  20
ATOM     20  C   UNL     1       1.198   8.664  20.847  0.00  0.00    +0.000 A 
ATOM     21  N   UNL     1       2.081   8.883  21.800  0.00  0.00    +0.000 NA
ATOM     22  N   UNL     1       1.406   9.523  22.816  0.00  0.00    +0.000 NA
ATOM     23  C   UNL     1       0.160   9.650  22.413  0.00  0.00    +0.000 A 
ATOM     24  C   UNL     1      -0.989  10.271  23.095  0.00  0.00    +0.000 C 
ATOM     25  O   UNL     1      -0.052   9.133  21.164  0.00  0.00    +0.000 OA
ENDBRANCH  19  20
BRANCH  19  26
ATOM     26  C   UNL     1       2.063   8.958  18.538  0.00  0.00    +0.000 C 
BRANCH  26  27
ATOM     27  C   UNL     1       1.253  10.213  18.345  0.00  0.00    +0.000 C 
ATOM     28  O   UNL     1       1.632  11.330  18.650  0.00  0.00    +0.000 OA
BRANCH  27  29
ATOM     29  O   UNL     1       0.068   9.991  17.730  0.00  0.00    +0.000 OA
ATOM     30  H   UNL     1       0.124   9.850  16.768  0.00  0.00    +0.000 HD
ENDBRANCH  27  29
ENDBRANCH  26  27
ENDBRANCH  19  26
ENDBRANCH   6  19
TORSDOF 8
ENDMDL
MODEL 9
REMARK VINA RESULT:      -7.7      4.391      8.180
REMARK  Name = 
REMARK  12 active torsions:
REMARK  status: ('A' for Active; 'I' for Inactive)
REMARK    1  A    between atoms: C_1  and  O_2
REMARK    2  A    between atoms: O_2  and  C_3
REMARK    3  A    between atoms: C_6  and  C_7
REMARK    4  A    between atoms: C_7  and  C_8
REMARK    5  A    between atoms: C_7  and  C_9
REMARK    6  A    between atoms: C_11  and  C_12
REMARK    7  A    between atoms: C_17  and  C_18
REMARK    8  A    between atoms: C_18  and  C_19
REMARK    9  A    between atoms: C_18  and  C_23
REMARK   10  A    between atoms: C_19  and  C_20
REMARK   11  A    between atoms: C_20  and  O_22
REMARK   12  A    between atoms: C_26  and  C_27
REMARK                            x       y       z     vdW  Elec       q    Type
REMARK                         _______ _______ _______ _____ _____    ______ ____
ROOT
ATOM      1  C   UNL     1       1.829   7.663  19.790  0.00  0.00    +0.000 A 
ATOM      2  C   UNL     1       1.592   7.883  21.155  0.00  0.00    +0.000 A 
ATOM      3  C   UNL     1       1.002   9.069  21.602  0.00  0.00    +0.000 A 
ATOM      4 CL   UNL     1       0.756   9.317  23.289  0.00  0.00    +0.000 Cl
ATOM      5  C   UNL     1       0.597  10.056  20.703  0.00  0.00    +0.000 A 
ATOM      6  C   UNL     1       0.800   9.871  19.332  0.00  0.00    +0.000 A 
ATOM      7  C   UNL     1       1.436   8.692  18.905  0.00  0.00    +0.000 A 
ENDROOT
BRANCH   1  13
ATOM      8  C   UNL     1       3.436   6.336  18.274  0.00  0.00    +0.000 A 
ATOM      9  C   UNL     1       3.926   5.090  17.847  0.00  0.00    +0.000 A 
ATOM     10  C   UNL     1       3.393   3.897  18.336  0.00  0.00    +0.000 A 
ATOM     11  C   UNL     1       2.376   3.917  19.286  0.00  0.00    +0.000 A 
ATOM     12  C   UNL     1       1.919   5.165  19.735  0.00  0.00    +0.000 A 
ATOM     13  C   UNL     1       2.418   6.400  19.253  0.00  0.00    +0.000 A 
BRANCH  11  14
ATOM     14  C   UNL     1       1.807   2.621  19.832  0.00  0.00    +0.000 C 
ATOM     15  C   UNL     1       1.352   2.788  21.284  0.00  0.00    +0.000 C 
ATOM     16  C   UNL     1       0.666   2.082  18.965  0.00  0.00    +0.000 C 
ENDBRANCH  11  14
BRANCH   8  18
ATOM     17  C   UNL     1       5.112   7.407  16.977  0.00  0.00    +0.000 C 
ATOM     18  O   UNL     1       3.944   7.517  17.786  0.00  0.00    +0.000 OA
ENDBRANCH   8  18
ENDBRANCH   1  13
BRANCH   6  19
ATOM     19  C   UNL     1       0.339  10.883  18.288  0.00  0.00    +0.000 C 
BRANCH  19  20
ATOM     20  C   UNL     1      -1.109  10.699  17.961  0.00  0.00    +0.000 A 
ATOM     21  N   UNL     1      -1.677   9.845  17.135  0.00  0.00    +0.000 NA
ATOM     22  N   UNL     1      -3.032  10.092  17.192  0.00  0.00    +0.000 NA
ATOM     23  C   UNL     1      -3.195  11.078  18.048  0.00  0.00    +0.000 A 
ATOM     24  C   UNL     1      -4.434  11.734  18.500  0.00  0.00    +0.000 C 
ATOM     25  O   UNL     1      -2.015  11.517  18.587  0.00  0.00    +0.000 OA
ENDBRANCH  19  20
BRANCH  19  26
ATOM     26  C   UNL     1       0.602  12.335  18.716  0.00  0.00    +0.000 C 
BRANCH  26  27
ATOM     27  C   UNL     1       2.045  12.713  18.510  0.00  0.00    +0.000 C 
ATOM     28  O   UNL     1       2.720  13.318  19.324  0.00  0.00    +0.000 OA
BRANCH  27  29
ATOM     29  O   UNL     1       2.553  12.252  17.344  0.00  0.00    +0.000 OA
ATOM     30  H   UNL     1       2.332  12.785  16.559  0.00  0.00    +0.000 HD
ENDBRANCH  27  29
ENDBRANCH  26  27
ENDBRANCH  19  26
ENDBRANCH   6  19
TORSDOF 8
ENDMDL
