MODEL 1
REMARK VINA RESULT:      -8.5      0.000      0.000
REMARK  Name = 
REMARK  4 active torsions:
REMARK  status: ('A' for Active; 'I' for Inactive)
REMARK    1  A    between atoms: C_2  and  C_14
REMARK    2  A    between atoms: N_3  and  C_4
REMARK    3  A    between atoms: C_4  and  N_6
REMARK    4  A    between atoms: N_6  and  C_7
REMARK                            x       y       z     vdW  Elec       q    Type
REMARK                         _______ _______ _______ _____ _____    ______ ____
ROOT
ATOM      1  O   UNL     1       4.444   5.688  19.717  0.00  0.00    +0.000 OA
ATOM      2  C   UNL     1       3.400   5.729  19.078  0.00  0.00    +0.000 C 
ATOM      3  N   UNL     1       2.982   4.772  18.174  0.00  0.00    +0.000 N 
ATOM      4  H   UNL     1       2.252   5.035  17.533  0.00  0.00    +0.000 HD
ENDROOT
BRANCH   2   5
ATOM      5  C   UNL     1       2.582   6.971  19.137  0.00  0.00    +0.000 A 
ATOM      6  C   UNL     1       2.577   7.806  18.023  0.00  0.00    +0.000 A 
ATOM      7  C   UNL     1       1.907   9.026  18.072  0.00  0.00    +0.000 A 
ATOM      8  C   UNL     1       1.232   9.447  19.234  0.00  0.00    +0.000 A 
ATOM      9  C   UNL     1       1.211   8.601  20.347  0.00  0.00    +0.000 A 
ATOM     10  C   UNL     1       1.882   7.358  20.285  0.00  0.00    +0.000 A 
ATOM     11  S   UNL     1       0.426   8.945  21.901  0.00  0.00    +0.000 S 
ATOM     12  C   UNL     1      -0.295  10.563  21.783  0.00  0.00    +0.000 A 
ATOM     13  C   UNL     1      -0.966  10.997  22.945  0.00  0.00    +0.000 A 
ATOM     14  C   UNL     1      -1.596  12.241  23.005  0.00  0.00    +0.000 A 
ATOM     15  C   UNL     1      -1.560  13.079  21.901  0.00  0.00    +0.000 A 
ATOM     16  C   UNL     1      -0.896  12.664  20.748  0.00  0.00    +0.000 A 
ATOM     17  C   UNL     1      -0.261  11.407  20.671  0.00  0.00    +0.000 A 
ATOM     18  S   UNL     1       0.508  11.060  19.115  0.00  0.00    +0.000 S 
ENDBRANCH   2   5
BRANCH   3  19
ATOM     19  C   UNL     1       3.490   3.494  17.947  0.00  0.00    +0.000 C 
ATOM     20  S   UNL     1       2.623   2.079  17.819  0.00  0.00    +0.000 S 
BRANCH  19  21
ATOM     21  N   UNL     1       4.854   3.476  17.722  0.00  0.00    +0.000 N 
ATOM     22  H   UNL     1       5.426   3.147  18.493  0.00  0.00    +0.000 HD
BRANCH  21  23
ATOM     23  C   UNL     1       5.510   4.015  16.597  0.00  0.00    +0.000 A 
ATOM     24  C   UNL     1       5.016   3.816  15.300  0.00  0.00    +0.000 A 
ATOM     25  C   UNL     1       5.748   4.230  14.191  0.00  0.00    +0.000 A 
ATOM     26  C   UNL     1       6.966   4.872  14.382  0.00  0.00    +0.000 A 
ATOM     27 BR   UNL     1       8.013   5.342  12.883  0.00  0.00    +0.000 Br
ATOM     28  C   UNL     1       7.423   5.154  15.671  0.00  0.00    +0.000 A 
ATOM     29  C   UNL     1       6.681   4.746  16.784  0.00  0.00    +0.000 A 
ENDBRANCH  21  23
ENDBRANCH  19  21
ENDBRANCH   3  19
TORSDOF 4
ENDMDL
MODEL 2
REMARK VINA RESULT:      -8.3      1.751      2.167
REMARK  Name = 
REMARK  4 active torsions:
REMARK  status: ('A' for Active; 'I' for Inactive)
REMARK    1  A    between atoms: C_2  and  C_14
REMARK    2  A    between atoms: N_3  and  C_4
REMARK    3  A    between atoms: C_4  and  N_6
REMARK    4  A    between atoms: N_6  and  C_7
REMARK                            x       y       z     vdW  Elec       q    Type
REMARK                         _______ _______ _______ _____ _____    ______ ____
ROOT
ATOM      1  O   UNL     1       2.925   4.619  20.821  0.00  0.00    +0.000 OA
ATOM      2  C   UNL     1       2.892   5.198  19.742  0.00  0.00    +0.000 C 
ATOM      3  N   UNL     1       3.533   4.778  18.593  0.00  0.00    +0.000 N 
ATOM      4  H   UNL     1       3.644   5.455  17.857  0.00  0.00    +0.000 HD
ENDROOT
BRANCH   2   5
ATOM      5  C   UNL     1       2.256   6.542  19.680  0.00  0.00    +0.000 A 
ATOM      6  C   UNL     1       2.480   7.319  18.546  0.00  0.00    +0.000 A 
ATOM      7  C   UNL     1       1.987   8.622  18.489  0.00  0.00    +0.000 A 
ATOM      8  C   UNL     1       1.269   9.183  19.561  0.00  0.00    +0.000 A 
ATOM      9  C   UNL     1       1.018   8.398  20.692  0.00  0.00    +0.000 A 
ATOM     10  C   UNL     1       1.510   7.073  20.737  0.00  0.00    +0.000 A 
ATOM     11  S   UNL     1       0.141   8.916  22.145  0.00  0.00    +0.000 S 
ATOM     12  C   UNL     1      -0.328  10.610  21.904  0.00  0.00    +0.000 A 
ATOM     13  C   UNL     1      -1.041  11.184  22.977  0.00  0.00    +0.000 A 
ATOM     14  C   UNL     1      -1.491  12.505  22.934  0.00  0.00    +0.000 A 
ATOM     15  C   UNL     1      -1.229  13.280  21.815  0.00  0.00    +0.000 A 
ATOM     16  C   UNL     1      -0.520  12.727  20.750  0.00  0.00    +0.000 A 
ATOM     17  C   UNL     1      -0.065  11.392  20.777  0.00  0.00    +0.000 A 
ATOM     18  S   UNL     1       0.796  10.874  19.320  0.00  0.00    +0.000 S 
ENDBRANCH   2   5
BRANCH   3  19
ATOM     19  C   UNL     1       4.145   3.555  18.324  0.00  0.00    +0.000 C 
ATOM     20  S   UNL     1       3.469   2.042  18.471  0.00  0.00    +0.000 S 
BRANCH  19  21
ATOM     21  N   UNL     1       5.416   3.681  17.795  0.00  0.00    +0.000 N 
ATOM     22  H   UNL     1       5.865   2.817  17.510  0.00  0.00    +0.000 HD
BRANCH  21  23
ATOM     23  C   UNL     1       6.184   4.863  17.768  0.00  0.00    +0.000 A 
ATOM     24  C   UNL     1       7.204   5.093  18.702  0.00  0.00    +0.000 A 
ATOM     25  C   UNL     1       7.856   6.321  18.753  0.00  0.00    +0.000 A 
ATOM     26  C   UNL     1       7.506   7.314  17.846  0.00  0.00    +0.000 A 
ATOM     27 BR   UNL     1       8.312   9.016  17.976  0.00  0.00    +0.000 Br
ATOM     28  C   UNL     1       6.554   7.064  16.855  0.00  0.00    +0.000 A 
ATOM     29  C   UNL     1       5.907   5.825  16.800  0.00  0.00    +0.000 A 
ENDBRANCH  21  23
ENDBRANCH  19  21
ENDBRANCH   3  19
TORSDOF 4
ENDMDL
MODEL 3
REMARK VINA RESULT:      -8.0      1.132      1.160
REMARK  Name = 
REMARK  4 active torsions:
REMARK  status: ('A' for Active; 'I' for Inactive)
REMARK    1  A    between atoms: C_2  and  C_14
REMARK    2  A    between atoms: N_3  and  C_4
REMARK    3  A    between atoms: C_4  and  N_6
REMARK    4  A    between atoms: N_6  and  C_7
REMARK                            x       y       z     vdW  Elec       q    Type
REMARK                         _______ _______ _______ _____ _____    ______ ____
ROOT
ATOM      1  O   UNL     1       2.212   4.780  17.895  0.00  0.00    +0.000 OA
ATOM      2  C   UNL     1       2.849   5.580  18.568  0.00  0.00    +0.000 C 
ATOM      3  N   UNL     1       3.977   5.280  19.306  0.00  0.00    +0.000 N 
ATOM      4  H   UNL     1       4.255   5.945  20.009  0.00  0.00    +0.000 HD
ENDROOT
BRANCH   2   5
ATOM      5  C   UNL     1       2.294   6.949  18.755  0.00  0.00    +0.000 A 
ATOM      6  C   UNL     1       2.585   7.910  17.791  0.00  0.00    +0.000 A 
ATOM      7  C   UNL     1       2.170   9.228  17.977  0.00  0.00    +0.000 A 
ATOM      8  C   UNL     1       1.463   9.620  19.129  0.00  0.00    +0.000 A 
ATOM      9  C   UNL     1       1.144   8.653  20.088  0.00  0.00    +0.000 A 
ATOM     10  C   UNL     1       1.557   7.315  19.886  0.00  0.00    +0.000 A 
ATOM     11  S   UNL     1       0.268   8.939  21.604  0.00  0.00    +0.000 S 
ATOM     12  C   UNL     1      -0.097  10.674  21.684  0.00  0.00    +0.000 A 
ATOM     13  C   UNL     1      -0.799  11.078  22.839  0.00  0.00    +0.000 A 
ATOM     14  C   UNL     1      -1.170  12.408  23.043  0.00  0.00    +0.000 A 
ATOM     15  C   UNL     1      -0.840  13.362  22.093  0.00  0.00    +0.000 A 
ATOM     16  C   UNL     1      -0.143  12.978  20.949  0.00  0.00    +0.000 A 
ATOM     17  C   UNL     1       0.234  11.636  20.728  0.00  0.00    +0.000 A 
ATOM     18  S   UNL     1       1.094  11.351  19.207  0.00  0.00    +0.000 S 
ENDBRANCH   2   5
BRANCH   3  19
ATOM     19  C   UNL     1       4.758   4.125  19.289  0.00  0.00    +0.000 C 
ATOM     20  S   UNL     1       4.349   2.630  19.894  0.00  0.00    +0.000 S 
BRANCH  19  21
ATOM     21  N   UNL     1       5.949   4.277  18.603  0.00  0.00    +0.000 N 
ATOM     22  H   UNL     1       6.770   4.455  19.174  0.00  0.00    +0.000 HD
BRANCH  21  23
ATOM     23  C   UNL     1       6.088   4.362  17.203  0.00  0.00    +0.000 A 
ATOM     24  C   UNL     1       5.111   3.845  16.340  0.00  0.00    +0.000 A 
ATOM     25  C   UNL     1       5.327   3.807  14.966  0.00  0.00    +0.000 A 
ATOM     26  C   UNL     1       6.513   4.316  14.451  0.00  0.00    +0.000 A 
ATOM     27 BR   UNL     1       6.858   4.174  12.600  0.00  0.00    +0.000 Br
ATOM     28  C   UNL     1       7.452   4.914  15.293  0.00  0.00    +0.000 A 
ATOM     29  C   UNL     1       7.229   4.960  16.673  0.00  0.00    +0.000 A 
ENDBRANCH  21  23
ENDBRANCH  19  21
ENDBRANCH   3  19
TORSDOF 4
ENDMDL
MODEL 4
REMARK VINA RESULT:      -8.0      2.075      2.991
REMARK  Name = 
REMARK  4 active torsions:
REMARK  status: ('A' for Active; 'I' for Inactive)
REMARK    1  A    between atoms: C_2  and  C_14
REMARK    2  A    between atoms: N_3  and  C_4
REMARK    3  A    between atoms: C_4  and  N_6
REMARK    4  A    between atoms: N_6  and  C_7
REMARK                            x       y       z     vdW  Elec       q    Type
REMARK                         _______ _______ _______ _____ _____    ______ ____
ROOT
ATOM      1  O   UNL     1       1.654   4.720  17.568  0.00  0.00    +0.000 OA
ATOM      2  C   UNL     1       2.440   5.119  18.418  0.00  0.00    +0.000 C 
ATOM      3  N   UNL     1       3.529   4.413  18.891  0.00  0.00    +0.000 N 
ATOM      4  H   UNL     1       3.939   4.729  19.753  0.00  0.00    +0.000 HD
ENDROOT
BRANCH   2   5
ATOM      5  C   UNL     1       2.128   6.390  19.129  0.00  0.00    +0.000 A 
ATOM      6  C   UNL     1       1.756   6.315  20.469  0.00  0.00    +0.000 A 
ATOM      7  C   UNL     1       1.359   7.468  21.144  0.00  0.00    +0.000 A 
ATOM      8  C   UNL     1       1.316   8.719  20.500  0.00  0.00    +0.000 A 
ATOM      9  C   UNL     1       1.714   8.804  19.162  0.00  0.00    +0.000 A 
ATOM     10  C   UNL     1       2.129   7.632  18.486  0.00  0.00    +0.000 A 
ATOM     11  S   UNL     1       1.729  10.276  18.172  0.00  0.00    +0.000 S 
ATOM     12  C   UNL     1       1.121  11.601  19.185  0.00  0.00    +0.000 A 
ATOM     13  C   UNL     1       1.065  12.857  18.546  0.00  0.00    +0.000 A 
ATOM     14  C   UNL     1       0.622  13.999  19.213  0.00  0.00    +0.000 A 
ATOM     15  C   UNL     1       0.218  13.904  20.536  0.00  0.00    +0.000 A 
ATOM     16  C   UNL     1       0.262  12.668  21.178  0.00  0.00    +0.000 A 
ATOM     17  C   UNL     1       0.714  11.506  20.518  0.00  0.00    +0.000 A 
ATOM     18  S   UNL     1       0.713  10.042  21.512  0.00  0.00    +0.000 S 
ENDBRANCH   2   5
BRANCH   3  19
ATOM     19  C   UNL     1       4.105   3.246  18.392  0.00  0.00    +0.000 C 
ATOM     20  S   UNL     1       3.526   1.695  18.554  0.00  0.00    +0.000 S 
BRANCH  19  21
ATOM     21  N   UNL     1       5.223   3.475  17.611  0.00  0.00    +0.000 N 
ATOM     22  H   UNL     1       5.583   2.671  17.107  0.00  0.00    +0.000 HD
BRANCH  21  23
ATOM     23  C   UNL     1       5.979   4.664  17.584  0.00  0.00    +0.000 A 
ATOM     24  C   UNL     1       7.048   4.869  18.469  0.00  0.00    +0.000 A 
ATOM     25  C   UNL     1       7.693   6.101  18.527  0.00  0.00    +0.000 A 
ATOM     26  C   UNL     1       7.287   7.122  17.676  0.00  0.00    +0.000 A 
ATOM     27 BR   UNL     1       8.087   8.826  17.822  0.00  0.00    +0.000 Br
ATOM     28  C   UNL     1       6.285   6.898  16.730  0.00  0.00    +0.000 A 
ATOM     29  C   UNL     1       5.644   5.657  16.667  0.00  0.00    +0.000 A 
ENDBRANCH  21  23
ENDBRANCH  19  21
ENDBRANCH   3  19
TORSDOF 4
ENDMDL
MODEL 5
REMARK VINA RESULT:      -8.0      2.112      2.579
REMARK  Name = 
REMARK  4 active torsions:
REMARK  status: ('A' for Active; 'I' for Inactive)
REMARK    1  A    between atoms: C_2  and  C_14
REMARK    2  A    between atoms: N_3  and  C_4
REMARK    3  A    between atoms: C_4  and  N_6
REMARK    4  A    between atoms: N_6  and  C_7
REMARK                            x       y       z     vdW  Elec       q    Type
REMARK                         _______ _______ _______ _____ _____    ______ ____
ROOT
ATOM      1  O   UNL     1       3.338   5.041  17.093  0.00  0.00    +0.000 OA
ATOM      2  C   UNL     1       3.436   5.535  18.209  0.00  0.00    +0.000 C 
ATOM      3  N   UNL     1       4.061   4.945  19.290  0.00  0.00    +0.000 N 
ATOM      4  H   UNL     1       3.856   5.322  20.199  0.00  0.00    +0.000 HD
ENDROOT
BRANCH   2   5
ATOM      5  C   UNL     1       2.693   6.794  18.493  0.00  0.00    +0.000 A 
ATOM      6  C   UNL     1       2.756   7.818  17.552  0.00  0.00    +0.000 A 
ATOM      7  C   UNL     1       2.160   9.048  17.824  0.00  0.00    +0.000 A 
ATOM      8  C   UNL     1       1.493   9.289  19.040  0.00  0.00    +0.000 A 
ATOM      9  C   UNL     1       1.403   8.255  19.977  0.00  0.00    +0.000 A 
ATOM     10  C   UNL     1       2.000   7.005  19.690  0.00  0.00    +0.000 A 
ATOM     11  S   UNL     1       0.616   8.354  21.564  0.00  0.00    +0.000 S 
ATOM     12  C   UNL     1      -0.005  10.007  21.744  0.00  0.00    +0.000 A 
ATOM     13  C   UNL     1      -0.667  10.261  22.963  0.00  0.00    +0.000 A 
ATOM     14  C   UNL     1      -1.222  11.509  23.250  0.00  0.00    +0.000 A 
ATOM     15  C   UNL     1      -1.118  12.532  22.319  0.00  0.00    +0.000 A 
ATOM     16  C   UNL     1      -0.462  12.297  21.113  0.00  0.00    +0.000 A 
ATOM     17  C   UNL     1       0.098  11.038  20.808  0.00  0.00    +0.000 A 
ATOM     18  S   UNL     1       0.870  10.937  19.218  0.00  0.00    +0.000 S 
ENDBRANCH   2   5
BRANCH   3  19
ATOM     19  C   UNL     1       4.883   3.819  19.324  0.00  0.00    +0.000 C 
ATOM     20  S   UNL     1       4.543   2.352  20.031  0.00  0.00    +0.000 S 
BRANCH  19  21
ATOM     21  N   UNL     1       6.050   3.968  18.599  0.00  0.00    +0.000 N 
ATOM     22  H   UNL     1       6.478   3.110  18.266  0.00  0.00    +0.000 HD
BRANCH  21  23
ATOM     23  C   UNL     1       6.763   5.172  18.423  0.00  0.00    +0.000 A 
ATOM     24  C   UNL     1       7.648   5.645  19.402  0.00  0.00    +0.000 A 
ATOM     25  C   UNL     1       8.235   6.901  19.280  0.00  0.00    +0.000 A 
ATOM     26  C   UNL     1       7.958   7.675  18.160  0.00  0.00    +0.000 A 
ATOM     27 BR   UNL     1       8.666   9.420  18.038  0.00  0.00    +0.000 Br
ATOM     28  C   UNL     1       7.149   7.175  17.137  0.00  0.00    +0.000 A 
ATOM     29  C   UNL     1       6.568   5.908  17.257  0.00  0.00    +0.000 A 
ENDBRANCH  21  23
ENDBRANCH  19  21
ENDBRANCH   3  19
TORSDOF 4
ENDMDL
MODEL 6
REMARK VINA RESULT:      -7.9      2.773      3.739
REMARK  Name = 
REMARK  4 active torsions:
REMARK  status: ('A' for Active; 'I' for Inactive)
REMARK    1  A    between atoms: C_2  and  C_14
REMARK    2  A    between atoms: N_3  and  C_4
REMARK    3  A    between atoms: C_4  and  N_6
REMARK    4  A    between atoms: N_6  and  C_7
REMARK                            x       y       z     vdW  Elec       q    Type
REMARK                         _______ _______ _______ _____ _____    ______ ____
ROOT
ATOM      1  O   UNL     1       5.503   5.927  18.560  0.00  0.00    +0.000 OA
ATOM      2  C   UNL     1       4.464   5.925  17.913  0.00  0.00    +0.000 C 
ATOM      3  N   UNL     1       4.225   5.154  16.792  0.00  0.00    +0.000 N 
ATOM      4  H   UNL     1       3.452   5.423  16.207  0.00  0.00    +0.000 HD
ENDROOT
BRANCH   2   5
ATOM      5  C   UNL     1       3.424   6.939  18.239  0.00  0.00    +0.000 A 
ATOM      6  C   UNL     1       3.115   7.894  17.273  0.00  0.00    +0.000 A 
ATOM      7  C   UNL     1       2.222   8.921  17.573  0.00  0.00    +0.000 A 
ATOM      8  C   UNL     1       1.623   9.026  18.842  0.00  0.00    +0.000 A 
ATOM      9  C   UNL     1       1.908   8.055  19.807  0.00  0.00    +0.000 A 
ATOM     10  C   UNL     1       2.805   7.008  19.492  0.00  0.00    +0.000 A 
ATOM     11  S   UNL     1       1.264   8.009  21.460  0.00  0.00    +0.000 S 
ATOM     12  C   UNL     1       0.222   9.431  21.661  0.00  0.00    +0.000 A 
ATOM     13  C   UNL     1      -0.377   9.550  22.932  0.00  0.00    +0.000 A 
ATOM     14  C   UNL     1      -1.233  10.607  23.243  0.00  0.00    +0.000 A 
ATOM     15  C   UNL     1      -1.503  11.572  22.284  0.00  0.00    +0.000 A 
ATOM     16  C   UNL     1      -0.913  11.470  21.025  0.00  0.00    +0.000 A 
ATOM     17  C   UNL     1      -0.050  10.403  20.696  0.00  0.00    +0.000 A 
ATOM     18  S   UNL     1       0.578  10.443  19.042  0.00  0.00    +0.000 S 
ENDBRANCH   2   5
BRANCH   3  19
ATOM     19  C   UNL     1       4.966   4.088  16.284  0.00  0.00    +0.000 C 
ATOM     20  S   UNL     1       6.011   4.121  14.990  0.00  0.00    +0.000 S 
BRANCH  19  21
ATOM     21  N   UNL     1       4.847   2.931  17.031  0.00  0.00    +0.000 N 
ATOM     22  H   UNL     1       5.343   2.120  16.674  0.00  0.00    +0.000 HD
BRANCH  21  23
ATOM     23  C   UNL     1       3.988   2.746  18.133  0.00  0.00    +0.000 A 
ATOM     24  C   UNL     1       2.600   2.639  17.967  0.00  0.00    +0.000 A 
ATOM     25  C   UNL     1       1.755   2.600  19.071  0.00  0.00    +0.000 A 
ATOM     26  C   UNL     1       2.302   2.639  20.348  0.00  0.00    +0.000 A 
ATOM     27 BR   UNL     1       1.156   2.692  21.848  0.00  0.00    +0.000 Br
ATOM     28  C   UNL     1       3.686   2.654  20.524  0.00  0.00    +0.000 A 
ATOM     29  C   UNL     1       4.535   2.684  19.412  0.00  0.00    +0.000 A 
ENDBRANCH  21  23
ENDBRANCH  19  21
ENDBRANCH   3  19
TORSDOF 4
ENDMDL
MODEL 7
REMARK VINA RESULT:      -7.9      1.940      2.343
REMARK  Name = 
REMARK  4 active torsions:
REMARK  status: ('A' for Active; 'I' for Inactive)
REMARK    1  A    between atoms: C_2  and  C_14
REMARK    2  A    between atoms: N_3  and  C_4
REMARK    3  A    between atoms: C_4  and  N_6
REMARK    4  A    between atoms: N_6  and  C_7
REMARK                            x       y       z     vdW  Elec       q    Type
REMARK                         _______ _______ _______ _____ _____    ______ ____
ROOT
ATOM      1  O   UNL     1       3.887   4.873  17.755  0.00  0.00    +0.000 OA
ATOM      2  C   UNL     1       4.225   6.050  17.737  0.00  0.00    +0.000 C 
ATOM      3  N   UNL     1       5.514   6.506  17.545  0.00  0.00    +0.000 N 
ATOM      4  H   UNL     1       5.706   7.460  17.804  0.00  0.00    +0.000 HD
ENDROOT
BRANCH   2   5
ATOM      5  C   UNL     1       3.218   7.081  18.110  0.00  0.00    +0.000 A 
ATOM      6  C   UNL     1       2.916   8.069  17.176  0.00  0.00    +0.000 A 
ATOM      7  C   UNL     1       2.055   9.109  17.521  0.00  0.00    +0.000 A 
ATOM      8  C   UNL     1       1.482   9.195  18.804  0.00  0.00    +0.000 A 
ATOM      9  C   UNL     1       1.760   8.191  19.737  0.00  0.00    +0.000 A 
ATOM     10  C   UNL     1       2.624   7.130  19.376  0.00  0.00    +0.000 A 
ATOM     11  S   UNL     1       1.146   8.116  21.400  0.00  0.00    +0.000 S 
ATOM     12  C   UNL     1       0.144   9.557  21.659  0.00  0.00    +0.000 A 
ATOM     13  C   UNL     1      -0.428   9.656  22.945  0.00  0.00    +0.000 A 
ATOM     14  C   UNL     1      -1.251  10.726  23.300  0.00  0.00    +0.000 A 
ATOM     15  C   UNL     1      -1.513  11.722  22.372  0.00  0.00    +0.000 A 
ATOM     16  C   UNL     1      -0.950  11.640  21.100  0.00  0.00    +0.000 A 
ATOM     17  C   UNL     1      -0.121  10.562  20.726  0.00  0.00    +0.000 A 
ATOM     18  S   UNL     1       0.478  10.631  19.062  0.00  0.00    +0.000 S 
ENDBRANCH   2   5
BRANCH   3  19
ATOM     19  C   UNL     1       6.642   5.805  17.121  0.00  0.00    +0.000 C 
ATOM     20  S   UNL     1       7.506   4.679  17.990  0.00  0.00    +0.000 S 
BRANCH  19  21
ATOM     21  N   UNL     1       6.975   6.044  15.801  0.00  0.00    +0.000 N 
ATOM     22  H   UNL     1       7.396   6.947  15.607  0.00  0.00    +0.000 HD
BRANCH  21  23
ATOM     23  C   UNL     1       6.640   5.223  14.705  0.00  0.00    +0.000 A 
ATOM     24  C   UNL     1       5.469   4.450  14.703  0.00  0.00    +0.000 A 
ATOM     25  C   UNL     1       5.223   3.539  13.681  0.00  0.00    +0.000 A 
ATOM     26  C   UNL     1       6.138   3.420  12.641  0.00  0.00    +0.000 A 
ATOM     27 BR   UNL     1       5.863   2.113  11.307  0.00  0.00    +0.000 Br
ATOM     28  C   UNL     1       7.261   4.248  12.588  0.00  0.00    +0.000 A 
ATOM     29  C   UNL     1       7.501   5.171  13.612  0.00  0.00    +0.000 A 
ENDBRANCH  21  23
ENDBRANCH  19  21
ENDBRANCH   3  19
TORSDOF 4
ENDMDL
MODEL 8
REMARK VINA RESULT:      -7.8      1.540      1.606
REMARK  Name = 
REMARK  4 active torsions:
REMARK  status: ('A' for Active; 'I' for Inactive)
REMARK    1  A    between atoms: C_2  and  C_14
REMARK    2  A    between atoms: N_3  and  C_4
REMARK    3  A    between atoms: C_4  and  N_6
REMARK    4  A    between atoms: N_6  and  C_7
REMARK                            x       y       z     vdW  Elec       q    Type
REMARK                         _______ _______ _______ _____ _____    ______ ____
ROOT
ATOM      1  O   UNL     1       3.216   4.756  19.444  0.00  0.00    +0.000 OA
ATOM      2  C   UNL     1       3.629   5.872  19.156  0.00  0.00    +0.000 C 
ATOM      3  N   UNL     1       4.953   6.204  18.949  0.00  0.00    +0.000 N 
ATOM      4  H   UNL     1       5.190   7.181  18.974  0.00  0.00    +0.000 HD
ENDROOT
BRANCH   2   5
ATOM      5  C   UNL     1       2.670   7.011  19.187  0.00  0.00    +0.000 A 
ATOM      6  C   UNL     1       2.481   7.739  18.016  0.00  0.00    +0.000 A 
ATOM      7  C   UNL     1       1.670   8.873  18.027  0.00  0.00    +0.000 A 
ATOM      8  C   UNL     1       1.035   9.311  19.204  0.00  0.00    +0.000 A 
ATOM      9  C   UNL     1       1.199   8.568  20.377  0.00  0.00    +0.000 A 
ATOM     10  C   UNL     1       2.013   7.411  20.356  0.00  0.00    +0.000 A 
ATOM     11  S   UNL     1       0.493   8.950  21.959  0.00  0.00    +0.000 S 
ATOM     12  C   UNL     1      -0.429  10.456  21.777  0.00  0.00    +0.000 A 
ATOM     13  C   UNL     1      -1.061  10.908  22.953  0.00  0.00    +0.000 A 
ATOM     14  C   UNL     1      -1.834  12.070  22.970  0.00  0.00    +0.000 A 
ATOM     15  C   UNL     1      -1.983  12.807  21.805  0.00  0.00    +0.000 A 
ATOM     16  C   UNL     1      -1.358  12.375  20.636  0.00  0.00    +0.000 A 
ATOM     17  C   UNL     1      -0.580  11.199  20.604  0.00  0.00    +0.000 A 
ATOM     18  S   UNL     1       0.111  10.811  19.021  0.00  0.00    +0.000 S 
ENDBRANCH   2   5
BRANCH   3  19
ATOM     19  C   UNL     1       6.056   5.365  18.796  0.00  0.00    +0.000 C 
ATOM     20  S   UNL     1       7.506   5.459  19.606  0.00  0.00    +0.000 S 
BRANCH  19  21
ATOM     21  N   UNL     1       5.829   4.309  17.934  0.00  0.00    +0.000 N 
ATOM     22  H   UNL     1       5.634   3.414  18.371  0.00  0.00    +0.000 HD
BRANCH  21  23
ATOM     23  C   UNL     1       5.997   4.336  16.534  0.00  0.00    +0.000 A 
ATOM     24  C   UNL     1       5.018   3.824  15.671  0.00  0.00    +0.000 A 
ATOM     25  C   UNL     1       5.258   3.727  14.304  0.00  0.00    +0.000 A 
ATOM     26  C   UNL     1       6.473   4.171  13.794  0.00  0.00    +0.000 A 
ATOM     27 BR   UNL     1       6.846   3.947  11.957  0.00  0.00    +0.000 Br
ATOM     28  C   UNL     1       7.417   4.765  14.633  0.00  0.00    +0.000 A 
ATOM     29  C   UNL     1       7.170   4.870  16.006  0.00  0.00    +0.000 A 
ENDBRANCH  21  23
ENDBRANCH  19  21
ENDBRANCH   3  19
TORSDOF 4
ENDMDL
MODEL 9
REMARK VINA RESULT:      -7.6      1.427      2.321
REMARK  Name = 
REMARK  4 active torsions:
REMARK  status: ('A' for Active; 'I' for Inactive)
REMARK    1  A    between atoms: C_2  and  C_14
REMARK    2  A    between atoms: N_3  and  C_4
REMARK    3  A    between atoms: C_4  and  N_6
REMARK    4  A    between atoms: N_6  and  C_7
REMARK                            x       y       z     vdW  Elec       q    Type
REMARK                         _______ _______ _______ _____ _____    ______ ____
ROOT
ATOM      1  O   UNL     1       2.073   5.002  17.894  0.00  0.00    +0.000 OA
ATOM      2  C   UNL     1       2.669   5.471  18.855  0.00  0.00    +0.000 C 
ATOM      3  N   UNL     1       3.682   4.839  19.550  0.00  0.00    +0.000 N 
ATOM      4  H   UNL     1       3.911   5.204  20.459  0.00  0.00    +0.000 HD
ENDROOT
BRANCH   2   5
ATOM      5  C   UNL     1       2.175   6.746  19.442  0.00  0.00    +0.000 A 
ATOM      6  C   UNL     1       1.637   6.711  20.726  0.00  0.00    +0.000 A 
ATOM      7  C   UNL     1       1.071   7.861  21.274  0.00  0.00    +0.000 A 
ATOM      8  C   UNL     1       1.021   9.070  20.554  0.00  0.00    +0.000 A 
ATOM      9  C   UNL     1       1.584   9.118  19.274  0.00  0.00    +0.000 A 
ATOM     10  C   UNL     1       2.168   7.951  18.730  0.00  0.00    +0.000 A 
ATOM     11  S   UNL     1       1.620  10.534  18.206  0.00  0.00    +0.000 S 
ATOM     12  C   UNL     1       0.789  11.855  19.051  0.00  0.00    +0.000 A 
ATOM     13  C   UNL     1       0.726  13.068  18.334  0.00  0.00    +0.000 A 
ATOM     14  C   UNL     1       0.116  14.204  18.868  0.00  0.00    +0.000 A 
ATOM     15  C   UNL     1      -0.449  14.145  20.133  0.00  0.00    +0.000 A 
ATOM     16  C   UNL     1      -0.399  12.951  20.850  0.00  0.00    +0.000 A 
ATOM     17  C   UNL     1       0.219  11.797  20.324  0.00  0.00    +0.000 A 
ATOM     18  S   UNL     1       0.196  10.390  21.398  0.00  0.00    +0.000 S 
ENDBRANCH   2   5
BRANCH   3  19
ATOM     19  C   UNL     1       4.392   3.687  19.215  0.00  0.00    +0.000 C 
ATOM     20  S   UNL     1       3.839   2.118  19.268  0.00  0.00    +0.000 S 
BRANCH  19  21
ATOM     21  N   UNL     1       5.651   3.945  18.706  0.00  0.00    +0.000 N 
ATOM     22  H   UNL     1       6.397   4.031  19.390  0.00  0.00    +0.000 HD
BRANCH  21  23
ATOM     23  C   UNL     1       5.950   4.250  17.363  0.00  0.00    +0.000 A 
ATOM     24  C   UNL     1       5.018   4.026  16.339  0.00  0.00    +0.000 A 
ATOM     25  C   UNL     1       5.376   4.197  15.005  0.00  0.00    +0.000 A 
ATOM     26  C   UNL     1       6.662   4.622  14.695  0.00  0.00    +0.000 A 
ATOM     27 BR   UNL     1       7.186   4.756  12.886  0.00  0.00    +0.000 Br
ATOM     28  C   UNL     1       7.568   4.935  15.711  0.00  0.00    +0.000 A 
ATOM     29  C   UNL     1       7.203   4.771  17.052  0.00  0.00    +0.000 A 
ENDBRANCH  21  23
ENDBRANCH  19  21
ENDBRANCH   3  19
TORSDOF 4
ENDMDL
