MODEL 1
REMARK VINA RESULT:      -7.6      0.000      0.000
REMARK  Name = 
REMARK  5 active torsions:
REMARK  status: ('A' for Active; 'I' for Inactive)
REMARK    1  A    between atoms: C_2  and  C_3
REMARK    2  A    between atoms: C_3  and  N_4
REMARK    3  A    between atoms: C_8  and  C_9
REMARK    4  A    between atoms: N_16  and  N_17
REMARK    5  A    between atoms: C_18  and  C_19
REMARK                            x       y       z     vdW  Elec       q    Type
REMARK                         _______ _______ _______ _____ _____    ______ ____
ROOT
ATOM      1  N   UNL     1       1.558   3.044  18.988  0.00  0.00    +0.000 NA
ATOM      2  C   UNL     1       2.667   3.485  18.531  0.00  0.00    +0.000 A 
ATOM      3  S   UNL     1       3.476   2.366  17.358  0.00  0.00    +0.000 S 
ATOM      4  C   UNL     1       4.907   3.345  17.349  0.00  0.00    +0.000 A 
ATOM      5  C   UNL     1       4.757   4.457  18.089  0.00  0.00    +0.000 A 
ATOM      6  N   UNL     1       3.502   4.621  18.701  0.00  0.00    +0.000 N 
ENDROOT
BRANCH   5   7
ATOM      7  C   UNL     1       5.859   5.415  18.224  0.00  0.00    +0.000 A 
ATOM      8  C   UNL     1       6.737   5.277  19.314  0.00  0.00    +0.000 A 
ATOM      9  C   UNL     1       7.870   6.083  19.423  0.00  0.00    +0.000 A 
ATOM     10  C   UNL     1       8.145   7.042  18.447  0.00  0.00    +0.000 A 
ATOM     11  C   UNL     1       7.278   7.200  17.367  0.00  0.00    +0.000 A 
ATOM     12  C   UNL     1       6.139   6.393  17.255  0.00  0.00    +0.000 A 
ATOM     13 BR   UNL     1       5.024   6.659  15.737  0.00  0.00    +0.000 Br
ENDBRANCH   5   7
BRANCH   6  14
ATOM     14  N   UNL     1       3.187   5.796  19.370  0.00  0.00    +0.000 NA
ATOM     15  C   UNL     1       2.581   6.673  18.627  0.00  0.00    +0.000 C 
BRANCH  15  16
ATOM     16  C   UNL     1       2.001   7.932  19.122  0.00  0.00    +0.000 A 
ATOM     17  C   UNL     1       1.774   9.022  18.300  0.00  0.00    +0.000 A 
ATOM     18  C   UNL     1       1.131  10.125  18.862  0.00  0.00    +0.000 A 
ATOM     19  C   UNL     1       0.791  10.114  20.214  0.00  0.00    +0.000 A 
ATOM     20  C   UNL     1       1.112   8.995  20.964  0.00  0.00    +0.000 A 
ATOM     21  N   UNL     1       1.694   7.896  20.444  0.00  0.00    +0.000 NA
ENDBRANCH  15  16
ENDBRANCH   6  14
BRANCH   1  22
ATOM     22  C   UNL     1       0.837   3.754  20.026  0.00  0.00    +0.000 C 
BRANCH  22  24
ATOM     23  C   UNL     1       2.377   2.608  21.688  0.00  0.00    +0.000 C 
ATOM     24  C   UNL     1       1.340   3.404  21.394  0.00  0.00    +0.000 C 
ENDBRANCH  22  24
ENDBRANCH   1  22
TORSDOF 5
ENDMDL
MODEL 2
REMARK VINA RESULT:      -6.1      2.240      5.169
REMARK  Name = 
REMARK  5 active torsions:
REMARK  status: ('A' for Active; 'I' for Inactive)
REMARK    1  A    between atoms: C_2  and  C_3
REMARK    2  A    between atoms: C_3  and  N_4
REMARK    3  A    between atoms: C_8  and  C_9
REMARK    4  A    between atoms: N_16  and  N_17
REMARK    5  A    between atoms: C_18  and  C_19
REMARK                            x       y       z     vdW  Elec       q    Type
REMARK                         _______ _______ _______ _____ _____    ______ ____
ROOT
ATOM      1  N   UNL     1       6.860   6.749  16.854  0.00  0.00    +0.000 NA
ATOM      2  C   UNL     1       6.118   5.739  17.105  0.00  0.00    +0.000 A 
ATOM      3  S   UNL     1       6.626   4.223  16.254  0.00  0.00    +0.000 S 
ATOM      4  C   UNL     1       5.181   3.407  16.760  0.00  0.00    +0.000 A 
ATOM      5  C   UNL     1       4.431   4.174  17.569  0.00  0.00    +0.000 A 
ATOM      6  N   UNL     1       4.947   5.450  17.855  0.00  0.00    +0.000 N 
ENDROOT
BRANCH   5   7
ATOM      7  C   UNL     1       3.157   3.675  18.097  0.00  0.00    +0.000 A 
ATOM      8  C   UNL     1       1.971   4.021  17.426  0.00  0.00    +0.000 A 
ATOM      9  C   UNL     1       0.748   3.476  17.814  0.00  0.00    +0.000 A 
ATOM     10  C   UNL     1       0.687   2.575  18.878  0.00  0.00    +0.000 A 
ATOM     11  C   UNL     1       1.852   2.230  19.561  0.00  0.00    +0.000 A 
ATOM     12  C   UNL     1       3.082   2.777  19.176  0.00  0.00    +0.000 A 
ATOM     13 BR   UNL     1       4.625   2.233  20.147  0.00  0.00    +0.000 Br
ENDBRANCH   5   7
BRANCH   6  14
ATOM     14  N   UNL     1       4.329   6.272  18.788  0.00  0.00    +0.000 NA
ATOM     15  C   UNL     1       3.272   6.874  18.332  0.00  0.00    +0.000 C 
BRANCH  15  16
ATOM     16  C   UNL     1       2.346   7.675  19.151  0.00  0.00    +0.000 A 
ATOM     17  C   UNL     1       1.965   7.300  20.427  0.00  0.00    +0.000 A 
ATOM     18  C   UNL     1       1.160   8.186  21.142  0.00  0.00    +0.000 A 
ATOM     19  C   UNL     1       0.734   9.371  20.543  0.00  0.00    +0.000 A 
ATOM     20  C   UNL     1       1.126   9.628  19.240  0.00  0.00    +0.000 A 
ATOM     21  N   UNL     1       1.938   8.814  18.536  0.00  0.00    +0.000 NA
ENDBRANCH  15  16
ENDBRANCH   6  14
BRANCH   1  22
ATOM     22  C   UNL     1       6.529   8.068  17.354  0.00  0.00    +0.000 C 
BRANCH  22  24
ATOM     23  C   UNL     1       8.604   8.815  18.613  0.00  0.00    +0.000 C 
ATOM     24  C   UNL     1       7.754   8.902  17.581  0.00  0.00    +0.000 C 
ENDBRANCH  22  24
ENDBRANCH   1  22
TORSDOF 5
ENDMDL
MODEL 3
REMARK VINA RESULT:      -5.9      2.078      4.983
REMARK  Name = 
REMARK  5 active torsions:
REMARK  status: ('A' for Active; 'I' for Inactive)
REMARK    1  A    between atoms: C_2  and  C_3
REMARK    2  A    between atoms: C_3  and  N_4
REMARK    3  A    between atoms: C_8  and  C_9
REMARK    4  A    between atoms: N_16  and  N_17
REMARK    5  A    between atoms: C_18  and  C_19
REMARK                            x       y       z     vdW  Elec       q    Type
REMARK                         _______ _______ _______ _____ _____    ______ ____
ROOT
ATOM      1  N   UNL     1       6.602   6.410  16.365  0.00  0.00    +0.000 NA
ATOM      2  C   UNL     1       5.869   5.445  16.771  0.00  0.00    +0.000 A 
ATOM      3  S   UNL     1       6.284   3.844  16.030  0.00  0.00    +0.000 S 
ATOM      4  C   UNL     1       4.876   3.111  16.728  0.00  0.00    +0.000 A 
ATOM      5  C   UNL     1       4.205   3.967  17.518  0.00  0.00    +0.000 A 
ATOM      6  N   UNL     1       4.761   5.253  17.638  0.00  0.00    +0.000 N 
ENDROOT
BRANCH   5   7
ATOM      7  C   UNL     1       2.974   3.547  18.193  0.00  0.00    +0.000 A 
ATOM      8  C   UNL     1       1.740   3.865  17.597  0.00  0.00    +0.000 A 
ATOM      9  C   UNL     1       0.545   3.385  18.133  0.00  0.00    +0.000 A 
ATOM     10  C   UNL     1       0.561   2.580  19.272  0.00  0.00    +0.000 A 
ATOM     11  C   UNL     1       1.774   2.266  19.882  0.00  0.00    +0.000 A 
ATOM     12  C   UNL     1       2.975   2.747  19.349  0.00  0.00    +0.000 A 
ATOM     13 BR   UNL     1       4.586   2.248  20.230  0.00  0.00    +0.000 Br
ENDBRANCH   5   7
BRANCH   6  14
ATOM     14  N   UNL     1       4.233   6.172  18.535  0.00  0.00    +0.000 NA
ATOM     15  C   UNL     1       3.267   6.886  18.041  0.00  0.00    +0.000 C 
BRANCH  15  16
ATOM     16  C   UNL     1       2.433   7.819  18.818  0.00  0.00    +0.000 A 
ATOM     17  C   UNL     1       1.976   9.018  18.300  0.00  0.00    +0.000 A 
ATOM     18  C   UNL     1       1.116   9.773  19.097  0.00  0.00    +0.000 A 
ATOM     19  C   UNL     1       0.792   9.330  20.379  0.00  0.00    +0.000 A 
ATOM     20  C   UNL     1       1.347   8.143  20.825  0.00  0.00    +0.000 A 
ATOM     21  N   UNL     1       2.147   7.368  20.066  0.00  0.00    +0.000 NA
ENDBRANCH  15  16
ENDBRANCH   6  14
BRANCH   1  22
ATOM     22  C   UNL     1       6.331   7.778  16.761  0.00  0.00    +0.000 C 
BRANCH  22  24
ATOM     23  C   UNL     1       8.250   7.626  18.417  0.00  0.00    +0.000 C 
ATOM     24  C   UNL     1       7.411   8.327  17.642  0.00  0.00    +0.000 C 
ENDBRANCH  22  24
ENDBRANCH   1  22
TORSDOF 5
ENDMDL
MODEL 4
REMARK VINA RESULT:      -5.8      1.811      2.461
REMARK  Name = 
REMARK  5 active torsions:
REMARK  status: ('A' for Active; 'I' for Inactive)
REMARK    1  A    between atoms: C_2  and  C_3
REMARK    2  A    between atoms: C_3  and  N_4
REMARK    3  A    between atoms: C_8  and  C_9
REMARK    4  A    between atoms: N_16  and  N_17
REMARK    5  A    between atoms: C_18  and  C_19
REMARK                            x       y       z     vdW  Elec       q    Type
REMARK                         _______ _______ _______ _____ _____    ______ ____
ROOT
ATOM      1  N   UNL     1       3.412   3.639  17.013  0.00  0.00    +0.000 NA
ATOM      2  C   UNL     1       4.447   4.374  16.858  0.00  0.00    +0.000 A 
ATOM      3  S   UNL     1       5.614   3.748  15.622  0.00  0.00    +0.000 S 
ATOM      4  C   UNL     1       6.790   4.942  16.071  0.00  0.00    +0.000 A 
ATOM      5  C   UNL     1       6.315   5.788  17.000  0.00  0.00    +0.000 A 
ATOM      6  N   UNL     1       4.990   5.563  17.412  0.00  0.00    +0.000 N 
ENDROOT
BRANCH   5   7
ATOM      7  C   UNL     1       7.159   6.866  17.527  0.00  0.00    +0.000 A 
ATOM      8  C   UNL     1       7.091   8.130  16.915  0.00  0.00    +0.000 A 
ATOM      9  C   UNL     1       7.779   9.219  17.450  0.00  0.00    +0.000 A 
ATOM     10  C   UNL     1       8.546   9.064  18.605  0.00  0.00    +0.000 A 
ATOM     11  C   UNL     1       8.633   7.815  19.218  0.00  0.00    +0.000 A 
ATOM     12  C   UNL     1       7.945   6.719  18.682  0.00  0.00    +0.000 A 
ATOM     13 BR   UNL     1       8.099   5.057  19.595  0.00  0.00    +0.000 Br
ENDBRANCH   5   7
BRANCH   6  14
ATOM     14  N   UNL     1       4.349   6.458  18.260  0.00  0.00    +0.000 NA
ATOM     15  C   UNL     1       3.435   7.170  17.673  0.00  0.00    +0.000 C 
BRANCH  15  16
ATOM     16  C   UNL     1       2.505   8.076  18.367  0.00  0.00    +0.000 A 
ATOM     17  C   UNL     1       1.964   9.196  17.761  0.00  0.00    +0.000 A 
ATOM     18  C   UNL     1       1.021   9.924  18.486  0.00  0.00    +0.000 A 
ATOM     19  C   UNL     1       0.699   9.538  19.787  0.00  0.00    +0.000 A 
ATOM     20  C   UNL     1       1.338   8.433  20.322  0.00  0.00    +0.000 A 
ATOM     21  N   UNL     1       2.222   7.682  19.635  0.00  0.00    +0.000 NA
ENDBRANCH  15  16
ENDBRANCH   6  14
BRANCH   1  22
ATOM     22  C   UNL     1       2.435   3.925  18.045  0.00  0.00    +0.000 C 
BRANCH  22  24
ATOM     23  C   UNL     1       1.033   2.587  19.686  0.00  0.00    +0.000 C 
ATOM     24  C   UNL     1       1.886   2.672  18.656  0.00  0.00    +0.000 C 
ENDBRANCH  22  24
ENDBRANCH   1  22
TORSDOF 5
ENDMDL
MODEL 5
REMARK VINA RESULT:      -5.7      0.925      1.068
REMARK  Name = 
REMARK  5 active torsions:
REMARK  status: ('A' for Active; 'I' for Inactive)
REMARK    1  A    between atoms: C_2  and  C_3
REMARK    2  A    between atoms: C_3  and  N_4
REMARK    3  A    between atoms: C_8  and  C_9
REMARK    4  A    between atoms: N_16  and  N_17
REMARK    5  A    between atoms: C_18  and  C_19
REMARK                            x       y       z     vdW  Elec       q    Type
REMARK                         _______ _______ _______ _____ _____    ______ ____
ROOT
ATOM      1  N   UNL     1       1.623   2.297  18.703  0.00  0.00    +0.000 NA
ATOM      2  C   UNL     1       2.789   2.701  18.371  0.00  0.00    +0.000 A 
ATOM      3  S   UNL     1       4.019   1.377  18.249  0.00  0.00    +0.000 S 
ATOM      4  C   UNL     1       5.301   2.530  18.060  0.00  0.00    +0.000 A 
ATOM      5  C   UNL     1       4.836   3.789  18.003  0.00  0.00    +0.000 A 
ATOM      6  N   UNL     1       3.440   3.932  18.091  0.00  0.00    +0.000 N 
ENDROOT
BRANCH   5   7
ATOM      7  C   UNL     1       5.761   4.918  17.860  0.00  0.00    +0.000 A 
ATOM      8  C   UNL     1       6.422   5.394  19.007  0.00  0.00    +0.000 A 
ATOM      9  C   UNL     1       7.401   6.382  18.907  0.00  0.00    +0.000 A 
ATOM     10  C   UNL     1       7.737   6.913  17.661  0.00  0.00    +0.000 A 
ATOM     11  C   UNL     1       7.083   6.461  16.516  0.00  0.00    +0.000 A 
ATOM     12  C   UNL     1       6.099   5.470  16.612  0.00  0.00    +0.000 A 
ATOM     13 BR   UNL     1       5.275   4.895  14.997  0.00  0.00    +0.000 Br
ENDBRANCH   5   7
BRANCH   6  14
ATOM     14  N   UNL     1       2.840   5.170  17.903  0.00  0.00    +0.000 NA
ATOM     15  C   UNL     1       2.714   5.859  18.998  0.00  0.00    +0.000 C 
BRANCH  15  16
ATOM     16  C   UNL     1       2.257   7.258  19.058  0.00  0.00    +0.000 A 
ATOM     17  C   UNL     1       2.261   8.091  17.953  0.00  0.00    +0.000 A 
ATOM     18  C   UNL     1       1.716   9.365  18.110  0.00  0.00    +0.000 A 
ATOM     19  C   UNL     1       1.243   9.767  19.358  0.00  0.00    +0.000 A 
ATOM     20  C   UNL     1       1.335   8.876  20.415  0.00  0.00    +0.000 A 
ATOM     21  N   UNL     1       1.816   7.624  20.288  0.00  0.00    +0.000 NA
ENDBRANCH  15  16
ENDBRANCH   6  14
BRANCH   1  22
ATOM     22  C   UNL     1       0.549   3.235  18.964  0.00  0.00    +0.000 C 
BRANCH  22  24
ATOM     23  C   UNL     1       1.263   3.203  21.401  0.00  0.00    +0.000 C 
ATOM     24  C   UNL     1       0.567   3.724  20.381  0.00  0.00    +0.000 C 
ENDBRANCH  22  24
ENDBRANCH   1  22
TORSDOF 5
ENDMDL
MODEL 6
REMARK VINA RESULT:      -5.5      9.128     12.452
REMARK  Name = 
REMARK  5 active torsions:
REMARK  status: ('A' for Active; 'I' for Inactive)
REMARK    1  A    between atoms: C_2  and  C_3
REMARK    2  A    between atoms: C_3  and  N_4
REMARK    3  A    between atoms: C_8  and  C_9
REMARK    4  A    between atoms: N_16  and  N_17
REMARK    5  A    between atoms: C_18  and  C_19
REMARK                            x       y       z     vdW  Elec       q    Type
REMARK                         _______ _______ _______ _____ _____    ______ ____
ROOT
ATOM      1  N   UNL     1      -7.188  11.136  21.307  0.00  0.00    +0.000 NA
ATOM      2  C   UNL     1      -6.661  12.298  21.385  0.00  0.00    +0.000 A 
ATOM      3  S   UNL     1      -6.925  13.121  22.977  0.00  0.00    +0.000 S 
ATOM      4  C   UNL     1      -6.264  14.604  22.365  0.00  0.00    +0.000 A 
ATOM      5  C   UNL     1      -5.804  14.467  21.110  0.00  0.00    +0.000 A 
ATOM      6  N   UNL     1      -5.929  13.184  20.550  0.00  0.00    +0.000 N 
ENDROOT
BRANCH   5   7
ATOM      7  C   UNL     1      -5.218  15.610  20.404  0.00  0.00    +0.000 A 
ATOM      8  C   UNL     1      -6.051  16.390  19.583  0.00  0.00    +0.000 A 
ATOM      9  C   UNL     1      -5.574  17.556  18.986  0.00  0.00    +0.000 A 
ATOM     10  C   UNL     1      -4.256  17.964  19.198  0.00  0.00    +0.000 A 
ATOM     11  C   UNL     1      -3.413  17.195  19.999  0.00  0.00    +0.000 A 
ATOM     12  C   UNL     1      -3.889  16.022  20.598  0.00  0.00    +0.000 A 
ATOM     13 BR   UNL     1      -2.678  15.048  21.696  0.00  0.00    +0.000 Br
ENDBRANCH   5   7
BRANCH   6  14
ATOM     14  N   UNL     1      -5.362  12.891  19.316  0.00  0.00    +0.000 NA
ATOM     15  C   UNL     1      -4.336  12.098  19.388  0.00  0.00    +0.000 C 
BRANCH  15  16
ATOM     16  C   UNL     1      -3.650  11.508  18.227  0.00  0.00    +0.000 A 
ATOM     17  C   UNL     1      -2.431  10.862  18.331  0.00  0.00    +0.000 A 
ATOM     18  C   UNL     1      -1.925  10.260  17.179  0.00  0.00    +0.000 A 
ATOM     19  C   UNL     1      -2.623  10.369  15.977  0.00  0.00    +0.000 A 
ATOM     20  C   UNL     1      -3.808  11.085  15.967  0.00  0.00    +0.000 A 
ATOM     21  N   UNL     1      -4.347  11.642  17.070  0.00  0.00    +0.000 NA
ENDBRANCH  15  16
ENDBRANCH   6  14
BRANCH   1  22
ATOM     22  C   UNL     1      -7.177  10.387  20.066  0.00  0.00    +0.000 C 
BRANCH  22  24
ATOM     23  C   UNL     1      -7.916   8.367  21.415  0.00  0.00    +0.000 C 
ATOM     24  C   UNL     1      -7.699   8.995  20.251  0.00  0.00    +0.000 C 
ENDBRANCH  22  24
ENDBRANCH   1  22
TORSDOF 5
ENDMDL
MODEL 7
REMARK VINA RESULT:      -5.5      0.848      1.149
REMARK  Name = 
REMARK  5 active torsions:
REMARK  status: ('A' for Active; 'I' for Inactive)
REMARK    1  A    between atoms: C_2  and  C_3
REMARK    2  A    between atoms: C_3  and  N_4
REMARK    3  A    between atoms: C_8  and  C_9
REMARK    4  A    between atoms: N_16  and  N_17
REMARK    5  A    between atoms: C_18  and  C_19
REMARK                            x       y       z     vdW  Elec       q    Type
REMARK                         _______ _______ _______ _____ _____    ______ ____
ROOT
ATOM      1  N   UNL     1       2.864   2.670  19.792  0.00  0.00    +0.000 NA
ATOM      2  C   UNL     1       3.756   3.305  19.132  0.00  0.00    +0.000 A 
ATOM      3  S   UNL     1       4.622   2.292  17.905  0.00  0.00    +0.000 S 
ATOM      4  C   UNL     1       5.763   3.564  17.602  0.00  0.00    +0.000 A 
ATOM      5  C   UNL     1       5.465   4.677  18.293  0.00  0.00    +0.000 A 
ATOM      6  N   UNL     1       4.314   4.610  19.096  0.00  0.00    +0.000 N 
ENDROOT
BRANCH   5   7
ATOM      7  C   UNL     1       6.316   5.867  18.189  0.00  0.00    +0.000 A 
ATOM      8  C   UNL     1       7.403   5.993  19.073  0.00  0.00    +0.000 A 
ATOM      9  C   UNL     1       8.313   7.041  18.938  0.00  0.00    +0.000 A 
ATOM     10  C   UNL     1       8.154   7.981  17.919  0.00  0.00    +0.000 A 
ATOM     11  C   UNL     1       7.075   7.877  17.043  0.00  0.00    +0.000 A 
ATOM     12  C   UNL     1       6.159   6.828  17.176  0.00  0.00    +0.000 A 
ATOM     13 BR   UNL     1       4.730   6.748  15.922  0.00  0.00    +0.000 Br
ENDBRANCH   5   7
BRANCH   6  14
ATOM     14  N   UNL     1       3.833   5.742  19.743  0.00  0.00    +0.000 NA
ATOM     15  C   UNL     1       2.934   6.388  19.062  0.00  0.00    +0.000 C 
BRANCH  15  16
ATOM     16  C   UNL     1       2.153   7.525  19.576  0.00  0.00    +0.000 A 
ATOM     17  C   UNL     1       1.836   8.624  18.797  0.00  0.00    +0.000 A 
ATOM     18  C   UNL     1       1.010   9.594  19.365  0.00  0.00    +0.000 A 
ATOM     19  C   UNL     1       0.581   9.454  20.684  0.00  0.00    +0.000 A 
ATOM     20  C   UNL     1       1.000   8.343  21.397  0.00  0.00    +0.000 A 
ATOM     21  N   UNL     1       1.762   7.366  20.867  0.00  0.00    +0.000 NA
ENDBRANCH  15  16
ENDBRANCH   6  14
BRANCH   1  22
ATOM     22  C   UNL     1       2.159   3.293  20.895  0.00  0.00    +0.000 C 
BRANCH  22  24
ATOM     23  C   UNL     1       0.036   3.338  19.503  0.00  0.00    +0.000 C 
ATOM     24  C   UNL     1       0.822   3.822  20.474  0.00  0.00    +0.000 C 
ENDBRANCH  22  24
ENDBRANCH   1  22
TORSDOF 5
ENDMDL
MODEL 8
REMARK VINA RESULT:      -5.5      8.273     12.021
REMARK  Name = 
REMARK  5 active torsions:
REMARK  status: ('A' for Active; 'I' for Inactive)
REMARK    1  A    between atoms: C_2  and  C_3
REMARK    2  A    between atoms: C_3  and  N_4
REMARK    3  A    between atoms: C_8  and  C_9
REMARK    4  A    between atoms: N_16  and  N_17
REMARK    5  A    between atoms: C_18  and  C_19
REMARK                            x       y       z     vdW  Elec       q    Type
REMARK                         _______ _______ _______ _____ _____    ______ ____
ROOT
ATOM      1  N   UNL     1      -0.286  12.819  22.818  0.00  0.00    +0.000 NA
ATOM      2  C   UNL     1      -1.410  13.386  23.043  0.00  0.00    +0.000 A 
ATOM      3  S   UNL     1      -1.316  14.765  24.214  0.00  0.00    +0.000 S 
ATOM      4  C   UNL     1      -3.046  14.883  24.274  0.00  0.00    +0.000 A 
ATOM      5  C   UNL     1      -3.635  14.026  23.424  0.00  0.00    +0.000 A 
ATOM      6  N   UNL     1      -2.767  13.227  22.659  0.00  0.00    +0.000 N 
ENDROOT
BRANCH   5   7
ATOM      7  C   UNL     1      -5.097  13.957  23.332  0.00  0.00    +0.000 A 
ATOM      8  C   UNL     1      -5.774  13.001  24.111  0.00  0.00    +0.000 A 
ATOM      9  C   UNL     1      -7.168  12.974  24.153  0.00  0.00    +0.000 A 
ATOM     10  C   UNL     1      -7.910  13.899  23.419  0.00  0.00    +0.000 A 
ATOM     11  C   UNL     1      -7.254  14.845  22.633  0.00  0.00    +0.000 A 
ATOM     12  C   UNL     1      -5.856  14.875  22.586  0.00  0.00    +0.000 A 
ATOM     13 BR   UNL     1      -5.044  16.215  21.506  0.00  0.00    +0.000 Br
ENDBRANCH   5   7
BRANCH   6  14
ATOM     14  N   UNL     1      -3.260  12.409  21.651  0.00  0.00    +0.000 NA
ATOM     15  C   UNL     1      -3.187  12.939  20.467  0.00  0.00    +0.000 C 
BRANCH  15  16
ATOM     16  C   UNL     1      -3.492  12.231  19.212  0.00  0.00    +0.000 A 
ATOM     17  C   UNL     1      -4.787  12.003  18.782  0.00  0.00    +0.000 A 
ATOM     18  C   UNL     1      -4.951  11.407  17.531  0.00  0.00    +0.000 A 
ATOM     19  C   UNL     1      -3.831  11.024  16.795  0.00  0.00    +0.000 A 
ATOM     20  C   UNL     1      -2.578  11.246  17.340  0.00  0.00    +0.000 A 
ATOM     21  N   UNL     1      -2.382  11.858  18.525  0.00  0.00    +0.000 NA
ENDBRANCH  15  16
ENDBRANCH   6  14
BRANCH   1  22
ATOM     22  C   UNL     1      -0.196  11.625  22.001  0.00  0.00    +0.000 C 
BRANCH  22  24
ATOM     23  C   UNL     1      -0.392   9.118  22.358  0.00  0.00    +0.000 C 
ATOM     24  C   UNL     1      -0.418  10.381  22.807  0.00  0.00    +0.000 C 
ENDBRANCH  22  24
ENDBRANCH   1  22
TORSDOF 5
ENDMDL
MODEL 9
REMARK VINA RESULT:      -5.4      7.930     11.289
REMARK  Name = 
REMARK  5 active torsions:
REMARK  status: ('A' for Active; 'I' for Inactive)
REMARK    1  A    between atoms: C_2  and  C_3
REMARK    2  A    between atoms: C_3  and  N_4
REMARK    3  A    between atoms: C_8  and  C_9
REMARK    4  A    between atoms: N_16  and  N_17
REMARK    5  A    between atoms: C_18  and  C_19
REMARK                            x       y       z     vdW  Elec       q    Type
REMARK                         _______ _______ _______ _____ _____    ______ ____
ROOT
ATOM      1  N   UNL     1       0.411  12.672  21.871  0.00  0.00    +0.000 NA
ATOM      2  C   UNL     1      -0.701  13.292  21.984  0.00  0.00    +0.000 A 
ATOM      3  S   UNL     1      -0.595  14.818  22.954  0.00  0.00    +0.000 S 
ATOM      4  C   UNL     1      -2.322  14.987  22.950  0.00  0.00    +0.000 A 
ATOM      5  C   UNL     1      -2.916  14.035  22.211  0.00  0.00    +0.000 A 
ATOM      6  N   UNL     1      -2.053  13.116  21.588  0.00  0.00    +0.000 N 
ENDROOT
BRANCH   5   7
ATOM      7  C   UNL     1      -4.376  13.990  22.089  0.00  0.00    +0.000 A 
ATOM      8  C   UNL     1      -4.974  14.592  20.967  0.00  0.00    +0.000 A 
ATOM      9  C   UNL     1      -6.344  14.474  20.740  0.00  0.00    +0.000 A 
ATOM     10  C   UNL     1      -7.142  13.753  21.628  0.00  0.00    +0.000 A 
ATOM     11  C   UNL     1      -6.568  13.160  22.751  0.00  0.00    +0.000 A 
ATOM     12  C   UNL     1      -5.193  13.279  22.984  0.00  0.00    +0.000 A 
ATOM     13 BR   UNL     1      -4.488  12.418  24.527  0.00  0.00    +0.000 Br
ENDBRANCH   5   7
BRANCH   6  14
ATOM     14  N   UNL     1      -2.545  12.178  20.690  0.00  0.00    +0.000 NA
ATOM     15  C   UNL     1      -2.287  12.460  19.448  0.00  0.00    +0.000 C 
BRANCH  15  16
ATOM     16  C   UNL     1      -2.556  11.562  18.313  0.00  0.00    +0.000 A 
ATOM     17  C   UNL     1      -1.640  10.623  17.873  0.00  0.00    +0.000 A 
ATOM     18  C   UNL     1      -2.044   9.764  16.850  0.00  0.00    +0.000 A 
ATOM     19  C   UNL     1      -3.309   9.910  16.284  0.00  0.00    +0.000 A 
ATOM     20  C   UNL     1      -4.131  10.918  16.758  0.00  0.00    +0.000 A 
ATOM     21  N   UNL     1      -3.789  11.737  17.773  0.00  0.00    +0.000 NA
ENDBRANCH  15  16
ENDBRANCH   6  14
BRANCH   1  22
ATOM     22  C   UNL     1       0.486  11.373  21.231  0.00  0.00    +0.000 C 
BRANCH  22  24
ATOM     23  C   UNL     1      -0.347   9.064  21.879  0.00  0.00    +0.000 C 
ATOM     24  C   UNL     1       0.168  10.262  22.185  0.00  0.00    +0.000 C 
ENDBRANCH  22  24
ENDBRANCH   1  22
TORSDOF 5
ENDMDL
