MODEL 1
REMARK VINA RESULT:      -7.1      0.000      0.000
REMARK  Name = 
REMARK  7 active torsions:
REMARK  status: ('A' for Active; 'I' for Inactive)
REMARK    1  A    between atoms: C_1  and  O_2
REMARK    2  A    between atoms: O_2  and  C_3
REMARK    3  A    between atoms: C_3  and  C_5
REMARK    4  A    between atoms: C_5  and  S_6
REMARK    5  A    between atoms: S_6  and  C_7
REMARK    6  A    between atoms: C_11  and  C_12
REMARK    7  A    between atoms: C_17  and  C_18
REMARK                            x       y       z     vdW  Elec       q    Type
REMARK                         _______ _______ _______ _____ _____    ______ ____
ROOT
ATOM      1  C   UNL     1       3.844   6.452  17.370  0.00  0.00    +0.000 A 
ATOM      2  N   UNL     1       3.407   7.718  17.551  0.00  0.00    +0.000 NA
ATOM      3  C   UNL     1       2.526   7.965  18.541  0.00  0.00    +0.000 A 
ATOM      4  C   UNL     1       2.052   6.968  19.407  0.00  0.00    +0.000 A 
ATOM      5  C   UNL     1       2.482   5.627  19.189  0.00  0.00    +0.000 A 
ATOM      6  C   UNL     1       3.384   5.374  18.127  0.00  0.00    +0.000 A 
ATOM      7  C   UNL     1       1.078   7.345  20.506  0.00  0.00    +0.000 C 
ATOM      8  C   UNL     1       1.022   8.836  20.833  0.00  0.00    +0.000 C 
ATOM      9  C   UNL     1       0.931   9.652  19.556  0.00  0.00    +0.000 C 
ATOM     10  C   UNL     1       2.181   9.420  18.721  0.00  0.00    +0.000 C 
ENDROOT
BRANCH   5  11
ATOM     11  C   UNL     1       2.054   4.530  20.079  0.00  0.00    +0.000 A 
ATOM     12  C   UNL     1       1.014   3.617  20.069  0.00  0.00    +0.000 A 
ATOM     13  C   UNL     1       1.168   2.794  21.211  0.00  0.00    +0.000 A 
ATOM     14  C   UNL     1       2.305   3.231  21.840  0.00  0.00    +0.000 A 
ATOM     15  O   UNL     1       2.822   4.302  21.188  0.00  0.00    +0.000 OA
ENDBRANCH   5  11
BRANCH   6  16
ATOM     16  C   UNL     1       3.843   4.051  17.809  0.00  0.00    +0.000 C 
ATOM     17  N   UNL     1       4.196   2.978  17.545  0.00  0.00    +0.000 NA
ENDBRANCH   6  16
BRANCH   1  18
ATOM     18  S   UNL     1       5.121   6.293  16.121  0.00  0.00    +0.000 S 
BRANCH  18  19
ATOM     19  C   UNL     1       6.596   6.363  17.195  0.00  0.00    +0.000 C 
BRANCH  19  20
ATOM     20  C   UNL     1       7.339   5.037  17.272  0.00  0.00    +0.000 C 
ATOM     21  O   UNL     1       7.851   4.431  16.338  0.00  0.00    +0.000 OA
BRANCH  20  23
ATOM     22  C   UNL     1       7.514   5.681  19.515  0.00  0.00    +0.000 C 
ATOM     23  O   UNL     1       7.380   4.616  18.573  0.00  0.00    +0.000 OA
ENDBRANCH  20  23
ENDBRANCH  19  20
ENDBRANCH  18  19
ENDBRANCH   1  18
TORSDOF 6
ENDMDL
MODEL 2
REMARK VINA RESULT:      -6.9      2.445      4.895
REMARK  Name = 
REMARK  7 active torsions:
REMARK  status: ('A' for Active; 'I' for Inactive)
REMARK    1  A    between atoms: C_1  and  O_2
REMARK    2  A    between atoms: O_2  and  C_3
REMARK    3  A    between atoms: C_3  and  C_5
REMARK    4  A    between atoms: C_5  and  S_6
REMARK    5  A    between atoms: S_6  and  C_7
REMARK    6  A    between atoms: C_11  and  C_12
REMARK    7  A    between atoms: C_17  and  C_18
REMARK                            x       y       z     vdW  Elec       q    Type
REMARK                         _______ _______ _______ _____ _____    ______ ____
ROOT
ATOM      1  C   UNL     1       5.414   4.438  17.055  0.00  0.00    +0.000 A 
ATOM      2  N   UNL     1       4.821   3.247  17.293  0.00  0.00    +0.000 NA
ATOM      3  C   UNL     1       3.599   3.233  17.862  0.00  0.00    +0.000 A 
ATOM      4  C   UNL     1       2.904   4.403  18.206  0.00  0.00    +0.000 A 
ATOM      5  C   UNL     1       3.548   5.655  17.992  0.00  0.00    +0.000 A 
ATOM      6  C   UNL     1       4.843   5.658  17.421  0.00  0.00    +0.000 A 
ATOM      7  C   UNL     1       1.524   4.288  18.824  0.00  0.00    +0.000 C 
ATOM      8  C   UNL     1       0.845   2.933  18.634  0.00  0.00    +0.000 C 
ATOM      9  C   UNL     1       1.813   1.808  18.957  0.00  0.00    +0.000 C 
ATOM     10  C   UNL     1       2.987   1.863  17.991  0.00  0.00    +0.000 C 
ENDROOT
BRANCH   5  11
ATOM     11  C   UNL     1       2.866   6.929  18.296  0.00  0.00    +0.000 A 
ATOM     12  C   UNL     1       2.445   8.013  17.545  0.00  0.00    +0.000 A 
ATOM     13  C   UNL     1       1.824   8.923  18.435  0.00  0.00    +0.000 A 
ATOM     14  C   UNL     1       1.877   8.336  19.673  0.00  0.00    +0.000 A 
ATOM     15  O   UNL     1       2.539   7.154  19.606  0.00  0.00    +0.000 OA
ENDBRANCH   5  11
BRANCH   6  16
ATOM     16  C   UNL     1       5.583   6.869  17.202  0.00  0.00    +0.000 C 
ATOM     17  N   UNL     1       6.164   7.857  17.023  0.00  0.00    +0.000 NA
ENDBRANCH   6  16
BRANCH   1  18
ATOM     18  S   UNL     1       6.963   4.316  16.160  0.00  0.00    +0.000 S 
BRANCH  18  19
ATOM     19  C   UNL     1       6.312   4.098  14.468  0.00  0.00    +0.000 C 
BRANCH  19  20
ATOM     20  C   UNL     1       7.206   4.716  13.403  0.00  0.00    +0.000 C 
ATOM     21  O   UNL     1       7.999   5.637  13.558  0.00  0.00    +0.000 OA
BRANCH  20  23
ATOM     22  C   UNL     1       5.822   3.277  12.183  0.00  0.00    +0.000 C 
ATOM     23  O   UNL     1       7.014   4.062  12.217  0.00  0.00    +0.000 OA
ENDBRANCH  20  23
ENDBRANCH  19  20
ENDBRANCH  18  19
ENDBRANCH   1  18
TORSDOF 6
ENDMDL
MODEL 3
REMARK VINA RESULT:      -6.9      2.193      4.597
REMARK  Name = 
REMARK  7 active torsions:
REMARK  status: ('A' for Active; 'I' for Inactive)
REMARK    1  A    between atoms: C_1  and  O_2
REMARK    2  A    between atoms: O_2  and  C_3
REMARK    3  A    between atoms: C_3  and  C_5
REMARK    4  A    between atoms: C_5  and  S_6
REMARK    5  A    between atoms: S_6  and  C_7
REMARK    6  A    between atoms: C_11  and  C_12
REMARK    7  A    between atoms: C_17  and  C_18
REMARK                            x       y       z     vdW  Elec       q    Type
REMARK                         _______ _______ _______ _____ _____    ______ ____
ROOT
ATOM      1  C   UNL     1       5.416   4.651  18.249  0.00  0.00    +0.000 A 
ATOM      2  N   UNL     1       4.997   3.625  19.023  0.00  0.00    +0.000 NA
ATOM      3  C   UNL     1       3.834   3.751  19.692  0.00  0.00    +0.000 A 
ATOM      4  C   UNL     1       3.026   4.895  19.610  0.00  0.00    +0.000 A 
ATOM      5  C   UNL     1       3.489   5.990  18.826  0.00  0.00    +0.000 A 
ATOM      6  C   UNL     1       4.726   5.860  18.151  0.00  0.00    +0.000 A 
ATOM      7  C   UNL     1       1.723   4.937  20.385  0.00  0.00    +0.000 C 
ATOM      8  C   UNL     1       1.206   3.576  20.849  0.00  0.00    +0.000 C 
ATOM      9  C   UNL     1       2.330   2.775  21.483  0.00  0.00    +0.000 C 
ATOM     10  C   UNL     1       3.410   2.516  20.444  0.00  0.00    +0.000 C 
ENDROOT
BRANCH   5  11
ATOM     11  C   UNL     1       2.678   7.213  18.664  0.00  0.00    +0.000 A 
ATOM     12  C   UNL     1       2.200   7.929  17.580  0.00  0.00    +0.000 A 
ATOM     13  C   UNL     1       1.451   9.017  18.093  0.00  0.00    +0.000 A 
ATOM     14  C   UNL     1       1.492   8.892  19.458  0.00  0.00    +0.000 A 
ATOM     15  O   UNL     1       2.262   7.833  19.811  0.00  0.00    +0.000 OA
ENDBRANCH   5  11
BRANCH   6  16
ATOM     16  C   UNL     1       5.290   6.924  17.369  0.00  0.00    +0.000 C 
ATOM     17  N   UNL     1       5.762   7.782  16.748  0.00  0.00    +0.000 NA
ENDBRANCH   6  16
BRANCH   1  18
ATOM     18  S   UNL     1       6.895   4.292  17.302  0.00  0.00    +0.000 S 
BRANCH  18  19
ATOM     19  C   UNL     1       6.122   3.731  15.746  0.00  0.00    +0.000 C 
BRANCH  19  20
ATOM     20  C   UNL     1       6.664   4.450  14.519  0.00  0.00    +0.000 C 
ATOM     21  O   UNL     1       7.544   5.302  14.500  0.00  0.00    +0.000 OA
BRANCH  20  23
ATOM     22  C   UNL     1       6.888   3.847  12.269  0.00  0.00    +0.000 C 
ATOM     23  O   UNL     1       6.029   3.980  13.402  0.00  0.00    +0.000 OA
ENDBRANCH  20  23
ENDBRANCH  19  20
ENDBRANCH  18  19
ENDBRANCH   1  18
TORSDOF 6
ENDMDL
MODEL 4
REMARK VINA RESULT:      -6.7      0.986      1.043
REMARK  Name = 
REMARK  7 active torsions:
REMARK  status: ('A' for Active; 'I' for Inactive)
REMARK    1  A    between atoms: C_1  and  O_2
REMARK    2  A    between atoms: O_2  and  C_3
REMARK    3  A    between atoms: C_3  and  C_5
REMARK    4  A    between atoms: C_5  and  S_6
REMARK    5  A    between atoms: S_6  and  C_7
REMARK    6  A    between atoms: C_11  and  C_12
REMARK    7  A    between atoms: C_17  and  C_18
REMARK                            x       y       z     vdW  Elec       q    Type
REMARK                         _______ _______ _______ _____ _____    ______ ____
ROOT
ATOM      1  C   UNL     1       4.014   6.193  17.201  0.00  0.00    +0.000 A 
ATOM      2  N   UNL     1       3.620   7.481  17.300  0.00  0.00    +0.000 NA
ATOM      3  C   UNL     1       2.727   7.815  18.253  0.00  0.00    +0.000 A 
ATOM      4  C   UNL     1       2.197   6.885  19.161  0.00  0.00    +0.000 A 
ATOM      5  C   UNL     1       2.582   5.520  19.028  0.00  0.00    +0.000 A 
ATOM      6  C   UNL     1       3.497   5.176  18.005  0.00  0.00    +0.000 A 
ATOM      7  C   UNL     1       1.211   7.358  20.212  0.00  0.00    +0.000 C 
ATOM      8  C   UNL     1       1.204   8.866  20.455  0.00  0.00    +0.000 C 
ATOM      9  C   UNL     1       1.173   9.612  19.132  0.00  0.00    +0.000 C 
ATOM     10  C   UNL     1       2.432   9.290  18.343  0.00  0.00    +0.000 C 
ENDROOT
BRANCH   5  11
ATOM     11  C   UNL     1       2.093   4.491  19.966  0.00  0.00    +0.000 A 
ATOM     12  C   UNL     1       1.000   3.642  19.999  0.00  0.00    +0.000 A 
ATOM     13  C   UNL     1       1.110   2.862  21.176  0.00  0.00    +0.000 A 
ATOM     14  C   UNL     1       2.273   3.259  21.784  0.00  0.00    +0.000 A 
ATOM     15  O   UNL     1       2.850   4.267  21.084  0.00  0.00    +0.000 OA
ENDBRANCH   5  11
BRANCH   6  16
ATOM     16  C   UNL     1       3.915   3.822  17.772  0.00  0.00    +0.000 C 
ATOM     17  N   UNL     1       4.261   2.728  17.602  0.00  0.00    +0.000 NA
ENDBRANCH   6  16
BRANCH   1  18
ATOM     18  S   UNL     1       5.313   5.918  15.995  0.00  0.00    +0.000 S 
BRANCH  18  19
ATOM     19  C   UNL     1       6.721   5.665  17.129  0.00  0.00    +0.000 C 
BRANCH  19  20
ATOM     20  C   UNL     1       7.385   6.968  17.553  0.00  0.00    +0.000 C 
ATOM     21  O   UNL     1       7.296   8.052  16.987  0.00  0.00    +0.000 OA
BRANCH  20  23
ATOM     22  C   UNL     1       7.607   5.672  19.488  0.00  0.00    +0.000 C 
ATOM     23  O   UNL     1       8.095   6.761  18.703  0.00  0.00    +0.000 OA
ENDBRANCH  20  23
ENDBRANCH  19  20
ENDBRANCH  18  19
ENDBRANCH   1  18
TORSDOF 6
ENDMDL
MODEL 5
REMARK VINA RESULT:      -6.6      0.950      1.549
REMARK  Name = 
REMARK  7 active torsions:
REMARK  status: ('A' for Active; 'I' for Inactive)
REMARK    1  A    between atoms: C_1  and  O_2
REMARK    2  A    between atoms: O_2  and  C_3
REMARK    3  A    between atoms: C_3  and  C_5
REMARK    4  A    between atoms: C_5  and  S_6
REMARK    5  A    between atoms: S_6  and  C_7
REMARK    6  A    between atoms: C_11  and  C_12
REMARK    7  A    between atoms: C_17  and  C_18
REMARK                            x       y       z     vdW  Elec       q    Type
REMARK                         _______ _______ _______ _____ _____    ______ ____
ROOT
ATOM      1  C   UNL     1       3.635   6.752  17.522  0.00  0.00    +0.000 A 
ATOM      2  N   UNL     1       3.115   7.970  17.788  0.00  0.00    +0.000 NA
ATOM      3  C   UNL     1       2.274   8.102  18.833  0.00  0.00    +0.000 A 
ATOM      4  C   UNL     1       1.925   7.033  19.671  0.00  0.00    +0.000 A 
ATOM      5  C   UNL     1       2.442   5.742  19.365  0.00  0.00    +0.000 A 
ATOM      6  C   UNL     1       3.300   5.608  18.248  0.00  0.00    +0.000 A 
ATOM      7  C   UNL     1       0.986   7.283  20.836  0.00  0.00    +0.000 C 
ATOM      8  C   UNL     1       0.836   8.749  21.239  0.00  0.00    +0.000 C 
ATOM      9  C   UNL     1       0.615   9.613  20.010  0.00  0.00    +0.000 C 
ATOM     10  C   UNL     1       1.831   9.517  19.101  0.00  0.00    +0.000 C 
ENDROOT
BRANCH   5  11
ATOM     11  C   UNL     1       2.146   4.576  20.221  0.00  0.00    +0.000 A 
ATOM     12  C   UNL     1       2.598   4.129  21.451  0.00  0.00    +0.000 A 
ATOM     13  C   UNL     1       1.898   2.935  21.747  0.00  0.00    +0.000 A 
ATOM     14  C   UNL     1       1.040   2.731  20.697  0.00  0.00    +0.000 A 
ATOM     15  O   UNL     1       1.212   3.691  19.755  0.00  0.00    +0.000 OA
ENDBRANCH   5  11
BRANCH   6  16
ATOM     16  C   UNL     1       3.839   4.340  17.842  0.00  0.00    +0.000 C 
ATOM     17  N   UNL     1       4.265   3.318  17.496  0.00  0.00    +0.000 NA
ENDBRANCH   6  16
BRANCH   1  18
ATOM     18  S   UNL     1       4.850   6.749  16.203  0.00  0.00    +0.000 S 
BRANCH  18  19
ATOM     19  C   UNL     1       6.369   6.561  17.200  0.00  0.00    +0.000 C 
BRANCH  19  20
ATOM     20  C   UNL     1       7.288   5.464  16.682  0.00  0.00    +0.000 C 
ATOM     21  O   UNL     1       7.781   4.554  17.337  0.00  0.00    +0.000 OA
BRANCH  20  23
ATOM     22  C   UNL     1       7.004   4.525  14.557  0.00  0.00    +0.000 C 
ATOM     23  O   UNL     1       7.472   5.627  15.336  0.00  0.00    +0.000 OA
ENDBRANCH  20  23
ENDBRANCH  19  20
ENDBRANCH  18  19
ENDBRANCH   1  18
TORSDOF 6
ENDMDL
MODEL 6
REMARK VINA RESULT:      -6.4      1.239      1.582
REMARK  Name = 
REMARK  7 active torsions:
REMARK  status: ('A' for Active; 'I' for Inactive)
REMARK    1  A    between atoms: C_1  and  O_2
REMARK    2  A    between atoms: O_2  and  C_3
REMARK    3  A    between atoms: C_3  and  C_5
REMARK    4  A    between atoms: C_5  and  S_6
REMARK    5  A    between atoms: S_6  and  C_7
REMARK    6  A    between atoms: C_11  and  C_12
REMARK    7  A    between atoms: C_17  and  C_18
REMARK                            x       y       z     vdW  Elec       q    Type
REMARK                         _______ _______ _______ _____ _____    ______ ____
ROOT
ATOM      1  C   UNL     1       4.302   5.085  17.039  0.00  0.00    +0.000 A 
ATOM      2  N   UNL     1       4.042   6.410  16.982  0.00  0.00    +0.000 NA
ATOM      3  C   UNL     1       3.195   6.943  17.885  0.00  0.00    +0.000 A 
ATOM      4  C   UNL     1       2.581   6.188  18.895  0.00  0.00    +0.000 A 
ATOM      5  C   UNL     1       2.825   4.785  18.928  0.00  0.00    +0.000 A 
ATOM      6  C   UNL     1       3.692   4.229  17.957  0.00  0.00    +0.000 A 
ATOM      7  C   UNL     1       1.658   6.880  19.879  0.00  0.00    +0.000 C 
ATOM      8  C   UNL     1       1.805   8.399  19.940  0.00  0.00    +0.000 C 
ATOM      9  C   UNL     1       1.838   8.981  18.537  0.00  0.00    +0.000 C 
ATOM     10  C   UNL     1       3.052   8.441  17.797  0.00  0.00    +0.000 C 
ENDROOT
BRANCH   5  11
ATOM     11  C   UNL     1       2.242   3.930  19.981  0.00  0.00    +0.000 A 
ATOM     12  C   UNL     1       2.608   3.586  21.271  0.00  0.00    +0.000 A 
ATOM     13  C   UNL     1       1.600   2.732  21.780  0.00  0.00    +0.000 A 
ATOM     14  C   UNL     1       0.663   2.621  20.785  0.00  0.00    +0.000 A 
ATOM     15  O   UNL     1       1.061   3.305  19.684  0.00  0.00    +0.000 OA
ENDBRANCH   5  11
BRANCH   6  16
ATOM     16  C   UNL     1       3.968   2.822  17.890  0.00  0.00    +0.000 C 
ATOM     17  N   UNL     1       4.199   1.685  17.854  0.00  0.00    +0.000 NA
ENDBRANCH   6  16
BRANCH   1  18
ATOM     18  S   UNL     1       5.556   4.538  15.879  0.00  0.00    +0.000 S 
BRANCH  18  19
ATOM     19  C   UNL     1       6.913   5.662  16.359  0.00  0.00    +0.000 C 
BRANCH  19  20
ATOM     20  C   UNL     1       7.432   5.401  17.766  0.00  0.00    +0.000 C 
ATOM     21  O   UNL     1       7.529   4.313  18.320  0.00  0.00    +0.000 OA
BRANCH  20  23
ATOM     22  C   UNL     1       7.536   7.726  17.519  0.00  0.00    +0.000 C 
ATOM     23  O   UNL     1       7.809   6.587  18.335  0.00  0.00    +0.000 OA
ENDBRANCH  20  23
ENDBRANCH  19  20
ENDBRANCH  18  19
ENDBRANCH   1  18
TORSDOF 6
ENDMDL
MODEL 7
REMARK VINA RESULT:      -6.3      2.018      2.656
REMARK  Name = 
REMARK  7 active torsions:
REMARK  status: ('A' for Active; 'I' for Inactive)
REMARK    1  A    between atoms: C_1  and  O_2
REMARK    2  A    between atoms: O_2  and  C_3
REMARK    3  A    between atoms: C_3  and  C_5
REMARK    4  A    between atoms: C_5  and  S_6
REMARK    5  A    between atoms: S_6  and  C_7
REMARK    6  A    between atoms: C_11  and  C_12
REMARK    7  A    between atoms: C_17  and  C_18
REMARK                            x       y       z     vdW  Elec       q    Type
REMARK                         _______ _______ _______ _____ _____    ______ ____
ROOT
ATOM      1  C   UNL     1       4.312   4.460  17.101  0.00  0.00    +0.000 A 
ATOM      2  N   UNL     1       4.145   5.792  16.944  0.00  0.00    +0.000 NA
ATOM      3  C   UNL     1       3.343   6.451  17.804  0.00  0.00    +0.000 A 
ATOM      4  C   UNL     1       2.684   5.820  18.869  0.00  0.00    +0.000 A 
ATOM      5  C   UNL     1       2.829   4.410  19.009  0.00  0.00    +0.000 A 
ATOM      6  C   UNL     1       3.649   3.722  18.083  0.00  0.00    +0.000 A 
ATOM      7  C   UNL     1       1.818   6.649  19.798  0.00  0.00    +0.000 C 
ATOM      8  C   UNL     1       2.072   8.154  19.742  0.00  0.00    +0.000 C 
ATOM      9  C   UNL     1       2.137   8.623  18.299  0.00  0.00    +0.000 C 
ATOM     10  C   UNL     1       3.305   7.944  17.601  0.00  0.00    +0.000 C 
ENDROOT
BRANCH   5  11
ATOM     11  C   UNL     1       2.195   3.681  20.125  0.00  0.00    +0.000 A 
ATOM     12  C   UNL     1       0.904   3.270  20.413  0.00  0.00    +0.000 A 
ATOM     13  C   UNL     1       0.949   2.582  21.649  0.00  0.00    +0.000 A 
ATOM     14  C   UNL     1       2.264   2.588  22.037  0.00  0.00    +0.000 A 
ATOM     15  O   UNL     1       3.015   3.283  21.146  0.00  0.00    +0.000 OA
ENDBRANCH   5  11
BRANCH   6  16
ATOM     16  C   UNL     1       3.826   2.297  18.123  0.00  0.00    +0.000 C 
ATOM     17  N   UNL     1       3.974   1.148  18.175  0.00  0.00    +0.000 NA
ENDBRANCH   6  16
BRANCH   1  18
ATOM     18  S   UNL     1       5.517   3.739  15.986  0.00  0.00    +0.000 S 
BRANCH  18  19
ATOM     19  C   UNL     1       6.137   5.264  15.195  0.00  0.00    +0.000 C 
BRANCH  19  20
ATOM     20  C   UNL     1       7.049   4.989  14.007  0.00  0.00    +0.000 C 
ATOM     21  O   UNL     1       8.041   5.630  13.684  0.00  0.00    +0.000 OA
BRANCH  20  23
ATOM     22  C   UNL     1       6.944   3.863  11.958  0.00  0.00    +0.000 C 
ATOM     23  O   UNL     1       6.606   3.876  13.346  0.00  0.00    +0.000 OA
ENDBRANCH  20  23
ENDBRANCH  19  20
ENDBRANCH  18  19
ENDBRANCH   1  18
TORSDOF 6
ENDMDL
MODEL 8
REMARK VINA RESULT:      -6.2      2.491      4.850
REMARK  Name = 
REMARK  7 active torsions:
REMARK  status: ('A' for Active; 'I' for Inactive)
REMARK    1  A    between atoms: C_1  and  O_2
REMARK    2  A    between atoms: O_2  and  C_3
REMARK    3  A    between atoms: C_3  and  C_5
REMARK    4  A    between atoms: C_5  and  S_6
REMARK    5  A    between atoms: S_6  and  C_7
REMARK    6  A    between atoms: C_11  and  C_12
REMARK    7  A    between atoms: C_17  and  C_18
REMARK                            x       y       z     vdW  Elec       q    Type
REMARK                         _______ _______ _______ _____ _____    ______ ____
ROOT
ATOM      1  C   UNL     1       5.243   4.407  17.066  0.00  0.00    +0.000 A 
ATOM      2  N   UNL     1       4.659   3.218  17.332  0.00  0.00    +0.000 NA
ATOM      3  C   UNL     1       3.463   3.207  17.953  0.00  0.00    +0.000 A 
ATOM      4  C   UNL     1       2.784   4.378  18.322  0.00  0.00    +0.000 A 
ATOM      5  C   UNL     1       3.420   5.629  18.078  0.00  0.00    +0.000 A 
ATOM      6  C   UNL     1       4.690   5.628  17.453  0.00  0.00    +0.000 A 
ATOM      7  C   UNL     1       1.432   4.266  18.999  0.00  0.00    +0.000 C 
ATOM      8  C   UNL     1       0.743   2.911  18.841  0.00  0.00    +0.000 C 
ATOM      9  C   UNL     1       1.723   1.786  19.126  0.00  0.00    +0.000 C 
ATOM     10  C   UNL     1       2.855   1.837  18.111  0.00  0.00    +0.000 C 
ENDROOT
BRANCH   5  11
ATOM     11  C   UNL     1       2.753   6.904  18.408  0.00  0.00    +0.000 A 
ATOM     12  C   UNL     1       2.306   7.496  19.576  0.00  0.00    +0.000 A 
ATOM     13  C   UNL     1       1.766   8.758  19.227  0.00  0.00    +0.000 A 
ATOM     14  C   UNL     1       1.936   8.878  17.872  0.00  0.00    +0.000 A 
ATOM     15  O   UNL     1       2.492   7.750  17.364  0.00  0.00    +0.000 OA
ENDBRANCH   5  11
BRANCH   6  16
ATOM     16  C   UNL     1       5.422   6.837  17.200  0.00  0.00    +0.000 C 
ATOM     17  N   UNL     1       6.001   7.824  17.010  0.00  0.00    +0.000 NA
ENDBRANCH   6  16
BRANCH   1  18
ATOM     18  S   UNL     1       6.753   4.280  16.108  0.00  0.00    +0.000 S 
BRANCH  18  19
ATOM     19  C   UNL     1       6.034   3.915  14.469  0.00  0.00    +0.000 C 
BRANCH  19  20
ATOM     20  C   UNL     1       6.909   4.387  13.317  0.00  0.00    +0.000 C 
ATOM     21  O   UNL     1       6.899   3.961  12.168  0.00  0.00    +0.000 OA
BRANCH  20  23
ATOM     22  C   UNL     1       8.572   5.926  12.733  0.00  0.00    +0.000 C 
ATOM     23  O   UNL     1       7.717   5.402  13.750  0.00  0.00    +0.000 OA
ENDBRANCH  20  23
ENDBRANCH  19  20
ENDBRANCH  18  19
ENDBRANCH   1  18
TORSDOF 6
ENDMDL
MODEL 9
REMARK VINA RESULT:      -6.1      1.607      4.152
REMARK  Name = 
REMARK  7 active torsions:
REMARK  status: ('A' for Active; 'I' for Inactive)
REMARK    1  A    between atoms: C_1  and  O_2
REMARK    2  A    between atoms: O_2  and  C_3
REMARK    3  A    between atoms: C_3  and  C_5
REMARK    4  A    between atoms: C_5  and  S_6
REMARK    5  A    between atoms: S_6  and  C_7
REMARK    6  A    between atoms: C_11  and  C_12
REMARK    7  A    between atoms: C_17  and  C_18
REMARK                            x       y       z     vdW  Elec       q    Type
REMARK                         _______ _______ _______ _____ _____    ______ ____
ROOT
ATOM      1  C   UNL     1       4.885   4.544  17.673  0.00  0.00    +0.000 A 
ATOM      2  N   UNL     1       4.580   3.544  18.529  0.00  0.00    +0.000 NA
ATOM      3  C   UNL     1       3.579   3.730  19.413  0.00  0.00    +0.000 A 
ATOM      4  C   UNL     1       2.826   4.913  19.475  0.00  0.00    +0.000 A 
ATOM      5  C   UNL     1       3.177   5.980  18.600  0.00  0.00    +0.000 A 
ATOM      6  C   UNL     1       4.249   5.786  17.696  0.00  0.00    +0.000 A 
ATOM      7  C   UNL     1       1.705   5.022  20.490  0.00  0.00    +0.000 C 
ATOM      8  C   UNL     1       1.226   3.691  21.066  0.00  0.00    +0.000 C 
ATOM      9  C   UNL     1       2.413   2.838  21.478  0.00  0.00    +0.000 C 
ATOM     10  C   UNL     1       3.254   2.521  20.250  0.00  0.00    +0.000 C 
ENDROOT
BRANCH   5  11
ATOM     11  C   UNL     1       2.409   7.241  18.583  0.00  0.00    +0.000 A 
ATOM     12  C   UNL     1       1.811   8.006  17.596  0.00  0.00    +0.000 A 
ATOM     13  C   UNL     1       1.198   9.110  18.235  0.00  0.00    +0.000 A 
ATOM     14  C   UNL     1       1.432   8.948  19.576  0.00  0.00    +0.000 A 
ATOM     15  O   UNL     1       2.195   7.848  19.791  0.00  0.00    +0.000 OA
ENDBRANCH   5  11
BRANCH   6  16
ATOM     16  C   UNL     1       4.697   6.817  16.803  0.00  0.00    +0.000 C 
ATOM     17  N   UNL     1       5.078   7.644  16.084  0.00  0.00    +0.000 NA
ENDBRANCH   6  16
BRANCH   1  18
ATOM     18  S   UNL     1       6.130   4.109  16.458  0.00  0.00    +0.000 S 
BRANCH  18  19
ATOM     19  C   UNL     1       7.628   4.309  17.483  0.00  0.00    +0.000 C 
BRANCH  19  20
ATOM     20  C   UNL     1       7.641   5.613  18.268  0.00  0.00    +0.000 C 
ATOM     21  O   UNL     1       7.492   5.740  19.478  0.00  0.00    +0.000 OA
BRANCH  20  23
ATOM     22  C   UNL     1       8.087   7.902  18.073  0.00  0.00    +0.000 C 
ATOM     23  O   UNL     1       7.875   6.654  17.412  0.00  0.00    +0.000 OA
ENDBRANCH  20  23
ENDBRANCH  19  20
ENDBRANCH  18  19
ENDBRANCH   1  18
TORSDOF 6
ENDMDL
