MODEL 1
REMARK VINA RESULT:      -7.9      0.000      0.000
REMARK  Name = 
REMARK  9 active torsions:
REMARK  status: ('A' for Active; 'I' for Inactive)
REMARK    1  A    between atoms: C_1  and  C_2
REMARK    2  A    between atoms: C_2  and  C_3
REMARK    3  A    between atoms: C_6  and  C_7
REMARK    4  A    between atoms: C_7  and  C_8
REMARK    5  A    between atoms: C_11  and  C_12
REMARK    6  A    between atoms: C_12  and  C_13
REMARK    7  A    between atoms: C_17  and  C_18
REMARK    8  A    between atoms: N_20  and  C_21
REMARK    9  A    between atoms: C_21  and  C_22
REMARK                            x       y       z     vdW  Elec       q    Type
REMARK                         _______ _______ _______ _____ _____    ______ ____
ROOT
ATOM      1  C   UNL     1       3.127   7.100  18.017  0.00  0.00    +0.000 C 
ATOM      2  C   UNL     1       3.374   7.462  16.563  0.00  0.00    +0.000 C 
ATOM      3  C   UNL     1       4.510   7.553  17.546  0.00  0.00    +0.000 C 
ENDROOT
BRANCH   1   7
ATOM      4  C   UNL     1       0.458   9.627  20.377  0.00  0.00    +0.000 A 
ATOM      5  C   UNL     1       1.087   8.518  20.949  0.00  0.00    +0.000 A 
ATOM      6  C   UNL     1       1.992   7.762  20.208  0.00  0.00    +0.000 A 
ATOM      7  C   UNL     1       2.289   8.068  18.870  0.00  0.00    +0.000 A 
ATOM      8  C   UNL     1       1.646   9.188  18.308  0.00  0.00    +0.000 A 
ATOM      9  C   UNL     1       0.746   9.960  19.050  0.00  0.00    +0.000 A 
BRANCH   4  11
ATOM     10  C   UNL     1      -0.487   9.948  22.640  0.00  0.00    +0.000 C 
ATOM     11  C   UNL     1      -0.446  10.488  21.219  0.00  0.00    +0.000 C 
ENDBRANCH   4  11
ENDBRANCH   1   7
BRANCH   1  12
ATOM     12  C   UNL     1       2.859   5.651  18.424  0.00  0.00    +0.000 A 
ATOM     13  C   UNL     1       1.789   4.922  17.883  0.00  0.00    +0.000 A 
ATOM     14  C   UNL     1       1.306   3.772  18.513  0.00  0.00    +0.000 A 
ATOM     15  C   UNL     1       1.878   3.326  19.709  0.00  0.00    +0.000 A 
ATOM     16  C   UNL     1       3.019   3.968  20.192  0.00  0.00    +0.000 A 
ATOM     17  C   UNL     1       3.511   5.104  19.545  0.00  0.00    +0.000 A 
BRANCH  15  18
ATOM     18  C   UNL     1       1.235   2.209  20.488  0.00  0.00    +0.000 C 
ATOM     19  C   UNL     1       1.433   2.345  21.986  0.00  0.00    +0.000 C 
ENDBRANCH  15  18
ENDBRANCH   1  12
BRANCH   3  20
ATOM     20  C   UNL     1       5.660   6.615  17.378  0.00  0.00    +0.000 C 
ATOM     21  O   UNL     1       6.544   6.535  18.218  0.00  0.00    +0.000 OA
ATOM     22  N   UNL     1       5.607   5.834  16.244  0.00  0.00    +0.000 N 
ATOM     23  H   UNL     1       4.850   5.940  15.590  0.00  0.00    +0.000 HD
BRANCH  22  24
ATOM     24  C   UNL     1       6.606   4.822  15.987  0.00  0.00    +0.000 C 
BRANCH  24  25
ATOM     25  C   UNL     1       6.758   4.578  14.509  0.00  0.00    +0.000 A 
ATOM     26  C   UNL     1       7.664   5.342  13.760  0.00  0.00    +0.000 A 
ATOM     27  C   UNL     1       7.796   5.136  12.385  0.00  0.00    +0.000 A 
ATOM     28  C   UNL     1       7.019   4.171  11.748  0.00  0.00    +0.000 A 
ATOM     29  C   UNL     1       6.113   3.408  12.482  0.00  0.00    +0.000 A 
ATOM     30  C   UNL     1       5.981   3.610  13.857  0.00  0.00    +0.000 A 
ENDBRANCH  24  25
ENDBRANCH  22  24
ENDBRANCH   3  20
TORSDOF 7
ENDMDL
MODEL 2
REMARK VINA RESULT:      -7.9      4.257     10.294
REMARK  Name = 
REMARK  9 active torsions:
REMARK  status: ('A' for Active; 'I' for Inactive)
REMARK    1  A    between atoms: C_1  and  C_2
REMARK    2  A    between atoms: C_2  and  C_3
REMARK    3  A    between atoms: C_6  and  C_7
REMARK    4  A    between atoms: C_7  and  C_8
REMARK    5  A    between atoms: C_11  and  C_12
REMARK    6  A    between atoms: C_12  and  C_13
REMARK    7  A    between atoms: C_17  and  C_18
REMARK    8  A    between atoms: N_20  and  C_21
REMARK    9  A    between atoms: C_21  and  C_22
REMARK                            x       y       z     vdW  Elec       q    Type
REMARK                         _______ _______ _______ _____ _____    ______ ____
ROOT
ATOM      1  C   UNL     1       0.018   9.744  20.419  0.00  0.00    +0.000 C 
ATOM      2  C   UNL     1      -0.436   9.206  21.764  0.00  0.00    +0.000 C 
ATOM      3  C   UNL     1       0.352  10.487  21.714  0.00  0.00    +0.000 C 
ENDROOT
BRANCH   1   7
ATOM      4  C   UNL     1       2.966   7.458  18.147  0.00  0.00    +0.000 A 
ATOM      5  C   UNL     1       2.433   8.645  17.639  0.00  0.00    +0.000 A 
ATOM      6  C   UNL     1       1.549   9.404  18.402  0.00  0.00    +0.000 A 
ATOM      7  C   UNL     1       1.148   9.001  19.687  0.00  0.00    +0.000 A 
ATOM      8  C   UNL     1       1.693   7.802  20.184  0.00  0.00    +0.000 A 
ATOM      9  C   UNL     1       2.591   7.040  19.429  0.00  0.00    +0.000 A 
BRANCH   4  11
ATOM     10  C   UNL     1       3.756   5.202  17.509  0.00  0.00    +0.000 C 
ATOM     11  C   UNL     1       3.990   6.697  17.348  0.00  0.00    +0.000 C 
ENDBRANCH   4  11
ENDBRANCH   1   7
BRANCH   1  12
ATOM     12  C   UNL     1      -0.997  10.300  19.421  0.00  0.00    +0.000 A 
ATOM     13  C   UNL     1      -2.053   9.515  18.933  0.00  0.00    +0.000 A 
ATOM     14  C   UNL     1      -2.733   9.866  17.763  0.00  0.00    +0.000 A 
ATOM     15  C   UNL     1      -2.366  11.009  17.045  0.00  0.00    +0.000 A 
ATOM     16  C   UNL     1      -1.403  11.864  17.583  0.00  0.00    +0.000 A 
ATOM     17  C   UNL     1      -0.743  11.520  18.766  0.00  0.00    +0.000 A 
BRANCH  15  18
ATOM     18  C   UNL     1      -2.960  11.277  15.687  0.00  0.00    +0.000 C 
ATOM     19  C   UNL     1      -2.951  10.057  14.787  0.00  0.00    +0.000 C 
ENDBRANCH  15  18
ENDBRANCH   1  12
BRANCH   3  20
ATOM     20  C   UNL     1      -0.332  11.748  22.129  0.00  0.00    +0.000 C 
ATOM     21  O   UNL     1       0.180  12.842  21.941  0.00  0.00    +0.000 OA
ATOM     22  N   UNL     1      -1.581  11.572  22.683  0.00  0.00    +0.000 N 
ATOM     23  H   UNL     1      -1.954  10.646  22.808  0.00  0.00    +0.000 HD
BRANCH  22  24
ATOM     24  C   UNL     1      -2.399  12.703  23.057  0.00  0.00    +0.000 C 
BRANCH  24  25
ATOM     25  C   UNL     1      -3.622  12.796  22.184  0.00  0.00    +0.000 A 
ATOM     26  C   UNL     1      -4.890  12.945  22.765  0.00  0.00    +0.000 A 
ATOM     27  C   UNL     1      -6.032  13.012  21.964  0.00  0.00    +0.000 A 
ATOM     28  C   UNL     1      -5.917  12.921  20.579  0.00  0.00    +0.000 A 
ATOM     29  C   UNL     1      -4.662  12.769  19.991  0.00  0.00    +0.000 A 
ATOM     30  C   UNL     1      -3.519  12.705  20.789  0.00  0.00    +0.000 A 
ENDBRANCH  24  25
ENDBRANCH  22  24
ENDBRANCH   3  20
TORSDOF 7
ENDMDL
MODEL 3
REMARK VINA RESULT:      -7.9      0.374      1.056
REMARK  Name = 
REMARK  9 active torsions:
REMARK  status: ('A' for Active; 'I' for Inactive)
REMARK    1  A    between atoms: C_1  and  C_2
REMARK    2  A    between atoms: C_2  and  C_3
REMARK    3  A    between atoms: C_6  and  C_7
REMARK    4  A    between atoms: C_7  and  C_8
REMARK    5  A    between atoms: C_11  and  C_12
REMARK    6  A    between atoms: C_12  and  C_13
REMARK    7  A    between atoms: C_17  and  C_18
REMARK    8  A    between atoms: N_20  and  C_21
REMARK    9  A    between atoms: C_21  and  C_22
REMARK                            x       y       z     vdW  Elec       q    Type
REMARK                         _______ _______ _______ _____ _____    ______ ____
ROOT
ATOM      1  C   UNL     1       3.224   7.091  17.953  0.00  0.00    +0.000 C 
ATOM      2  C   UNL     1       3.475   7.485  16.509  0.00  0.00    +0.000 C 
ATOM      3  C   UNL     1       4.599   7.585  17.503  0.00  0.00    +0.000 C 
ENDROOT
BRANCH   1   7
ATOM      4  C   UNL     1       0.476   9.508  20.336  0.00  0.00    +0.000 A 
ATOM      5  C   UNL     1       1.125   8.403  20.892  0.00  0.00    +0.000 A 
ATOM      6  C   UNL     1       2.054   7.683  20.146  0.00  0.00    +0.000 A 
ATOM      7  C   UNL     1       2.356   8.022  18.817  0.00  0.00    +0.000 A 
ATOM      8  C   UNL     1       1.692   9.137  18.271  0.00  0.00    +0.000 A 
ATOM      9  C   UNL     1       0.767   9.873  19.018  0.00  0.00    +0.000 A 
BRANCH   4  11
ATOM     10  C   UNL     1      -0.954  11.526  20.385  0.00  0.00    +0.000 C 
ATOM     11  C   UNL     1      -0.457  10.332  21.185  0.00  0.00    +0.000 C 
ENDBRANCH   4  11
ENDBRANCH   1   7
BRANCH   1  12
ATOM     12  C   UNL     1       2.987   5.628  18.331  0.00  0.00    +0.000 A 
ATOM     13  C   UNL     1       1.892   4.909  17.830  0.00  0.00    +0.000 A 
ATOM     14  C   UNL     1       1.453   3.736  18.452  0.00  0.00    +0.000 A 
ATOM     15  C   UNL     1       2.095   3.259  19.598  0.00  0.00    +0.000 A 
ATOM     16  C   UNL     1       3.258   3.894  20.034  0.00  0.00    +0.000 A 
ATOM     17  C   UNL     1       3.707   5.052  19.395  0.00  0.00    +0.000 A 
BRANCH  15  18
ATOM     18  C   UNL     1       1.504   2.114  20.379  0.00  0.00    +0.000 C 
ATOM     19  C   UNL     1       1.346   2.426  21.855  0.00  0.00    +0.000 C 
ENDBRANCH  15  18
ENDBRANCH   1  12
BRANCH   3  20
ATOM     20  C   UNL     1       5.774   6.679  17.328  0.00  0.00    +0.000 C 
ATOM     21  O   UNL     1       6.537   6.439  18.252  0.00  0.00    +0.000 OA
ATOM     22  N   UNL     1       5.885   6.113  16.076  0.00  0.00    +0.000 N 
ATOM     23  H   UNL     1       5.222   6.344  15.355  0.00  0.00    +0.000 HD
BRANCH  22  24
ATOM     24  C   UNL     1       6.922   5.152  15.780  0.00  0.00    +0.000 C 
BRANCH  24  25
ATOM     25  C   UNL     1       6.848   4.705  14.344  0.00  0.00    +0.000 A 
ATOM     26  C   UNL     1       5.917   3.731  13.958  0.00  0.00    +0.000 A 
ATOM     27  C   UNL     1       5.855   3.296  12.633  0.00  0.00    +0.000 A 
ATOM     28  C   UNL     1       6.729   3.825  11.685  0.00  0.00    +0.000 A 
ATOM     29  C   UNL     1       7.662   4.791  12.058  0.00  0.00    +0.000 A 
ATOM     30  C   UNL     1       7.723   5.230  13.382  0.00  0.00    +0.000 A 
ENDBRANCH  24  25
ENDBRANCH  22  24
ENDBRANCH   3  20
TORSDOF 7
ENDMDL
MODEL 4
REMARK VINA RESULT:      -7.8      2.544      6.514
REMARK  Name = 
REMARK  9 active torsions:
REMARK  status: ('A' for Active; 'I' for Inactive)
REMARK    1  A    between atoms: C_1  and  C_2
REMARK    2  A    between atoms: C_2  and  C_3
REMARK    3  A    between atoms: C_6  and  C_7
REMARK    4  A    between atoms: C_7  and  C_8
REMARK    5  A    between atoms: C_11  and  C_12
REMARK    6  A    between atoms: C_12  and  C_13
REMARK    7  A    between atoms: C_17  and  C_18
REMARK    8  A    between atoms: N_20  and  C_21
REMARK    9  A    between atoms: C_21  and  C_22
REMARK                            x       y       z     vdW  Elec       q    Type
REMARK                         _______ _______ _______ _____ _____    ______ ____
ROOT
ATOM      1  C   UNL     1       5.676   6.022  17.196  0.00  0.00    +0.000 C 
ATOM      2  C   UNL     1       5.809   5.287  15.874  0.00  0.00    +0.000 C 
ATOM      3  C   UNL     1       6.049   4.540  17.158  0.00  0.00    +0.000 C 
ENDROOT
BRANCH   1   7
ATOM      4  C   UNL     1       8.566   9.006  18.547  0.00  0.00    +0.000 A 
ATOM      5  C   UNL     1       8.605   7.697  19.035  0.00  0.00    +0.000 A 
ATOM      6  C   UNL     1       7.726   6.735  18.544  0.00  0.00    +0.000 A 
ATOM      7  C   UNL     1       6.765   7.044  17.567  0.00  0.00    +0.000 A 
ATOM      8  C   UNL     1       6.738   8.366  17.086  0.00  0.00    +0.000 A 
ATOM      9  C   UNL     1       7.626   9.335  17.565  0.00  0.00    +0.000 A 
BRANCH   4  11
ATOM     10  C   UNL     1       9.360  11.336  18.309  0.00  0.00    +0.000 C 
ATOM     11  C   UNL     1       9.583  10.010  19.021  0.00  0.00    +0.000 C 
ENDBRANCH   4  11
ENDBRANCH   1   7
BRANCH   1  12
ATOM     12  C   UNL     1       4.308   6.487  17.695  0.00  0.00    +0.000 A 
ATOM     13  C   UNL     1       3.632   7.559  17.092  0.00  0.00    +0.000 A 
ATOM     14  C   UNL     1       2.602   8.230  17.758  0.00  0.00    +0.000 A 
ATOM     15  C   UNL     1       2.228   7.849  19.051  0.00  0.00    +0.000 A 
ATOM     16  C   UNL     1       2.805   6.709  19.612  0.00  0.00    +0.000 A 
ATOM     17  C   UNL     1       3.818   6.029  18.932  0.00  0.00    +0.000 A 
BRANCH  15  18
ATOM     18  C   UNL     1       1.262   8.692  19.841  0.00  0.00    +0.000 C 
ATOM     19  C   UNL     1       1.140   8.251  21.287  0.00  0.00    +0.000 C 
ENDBRANCH  15  18
ENDBRANCH   1  12
BRANCH   3  20
ATOM     20  C   UNL     1       5.096   3.450  17.525  0.00  0.00    +0.000 C 
ATOM     21  O   UNL     1       4.343   2.957  16.698  0.00  0.00    +0.000 OA
ATOM     22  N   UNL     1       5.177   3.029  18.834  0.00  0.00    +0.000 N 
ATOM     23  H   UNL     1       5.822   3.469  19.469  0.00  0.00    +0.000 HD
BRANCH  22  24
ATOM     24  C   UNL     1       4.377   1.927  19.316  0.00  0.00    +0.000 C 
BRANCH  24  25
ATOM     25  C   UNL     1       2.994   2.389  19.691  0.00  0.00    +0.000 A 
ATOM     26  C   UNL     1       1.925   2.201  18.804  0.00  0.00    +0.000 A 
ATOM     27  C   UNL     1       0.643   2.644  19.135  0.00  0.00    +0.000 A 
ATOM     28  C   UNL     1       0.421   3.285  20.352  0.00  0.00    +0.000 A 
ATOM     29  C   UNL     1       1.477   3.480  21.241  0.00  0.00    +0.000 A 
ATOM     30  C   UNL     1       2.759   3.036  20.913  0.00  0.00    +0.000 A 
ENDBRANCH  24  25
ENDBRANCH  22  24
ENDBRANCH   3  20
TORSDOF 7
ENDMDL
MODEL 5
REMARK VINA RESULT:      -7.7      0.296      1.293
REMARK  Name = 
REMARK  9 active torsions:
REMARK  status: ('A' for Active; 'I' for Inactive)
REMARK    1  A    between atoms: C_1  and  C_2
REMARK    2  A    between atoms: C_2  and  C_3
REMARK    3  A    between atoms: C_6  and  C_7
REMARK    4  A    between atoms: C_7  and  C_8
REMARK    5  A    between atoms: C_11  and  C_12
REMARK    6  A    between atoms: C_12  and  C_13
REMARK    7  A    between atoms: C_17  and  C_18
REMARK    8  A    between atoms: N_20  and  C_21
REMARK    9  A    between atoms: C_21  and  C_22
REMARK                            x       y       z     vdW  Elec       q    Type
REMARK                         _______ _______ _______ _____ _____    ______ ____
ROOT
ATOM      1  C   UNL     1       3.057   7.165  17.970  0.00  0.00    +0.000 C 
ATOM      2  C   UNL     1       3.319   7.518  16.517  0.00  0.00    +0.000 C 
ATOM      3  C   UNL     1       4.426   7.677  17.522  0.00  0.00    +0.000 C 
ENDROOT
BRANCH   1   7
ATOM      4  C   UNL     1       0.797  10.025  20.377  0.00  0.00    +0.000 A 
ATOM      5  C   UNL     1       1.073  10.280  19.032  0.00  0.00    +0.000 A 
ATOM      6  C   UNL     1       1.730   9.330  18.254  0.00  0.00    +0.000 A 
ATOM      7  C   UNL     1       2.154   8.103  18.790  0.00  0.00    +0.000 A 
ATOM      8  C   UNL     1       1.870   7.861  20.148  0.00  0.00    +0.000 A 
ATOM      9  C   UNL     1       1.199   8.806  20.932  0.00  0.00    +0.000 A 
BRANCH   4  11
ATOM     10  C   UNL     1      -0.418  10.395  22.500  0.00  0.00    +0.000 C 
ATOM     11  C   UNL     1       0.005  11.023  21.180  0.00  0.00    +0.000 C 
ENDBRANCH   4  11
ENDBRANCH   1   7
BRANCH   1  12
ATOM     12  C   UNL     1       2.849   5.711  18.393  0.00  0.00    +0.000 A 
ATOM     13  C   UNL     1       1.852   4.913  17.813  0.00  0.00    +0.000 A 
ATOM     14  C   UNL     1       1.402   3.748  18.442  0.00  0.00    +0.000 A 
ATOM     15  C   UNL     1       1.934   3.357  19.674  0.00  0.00    +0.000 A 
ATOM     16  C   UNL     1       3.011   4.071  20.202  0.00  0.00    +0.000 A 
ATOM     17  C   UNL     1       3.472   5.222  19.557  0.00  0.00    +0.000 A 
BRANCH  15  18
ATOM     18  C   UNL     1       1.315   2.219  20.443  0.00  0.00    +0.000 C 
ATOM     19  C   UNL     1       1.455   2.377  21.945  0.00  0.00    +0.000 C 
ENDBRANCH  15  18
ENDBRANCH   1  12
BRANCH   3  20
ATOM     20  C   UNL     1       5.624   6.794  17.393  0.00  0.00    +0.000 C 
ATOM     21  O   UNL     1       6.360   6.576  18.344  0.00  0.00    +0.000 OA
ATOM     22  N   UNL     1       5.788   6.222  16.150  0.00  0.00    +0.000 N 
ATOM     23  H   UNL     1       5.145   6.434  15.406  0.00  0.00    +0.000 HD
BRANCH  22  24
ATOM     24  C   UNL     1       6.854   5.280  15.896  0.00  0.00    +0.000 C 
BRANCH  24  25
ATOM     25  C   UNL     1       6.840   4.826  14.461  0.00  0.00    +0.000 A 
ATOM     26  C   UNL     1       5.942   3.833  14.046  0.00  0.00    +0.000 A 
ATOM     27  C   UNL     1       5.936   3.391  12.722  0.00  0.00    +0.000 A 
ATOM     28  C   UNL     1       6.834   3.932  11.803  0.00  0.00    +0.000 A 
ATOM     29  C   UNL     1       7.734   4.917  12.205  0.00  0.00    +0.000 A 
ATOM     30  C   UNL     1       7.740   5.363  13.528  0.00  0.00    +0.000 A 
ENDBRANCH  24  25
ENDBRANCH  22  24
ENDBRANCH   3  20
TORSDOF 7
ENDMDL
MODEL 6
REMARK VINA RESULT:      -7.7      0.837      1.585
REMARK  Name = 
REMARK  9 active torsions:
REMARK  status: ('A' for Active; 'I' for Inactive)
REMARK    1  A    between atoms: C_1  and  C_2
REMARK    2  A    between atoms: C_2  and  C_3
REMARK    3  A    between atoms: C_6  and  C_7
REMARK    4  A    between atoms: C_7  and  C_8
REMARK    5  A    between atoms: C_11  and  C_12
REMARK    6  A    between atoms: C_12  and  C_13
REMARK    7  A    between atoms: C_17  and  C_18
REMARK    8  A    between atoms: N_20  and  C_21
REMARK    9  A    between atoms: C_21  and  C_22
REMARK                            x       y       z     vdW  Elec       q    Type
REMARK                         _______ _______ _______ _____ _____    ______ ____
ROOT
ATOM      1  C   UNL     1       2.849   7.089  18.304  0.00  0.00    +0.000 C 
ATOM      2  C   UNL     1       3.158   7.436  16.859  0.00  0.00    +0.000 C 
ATOM      3  C   UNL     1       4.280   7.397  17.861  0.00  0.00    +0.000 C 
ENDROOT
BRANCH   1   7
ATOM      4  C   UNL     1       0.430   9.845  20.677  0.00  0.00    +0.000 A 
ATOM      5  C   UNL     1       1.021   8.723  21.263  0.00  0.00    +0.000 A 
ATOM      6  C   UNL     1       1.849   7.891  20.514  0.00  0.00    +0.000 A 
ATOM      7  C   UNL     1       2.103   8.132  19.154  0.00  0.00    +0.000 A 
ATOM      8  C   UNL     1       1.500   9.266  18.578  0.00  0.00    +0.000 A 
ATOM      9  C   UNL     1       0.676  10.113  19.327  0.00  0.00    +0.000 A 
BRANCH   4  11
ATOM     10  C   UNL     1      -0.708  10.125  22.855  0.00  0.00    +0.000 C 
ATOM     11  C   UNL     1      -0.389  10.785  21.522  0.00  0.00    +0.000 C 
ENDBRANCH   4  11
ENDBRANCH   1   7
BRANCH   1  12
ATOM     12  C   UNL     1       2.422   5.673  18.691  0.00  0.00    +0.000 A 
ATOM     13  C   UNL     1       2.886   5.062  19.866  0.00  0.00    +0.000 A 
ATOM     14  C   UNL     1       2.825   3.675  20.031  0.00  0.00    +0.000 A 
ATOM     15  C   UNL     1       2.306   2.863  19.018  0.00  0.00    +0.000 A 
ATOM     16  C   UNL     1       1.728   3.465  17.900  0.00  0.00    +0.000 A 
ATOM     17  C   UNL     1       1.770   4.853  17.751  0.00  0.00    +0.000 A 
BRANCH  15  18
ATOM     18  C   UNL     1       2.422   1.364  19.111  0.00  0.00    +0.000 C 
ATOM     19  C   UNL     1       3.818   0.860  18.798  0.00  0.00    +0.000 C 
ENDBRANCH  15  18
ENDBRANCH   1  12
BRANCH   3  20
ATOM     20  C   UNL     1       5.327   6.344  17.701  0.00  0.00    +0.000 C 
ATOM     21  O   UNL     1       6.049   6.017  18.632  0.00  0.00    +0.000 OA
ATOM     22  N   UNL     1       5.370   5.756  16.455  0.00  0.00    +0.000 N 
ATOM     23  H   UNL     1       4.746   6.063  15.728  0.00  0.00    +0.000 HD
BRANCH  22  24
ATOM     24  C   UNL     1       6.274   4.665  16.175  0.00  0.00    +0.000 C 
BRANCH  24  25
ATOM     25  C   UNL     1       6.530   4.544  14.696  0.00  0.00    +0.000 A 
ATOM     26  C   UNL     1       5.801   3.624  13.929  0.00  0.00    +0.000 A 
ATOM     27  C   UNL     1       6.045   3.491  12.561  0.00  0.00    +0.000 A 
ATOM     28  C   UNL     1       7.025   4.270  11.950  0.00  0.00    +0.000 A 
ATOM     29  C   UNL     1       7.758   5.186  12.702  0.00  0.00    +0.000 A 
ATOM     30  C   UNL     1       7.514   5.323  14.070  0.00  0.00    +0.000 A 
ENDBRANCH  24  25
ENDBRANCH  22  24
ENDBRANCH   3  20
TORSDOF 7
ENDMDL
MODEL 7
REMARK VINA RESULT:      -7.7      2.247      4.849
REMARK  Name = 
REMARK  9 active torsions:
REMARK  status: ('A' for Active; 'I' for Inactive)
REMARK    1  A    between atoms: C_1  and  C_2
REMARK    2  A    between atoms: C_2  and  C_3
REMARK    3  A    between atoms: C_6  and  C_7
REMARK    4  A    between atoms: C_7  and  C_8
REMARK    5  A    between atoms: C_11  and  C_12
REMARK    6  A    between atoms: C_12  and  C_13
REMARK    7  A    between atoms: C_17  and  C_18
REMARK    8  A    between atoms: N_20  and  C_21
REMARK    9  A    between atoms: C_21  and  C_22
REMARK                            x       y       z     vdW  Elec       q    Type
REMARK                         _______ _______ _______ _____ _____    ______ ____
ROOT
ATOM      1  C   UNL     1       4.906   5.526  17.734  0.00  0.00    +0.000 C 
ATOM      2  C   UNL     1       4.842   4.046  18.066  0.00  0.00    +0.000 C 
ATOM      3  C   UNL     1       4.643   4.488  16.642  0.00  0.00    +0.000 C 
ENDROOT
BRANCH   1   7
ATOM      4  C   UNL     1       1.852   8.300  19.170  0.00  0.00    +0.000 A 
ATOM      5  C   UNL     1       2.459   8.484  17.925  0.00  0.00    +0.000 A 
ATOM      6  C   UNL     1       3.379   7.554  17.445  0.00  0.00    +0.000 A 
ATOM      7  C   UNL     1       3.742   6.421  18.192  0.00  0.00    +0.000 A 
ATOM      8  C   UNL     1       3.122   6.251  19.445  0.00  0.00    +0.000 A 
ATOM      9  C   UNL     1       2.188   7.173  19.928  0.00  0.00    +0.000 A 
BRANCH   4  11
ATOM     10  C   UNL     1       0.445   8.978  21.087  0.00  0.00    +0.000 C 
ATOM     11  C   UNL     1       0.793   9.264  19.634  0.00  0.00    +0.000 C 
ENDBRANCH   4  11
ENDBRANCH   1   7
BRANCH   1  12
ATOM     12  C   UNL     1       6.231   6.285  17.809  0.00  0.00    +0.000 A 
ATOM     13  C   UNL     1       7.194   5.986  18.785  0.00  0.00    +0.000 A 
ATOM     14  C   UNL     1       8.203   6.899  19.107  0.00  0.00    +0.000 A 
ATOM     15  C   UNL     1       8.269   8.139  18.465  0.00  0.00    +0.000 A 
ATOM     16  C   UNL     1       7.395   8.399  17.408  0.00  0.00    +0.000 A 
ATOM     17  C   UNL     1       6.403   7.473  17.074  0.00  0.00    +0.000 A 
BRANCH  15  18
ATOM     18  C   UNL     1       9.228   9.195  18.948  0.00  0.00    +0.000 C 
ATOM     19  C   UNL     1       9.054  10.522  18.234  0.00  0.00    +0.000 C 
ENDBRANCH  15  18
ENDBRANCH   1  12
BRANCH   3  20
ATOM     20  C   UNL     1       5.669   4.089  15.633  0.00  0.00    +0.000 C 
ATOM     21  O   UNL     1       6.336   3.074  15.770  0.00  0.00    +0.000 OA
ATOM     22  N   UNL     1       5.755   4.921  14.537  0.00  0.00    +0.000 N 
ATOM     23  H   UNL     1       5.175   5.740  14.476  0.00  0.00    +0.000 HD
BRANCH  22  24
ATOM     24  C   UNL     1       6.643   4.619  13.438  0.00  0.00    +0.000 C 
BRANCH  24  25
ATOM     25  C   UNL     1       6.007   3.642  12.485  0.00  0.00    +0.000 A 
ATOM     26  C   UNL     1       4.683   3.830  12.065  0.00  0.00    +0.000 A 
ATOM     27  C   UNL     1       4.079   2.919  11.197  0.00  0.00    +0.000 A 
ATOM     28  C   UNL     1       4.791   1.809  10.747  0.00  0.00    +0.000 A 
ATOM     29  C   UNL     1       6.107   1.610  11.160  0.00  0.00    +0.000 A 
ATOM     30  C   UNL     1       6.714   2.521  12.026  0.00  0.00    +0.000 A 
ENDBRANCH  24  25
ENDBRANCH  22  24
ENDBRANCH   3  20
TORSDOF 7
ENDMDL
MODEL 8
REMARK VINA RESULT:      -7.6      1.773      7.577
REMARK  Name = 
REMARK  9 active torsions:
REMARK  status: ('A' for Active; 'I' for Inactive)
REMARK    1  A    between atoms: C_1  and  C_2
REMARK    2  A    between atoms: C_2  and  C_3
REMARK    3  A    between atoms: C_6  and  C_7
REMARK    4  A    between atoms: C_7  and  C_8
REMARK    5  A    between atoms: C_11  and  C_12
REMARK    6  A    between atoms: C_12  and  C_13
REMARK    7  A    between atoms: C_17  and  C_18
REMARK    8  A    between atoms: N_20  and  C_21
REMARK    9  A    between atoms: C_21  and  C_22
REMARK                            x       y       z     vdW  Elec       q    Type
REMARK                         _______ _______ _______ _____ _____    ______ ____
ROOT
ATOM      1  C   UNL     1       4.786   5.606  17.026  0.00  0.00    +0.000 C 
ATOM      2  C   UNL     1       5.591   6.557  17.893  0.00  0.00    +0.000 C 
ATOM      3  C   UNL     1       4.348   7.059  17.209  0.00  0.00    +0.000 C 
ENDROOT
BRANCH   1   7
ATOM      4  C   UNL     1       6.557   4.081  13.336  0.00  0.00    +0.000 A 
ATOM      5  C   UNL     1       5.225   3.808  13.658  0.00  0.00    +0.000 A 
ATOM      6  C   UNL     1       4.649   4.359  14.800  0.00  0.00    +0.000 A 
ATOM      7  C   UNL     1       5.380   5.183  15.671  0.00  0.00    +0.000 A 
ATOM      8  C   UNL     1       6.721   5.447  15.333  0.00  0.00    +0.000 A 
ATOM      9  C   UNL     1       7.303   4.908  14.182  0.00  0.00    +0.000 A 
BRANCH   4  11
ATOM     10  C   UNL     1       6.293   2.392  11.548  0.00  0.00    +0.000 C 
ATOM     11  C   UNL     1       7.137   3.554  12.050  0.00  0.00    +0.000 C 
ENDBRANCH   4  11
ENDBRANCH   1   7
BRANCH   1  12
ATOM     12  C   UNL     1       4.003   4.453  17.655  0.00  0.00    +0.000 A 
ATOM     13  C   UNL     1       2.673   4.187  17.296  0.00  0.00    +0.000 A 
ATOM     14  C   UNL     1       1.844   3.416  18.116  0.00  0.00    +0.000 A 
ATOM     15  C   UNL     1       2.324   2.898  19.323  0.00  0.00    +0.000 A 
ATOM     16  C   UNL     1       3.677   3.049  19.632  0.00  0.00    +0.000 A 
ATOM     17  C   UNL     1       4.507   3.801  18.796  0.00  0.00    +0.000 A 
BRANCH  15  18
ATOM     18  C   UNL     1       1.382   2.240  20.296  0.00  0.00    +0.000 C 
ATOM     19  C   UNL     1       1.582   2.713  21.723  0.00  0.00    +0.000 C 
ENDBRANCH  15  18
ENDBRANCH   1  12
BRANCH   3  20
ATOM     20  C   UNL     1       3.190   7.460  18.063  0.00  0.00    +0.000 C 
ATOM     21  O   UNL     1       3.056   7.028  19.198  0.00  0.00    +0.000 OA
ATOM     22  N   UNL     1       2.338   8.378  17.486  0.00  0.00    +0.000 N 
ATOM     23  H   UNL     1       2.503   8.703  16.549  0.00  0.00    +0.000 HD
BRANCH  22  24
ATOM     24  C   UNL     1       1.220   8.923  18.221  0.00  0.00    +0.000 C 
BRANCH  24  25
ATOM     25  C   UNL     1       1.475  10.356  18.606  0.00  0.00    +0.000 A 
ATOM     26  C   UNL     1       2.312  11.158  17.817  0.00  0.00    +0.000 A 
ATOM     27  C   UNL     1       2.570  12.481  18.178  0.00  0.00    +0.000 A 
ATOM     28  C   UNL     1       2.002  13.012  19.334  0.00  0.00    +0.000 A 
ATOM     29  C   UNL     1       1.171  12.223  20.128  0.00  0.00    +0.000 A 
ATOM     30  C   UNL     1       0.909  10.900  19.768  0.00  0.00    +0.000 A 
ENDBRANCH  24  25
ENDBRANCH  22  24
ENDBRANCH   3  20
TORSDOF 7
ENDMDL
MODEL 9
REMARK VINA RESULT:      -7.4      3.312      6.830
REMARK  Name = 
REMARK  9 active torsions:
REMARK  status: ('A' for Active; 'I' for Inactive)
REMARK    1  A    between atoms: C_1  and  C_2
REMARK    2  A    between atoms: C_2  and  C_3
REMARK    3  A    between atoms: C_6  and  C_7
REMARK    4  A    between atoms: C_7  and  C_8
REMARK    5  A    between atoms: C_11  and  C_12
REMARK    6  A    between atoms: C_12  and  C_13
REMARK    7  A    between atoms: C_17  and  C_18
REMARK    8  A    between atoms: N_20  and  C_21
REMARK    9  A    between atoms: C_21  and  C_22
REMARK                            x       y       z     vdW  Elec       q    Type
REMARK                         _______ _______ _______ _____ _____    ______ ____
ROOT
ATOM      1  C   UNL     1       4.896   5.995  17.182  0.00  0.00    +0.000 C 
ATOM      2  C   UNL     1       4.537   7.470  17.155  0.00  0.00    +0.000 C 
ATOM      3  C   UNL     1       5.712   7.015  17.978  0.00  0.00    +0.000 C 
ENDROOT
BRANCH   1   7
ATOM      4  C   UNL     1       2.094   3.578  19.503  0.00  0.00    +0.000 A 
ATOM      5  C   UNL     1       1.742   4.075  18.246  0.00  0.00    +0.000 A 
ATOM      6  C   UNL     1       2.667   4.783  17.483  0.00  0.00    +0.000 A 
ATOM      7  C   UNL     1       3.967   5.039  17.950  0.00  0.00    +0.000 A 
ATOM      8  C   UNL     1       4.306   4.533  19.219  0.00  0.00    +0.000 A 
ATOM      9  C   UNL     1       3.386   3.810  19.986  0.00  0.00    +0.000 A 
BRANCH   4  11
ATOM     10  C   UNL     1       1.605   2.563  21.705  0.00  0.00    +0.000 C 
ATOM     11  C   UNL     1       1.113   2.737  20.276  0.00  0.00    +0.000 C 
ENDBRANCH   4  11
ENDBRANCH   1   7
BRANCH   1  12
ATOM     12  C   UNL     1       5.468   5.310  15.941  0.00  0.00    +0.000 A 
ATOM     13  C   UNL     1       5.427   5.923  14.680  0.00  0.00    +0.000 A 
ATOM     14  C   UNL     1       5.581   5.175  13.508  0.00  0.00    +0.000 A 
ATOM     15  C   UNL     1       5.771   3.791  13.570  0.00  0.00    +0.000 A 
ATOM     16  C   UNL     1       5.937   3.188  14.818  0.00  0.00    +0.000 A 
ATOM     17  C   UNL     1       5.806   3.944  15.985  0.00  0.00    +0.000 A 
BRANCH  15  18
ATOM     18  C   UNL     1       5.737   2.963  12.313  0.00  0.00    +0.000 C 
ATOM     19  C   UNL     1       4.494   3.206  11.479  0.00  0.00    +0.000 C 
ENDBRANCH  15  18
ENDBRANCH   1  12
BRANCH   3  20
ATOM     20  C   UNL     1       7.074   7.467  17.566  0.00  0.00    +0.000 C 
ATOM     21  O   UNL     1       7.831   6.731  16.950  0.00  0.00    +0.000 OA
ATOM     22  N   UNL     1       7.371   8.773  17.891  0.00  0.00    +0.000 N 
ATOM     23  H   UNL     1       6.705   9.335  18.394  0.00  0.00    +0.000 HD
BRANCH  22  24
ATOM     24  C   UNL     1       8.619   9.379  17.485  0.00  0.00    +0.000 C 
BRANCH  24  25
ATOM     25  C   UNL     1       8.969  10.540  18.378  0.00  0.00    +0.000 A 
ATOM     26  C   UNL     1       8.942  11.848  17.874  0.00  0.00    +0.000 A 
ATOM     27  C   UNL     1       9.285  12.928  18.688  0.00  0.00    +0.000 A 
ATOM     28  C   UNL     1       9.666  12.710  20.011  0.00  0.00    +0.000 A 
ATOM     29  C   UNL     1       9.701  11.413  20.522  0.00  0.00    +0.000 A 
ATOM     30  C   UNL     1       9.355  10.332  19.710  0.00  0.00    +0.000 A 
ENDBRANCH  24  25
ENDBRANCH  22  24
ENDBRANCH   3  20
TORSDOF 7
ENDMDL
