MODEL 1
REMARK VINA RESULT:      -8.1      0.000      0.000
REMARK  Name = 
REMARK  3 active torsions:
REMARK  status: ('A' for Active; 'I' for Inactive)
REMARK    1  A    between atoms: C_1  and  C_2
REMARK    2  A    between atoms: N_14  and  C_15
REMARK    3  A    between atoms: C_15  and  C_16
REMARK                            x       y       z     vdW  Elec       q    Type
REMARK                         _______ _______ _______ _____ _____    ______ ____
ROOT
ATOM      1  C   UNL     1      -4.397  10.042  14.276  0.00  0.00    +0.000 C 
ATOM      2  C   UNL     1      -3.629  10.413  15.500  0.00  0.00    +0.000 A 
ATOM      3  C   UNL     1      -4.193  11.167  16.520  0.00  0.00    +0.000 A 
ATOM      4  C   UNL     1      -3.434  11.470  17.649  0.00  0.00    +0.000 A 
ATOM      5  C   UNL     1      -2.126  11.005  17.766  0.00  0.00    +0.000 A 
ATOM      6  N   UNL     1      -1.398  11.228  18.912  0.00  0.00    +0.000 N 
ATOM      7  C   UNL     1      -1.454  12.466  19.667  0.00  0.00    +0.000 C 
ATOM      8  C   UNL     1      -1.835  12.119  21.099  0.00  0.00    +0.000 C 
ATOM      9  C   UNL     1      -0.940  11.037  21.648  0.00  0.00    +0.000 A 
ATOM     10  N   UNL     1      -0.895  10.936  22.992  0.00  0.00    +0.000 NA
ATOM     11  C   UNL     1      -0.177   9.918  23.474  0.00  0.00    +0.000 A 
ATOM     12  N   UNL     1       0.497   9.012  22.753  0.00  0.00    +0.000 NA
ATOM     13  C   UNL     1       0.446   9.134  21.416  0.00  0.00    +0.000 A 
ATOM     14  N   UNL     1       1.063   8.167  20.628  0.00  0.00    +0.000 N 
ATOM     15  C   UNL     1      -0.280  10.151  20.801  0.00  0.00    +0.000 A 
ATOM     16  C   UNL     1      -0.377  10.259  19.296  0.00  0.00    +0.000 C 
ATOM     17  N   UNL     1      -1.571  10.270  16.779  0.00  0.00    +0.000 NA
ATOM     18  C   UNL     1      -2.315  10.004  15.677  0.00  0.00    +0.000 A 
ATOM     19  H   UNL     1       1.700   8.556  19.943  0.00  0.00    +0.000 HD
ENDROOT
BRANCH  14  20
ATOM     20  C   UNL     1       1.545   6.948  21.248  0.00  0.00    +0.000 C 
BRANCH  20  21
ATOM     21  C   UNL     1       1.981   6.045  20.118  0.00  0.00    +0.000 A 
ATOM     22  C   UNL     1       2.908   6.471  19.159  0.00  0.00    +0.000 A 
ATOM     23  C   UNL     1       3.204   5.656  18.065  0.00  0.00    +0.000 A 
ATOM     24 CL   UNL     1       4.326   6.205  16.879  0.00  0.00    +0.000 Cl
ATOM     25  C   UNL     1       2.589   4.417  17.908  0.00  0.00    +0.000 A 
ATOM     26  C   UNL     1       1.665   3.990  18.858  0.00  0.00    +0.000 A 
ATOM     27 CL   UNL     1       0.877   2.473  18.665  0.00  0.00    +0.000 Cl
ATOM     28  C   UNL     1       1.358   4.794  19.954  0.00  0.00    +0.000 A 
ENDBRANCH  20  21
ENDBRANCH  14  20
TORSDOF 2
ENDMDL
MODEL 2
REMARK VINA RESULT:      -8.0      0.133      1.738
REMARK  Name = 
REMARK  3 active torsions:
REMARK  status: ('A' for Active; 'I' for Inactive)
REMARK    1  A    between atoms: C_1  and  C_2
REMARK    2  A    between atoms: N_14  and  C_15
REMARK    3  A    between atoms: C_15  and  C_16
REMARK                            x       y       z     vdW  Elec       q    Type
REMARK                         _______ _______ _______ _____ _____    ______ ____
ROOT
ATOM      1  C   UNL     1      -4.373   9.994  14.266  0.00  0.00    +0.000 C 
ATOM      2  C   UNL     1      -3.618  10.373  15.496  0.00  0.00    +0.000 A 
ATOM      3  C   UNL     1      -4.212  11.077  16.535  0.00  0.00    +0.000 A 
ATOM      4  C   UNL     1      -3.464  11.389  17.668  0.00  0.00    +0.000 A 
ATOM      5  C   UNL     1      -2.135  10.982  17.770  0.00  0.00    +0.000 A 
ATOM      6  N   UNL     1      -1.413  11.212  18.919  0.00  0.00    +0.000 N 
ATOM      7  C   UNL     1      -1.523  12.429  19.702  0.00  0.00    +0.000 C 
ATOM      8  C   UNL     1      -1.882  12.033  21.126  0.00  0.00    +0.000 C 
ATOM      9  C   UNL     1      -0.936  10.982  21.649  0.00  0.00    +0.000 A 
ATOM     10  N   UNL     1      -0.882  10.853  22.990  0.00  0.00    +0.000 NA
ATOM     11  C   UNL     1      -0.115   9.858  23.447  0.00  0.00    +0.000 A 
ATOM     12  N   UNL     1       0.596   9.000  22.704  0.00  0.00    +0.000 NA
ATOM     13  C   UNL     1       0.535   9.150  21.370  0.00  0.00    +0.000 A 
ATOM     14  N   UNL     1       1.192   8.230  20.558  0.00  0.00    +0.000 N 
ATOM     15  C   UNL     1      -0.239  10.146  20.780  0.00  0.00    +0.000 A 
ATOM     16  C   UNL     1      -0.348  10.283  19.278  0.00  0.00    +0.000 C 
ATOM     17  N   UNL     1      -1.551  10.296  16.765  0.00  0.00    +0.000 NA
ATOM     18  C   UNL     1      -2.286  10.020  15.660  0.00  0.00    +0.000 A 
ATOM     19  H   UNL     1       1.808   8.663  19.880  0.00  0.00    +0.000 HD
ENDROOT
BRANCH  14  20
ATOM     20  C   UNL     1       1.732   7.021  21.149  0.00  0.00    +0.000 C 
BRANCH  20  21
ATOM     21  C   UNL     1       1.996   6.074  20.002  0.00  0.00    +0.000 A 
ATOM     22  C   UNL     1       1.407   4.804  19.953  0.00  0.00    +0.000 A 
ATOM     23  C   UNL     1       1.761   3.910  18.940  0.00  0.00    +0.000 A 
ATOM     24 CL   UNL     1       1.049   2.342  18.908  0.00  0.00    +0.000 Cl
ATOM     25  C   UNL     1       2.695   4.261  17.969  0.00  0.00    +0.000 A 
ATOM     26  C   UNL     1       3.283   5.522  18.015  0.00  0.00    +0.000 A 
ATOM     27 CL   UNL     1       4.459   5.962  16.838  0.00  0.00    +0.000 Cl
ATOM     28  C   UNL     1       2.943   6.424  19.022  0.00  0.00    +0.000 A 
ENDBRANCH  20  21
ENDBRANCH  14  20
TORSDOF 2
ENDMDL
MODEL 3
REMARK VINA RESULT:      -7.2      7.412      8.660
REMARK  Name = 
REMARK  3 active torsions:
REMARK  status: ('A' for Active; 'I' for Inactive)
REMARK    1  A    between atoms: C_1  and  C_2
REMARK    2  A    between atoms: N_14  and  C_15
REMARK    3  A    between atoms: C_15  and  C_16
REMARK                            x       y       z     vdW  Elec       q    Type
REMARK                         _______ _______ _______ _____ _____    ______ ____
ROOT
ATOM      1  C   UNL     1       0.455   9.927  19.517  0.00  0.00    +0.000 C 
ATOM      2  C   UNL     1       1.147  11.212  19.205  0.00  0.00    +0.000 A 
ATOM      3  C   UNL     1       0.850  12.387  19.881  0.00  0.00    +0.000 A 
ATOM      4  C   UNL     1       1.539  13.556  19.561  0.00  0.00    +0.000 A 
ATOM      5  C   UNL     1       2.533  13.543  18.584  0.00  0.00    +0.000 A 
ATOM      6  N   UNL     1       3.276  14.670  18.320  0.00  0.00    +0.000 N 
ATOM      7  C   UNL     1       2.720  16.011  18.311  0.00  0.00    +0.000 C 
ATOM      8  C   UNL     1       3.522  16.853  19.292  0.00  0.00    +0.000 C 
ATOM      9  C   UNL     1       5.001  16.737  19.018  0.00  0.00    +0.000 A 
ATOM     10  N   UNL     1       5.772  17.722  19.522  0.00  0.00    +0.000 NA
ATOM     11  C   UNL     1       7.089  17.569  19.360  0.00  0.00    +0.000 A 
ATOM     12  N   UNL     1       7.698  16.546  18.745  0.00  0.00    +0.000 NA
ATOM     13  C   UNL     1       6.913  15.579  18.243  0.00  0.00    +0.000 A 
ATOM     14  N   UNL     1       7.507  14.458  17.670  0.00  0.00    +0.000 N 
ATOM     15  C   UNL     1       5.526  15.627  18.361  0.00  0.00    +0.000 A 
ATOM     16  C   UNL     1       4.644  14.514  17.840  0.00  0.00    +0.000 C 
ATOM     17  N   UNL     1       2.828  12.404  17.924  0.00  0.00    +0.000 NA
ATOM     18  C   UNL     1       2.133  11.281  18.232  0.00  0.00    +0.000 A 
ATOM     19  H   UNL     1       7.165  14.257  16.738  0.00  0.00    +0.000 HD
ENDROOT
BRANCH  14  20
ATOM     20  C   UNL     1       8.934  14.255  17.825  0.00  0.00    +0.000 C 
BRANCH  20  21
ATOM     21  C   UNL     1       9.092  13.104  18.790  0.00  0.00    +0.000 A 
ATOM     22  C   UNL     1       9.049  11.774  18.354  0.00  0.00    +0.000 A 
ATOM     23  C   UNL     1       9.084  10.734  19.286  0.00  0.00    +0.000 A 
ATOM     24 CL   UNL     1       9.003   9.103  18.737  0.00  0.00    +0.000 Cl
ATOM     25  C   UNL     1       9.163  10.997  20.650  0.00  0.00    +0.000 A 
ATOM     26  C   UNL     1       9.205  12.318  21.088  0.00  0.00    +0.000 A 
ATOM     27 CL   UNL     1       9.276  12.660  22.773  0.00  0.00    +0.000 Cl
ATOM     28  C   UNL     1       9.168  13.366  20.171  0.00  0.00    +0.000 A 
ENDBRANCH  20  21
ENDBRANCH  14  20
TORSDOF 2
ENDMDL
MODEL 4
REMARK VINA RESULT:      -6.9      3.925      8.324
REMARK  Name = 
REMARK  3 active torsions:
REMARK  status: ('A' for Active; 'I' for Inactive)
REMARK    1  A    between atoms: C_1  and  C_2
REMARK    2  A    between atoms: N_14  and  C_15
REMARK    3  A    between atoms: C_15  and  C_16
REMARK                            x       y       z     vdW  Elec       q    Type
REMARK                         _______ _______ _______ _____ _____    ______ ____
ROOT
ATOM      1  C   UNL     1       7.844   5.511  13.778  0.00  0.00    +0.000 C 
ATOM      2  C   UNL     1       6.714   5.039  14.631  0.00  0.00    +0.000 A 
ATOM      3  C   UNL     1       6.645   3.735  15.101  0.00  0.00    +0.000 A 
ATOM      4  C   UNL     1       5.574   3.353  15.909  0.00  0.00    +0.000 A 
ATOM      5  C   UNL     1       4.591   4.276  16.258  0.00  0.00    +0.000 A 
ATOM      6  N   UNL     1       3.576   3.931  17.122  0.00  0.00    +0.000 N 
ATOM      7  C   UNL     1       2.927   2.633  17.116  0.00  0.00    +0.000 C 
ATOM      8  C   UNL     1       3.049   2.047  18.515  0.00  0.00    +0.000 C 
ATOM      9  C   UNL     1       2.573   3.031  19.554  0.00  0.00    +0.000 A 
ATOM     10  N   UNL     1       2.243   2.508  20.752  0.00  0.00    +0.000 NA
ATOM     11  C   UNL     1       1.913   3.390  21.700  0.00  0.00    +0.000 A 
ATOM     12  N   UNL     1       1.875   4.723  21.564  0.00  0.00    +0.000 NA
ATOM     13  C   UNL     1       2.201   5.224  20.361  0.00  0.00    +0.000 A 
ATOM     14  N   UNL     1       2.254   6.605  20.199  0.00  0.00    +0.000 N 
ATOM     15  C   UNL     1       2.570   4.400  19.300  0.00  0.00    +0.000 A 
ATOM     16  C   UNL     1       2.985   4.967  17.961  0.00  0.00    +0.000 C 
ATOM     17  N   UNL     1       4.651   5.546  15.805  0.00  0.00    +0.000 NA
ATOM     18  C   UNL     1       5.687   5.895  15.002  0.00  0.00    +0.000 A 
ATOM     19  H   UNL     1       1.706   6.938  19.415  0.00  0.00    +0.000 HD
ENDROOT
BRANCH  14  20
ATOM     20  C   UNL     1       2.180   7.460  21.368  0.00  0.00    +0.000 C 
BRANCH  20  21
ATOM     21  C   UNL     1       1.129   8.501  21.063  0.00  0.00    +0.000 A 
ATOM     22  C   UNL     1       0.865   8.908  19.749  0.00  0.00    +0.000 A 
ATOM     23  C   UNL     1      -0.031   9.953  19.510  0.00  0.00    +0.000 A 
ATOM     24 CL   UNL     1      -0.325  10.462  17.891  0.00  0.00    +0.000 Cl
ATOM     25  C   UNL     1      -0.672  10.601  20.562  0.00  0.00    +0.000 A 
ATOM     26  C   UNL     1      -0.412  10.199  21.869  0.00  0.00    +0.000 A 
ATOM     27 CL   UNL     1      -1.177  11.006  23.182  0.00  0.00    +0.000 Cl
ATOM     28  C   UNL     1       0.482   9.160  22.124  0.00  0.00    +0.000 A 
ENDBRANCH  20  21
ENDBRANCH  14  20
TORSDOF 2
ENDMDL
MODEL 5
REMARK VINA RESULT:      -6.9      3.893      8.348
REMARK  Name = 
REMARK  3 active torsions:
REMARK  status: ('A' for Active; 'I' for Inactive)
REMARK    1  A    between atoms: C_1  and  C_2
REMARK    2  A    between atoms: N_14  and  C_15
REMARK    3  A    between atoms: C_15  and  C_16
REMARK                            x       y       z     vdW  Elec       q    Type
REMARK                         _______ _______ _______ _____ _____    ______ ____
ROOT
ATOM      1  C   UNL     1       7.859   5.521  13.842  0.00  0.00    +0.000 C 
ATOM      2  C   UNL     1       6.707   5.056  14.670  0.00  0.00    +0.000 A 
ATOM      3  C   UNL     1       6.593   3.740  15.096  0.00  0.00    +0.000 A 
ATOM      4  C   UNL     1       5.505   3.365  15.881  0.00  0.00    +0.000 A 
ATOM      5  C   UNL     1       4.547   4.306  16.254  0.00  0.00    +0.000 A 
ATOM      6  N   UNL     1       3.515   3.965  17.098  0.00  0.00    +0.000 N 
ATOM      7  C   UNL     1       2.826   2.689  17.044  0.00  0.00    +0.000 C 
ATOM      8  C   UNL     1       2.918   2.053  18.423  0.00  0.00    +0.000 C 
ATOM      9  C   UNL     1       2.464   3.016  19.492  0.00  0.00    +0.000 A 
ATOM     10  N   UNL     1       2.108   2.463  20.669  0.00  0.00    +0.000 NA
ATOM     11  C   UNL     1       1.797   3.323  21.643  0.00  0.00    +0.000 A 
ATOM     12  N   UNL     1       1.802   4.660  21.552  0.00  0.00    +0.000 NA
ATOM     13  C   UNL     1       2.154   5.191  20.369  0.00  0.00    +0.000 A 
ATOM     14  N   UNL     1       2.251   6.574  20.254  0.00  0.00    +0.000 N 
ATOM     15  C   UNL     1       2.506   4.392  19.284  0.00  0.00    +0.000 A 
ATOM     16  C   UNL     1       2.950   4.990  17.968  0.00  0.00    +0.000 C 
ATOM     17  N   UNL     1       4.652   5.588  15.845  0.00  0.00    +0.000 NA
ATOM     18  C   UNL     1       5.705   5.931  15.062  0.00  0.00    +0.000 A 
ATOM     19  H   UNL     1       1.720   6.950  19.478  0.00  0.00    +0.000 HD
ENDROOT
BRANCH  14  20
ATOM     20  C   UNL     1       2.194   7.391  21.451  0.00  0.00    +0.000 C 
BRANCH  20  21
ATOM     21  C   UNL     1       1.270   8.542  21.131  0.00  0.00    +0.000 A 
ATOM     22  C   UNL     1       0.603   9.245  22.142  0.00  0.00    +0.000 A 
ATOM     23  C   UNL     1      -0.331  10.229  21.808  0.00  0.00    +0.000 A 
ATOM     24 CL   UNL     1      -1.163  11.067  23.061  0.00  0.00    +0.000 Cl
ATOM     25  C   UNL     1      -0.613  10.525  20.477  0.00  0.00    +0.000 A 
ATOM     26  C   UNL     1       0.047   9.827  19.470  0.00  0.00    +0.000 A 
ATOM     27 CL   UNL     1      -0.309  10.164  17.820  0.00  0.00    +0.000 Cl
ATOM     28  C   UNL     1       0.980   8.842  19.788  0.00  0.00    +0.000 A 
ENDBRANCH  20  21
ENDBRANCH  14  20
TORSDOF 2
ENDMDL
MODEL 6
REMARK VINA RESULT:      -6.8      3.344      5.749
REMARK  Name = 
REMARK  3 active torsions:
REMARK  status: ('A' for Active; 'I' for Inactive)
REMARK    1  A    between atoms: C_1  and  C_2
REMARK    2  A    between atoms: N_14  and  C_15
REMARK    3  A    between atoms: C_15  and  C_16
REMARK                            x       y       z     vdW  Elec       q    Type
REMARK                         _______ _______ _______ _____ _____    ______ ____
ROOT
ATOM      1  C   UNL     1       4.949  16.740  21.662  0.00  0.00    +0.000 C 
ATOM      2  C   UNL     1       3.818  15.776  21.513  0.00  0.00    +0.000 A 
ATOM      3  C   UNL     1       2.514  16.202  21.305  0.00  0.00    +0.000 A 
ATOM      4  C   UNL     1       1.500  15.258  21.156  0.00  0.00    +0.000 A 
ATOM      5  C   UNL     1       1.792  13.897  21.195  0.00  0.00    +0.000 A 
ATOM      6  N   UNL     1       0.813  12.958  20.966  0.00  0.00    +0.000 N 
ATOM      7  C   UNL     1      -0.550  13.090  21.446  0.00  0.00    +0.000 C 
ATOM      8  C   UNL     1      -1.478  12.982  20.245  0.00  0.00    +0.000 C 
ATOM      9  C   UNL     1      -1.169  11.748  19.435  0.00  0.00    +0.000 A 
ATOM     10  N   UNL     1      -2.150  11.321  18.614  0.00  0.00    +0.000 NA
ATOM     11  C   UNL     1      -1.841  10.286  17.829  0.00  0.00    +0.000 A 
ATOM     12  N   UNL     1      -0.666   9.643  17.791  0.00  0.00    +0.000 NA
ATOM     13  C   UNL     1       0.296  10.078  18.621  0.00  0.00    +0.000 A 
ATOM     14  N   UNL     1       1.557   9.492  18.557  0.00  0.00    +0.000 N 
ATOM     15  C   UNL     1       0.091  11.156  19.479  0.00  0.00    +0.000 A 
ATOM     16  C   UNL     1       1.190  11.677  20.378  0.00  0.00    +0.000 C 
ATOM     17  N   UNL     1       3.059  13.474  21.396  0.00  0.00    +0.000 NA
ATOM     18  C   UNL     1       4.030  14.406  21.562  0.00  0.00    +0.000 A 
ATOM     19  H   UNL     1       1.895   9.170  19.456  0.00  0.00    +0.000 HD
ENDROOT
BRANCH  14  20
ATOM     20  C   UNL     1       1.867   8.595  17.461  0.00  0.00    +0.000 C 
BRANCH  20  21
ATOM     21  C   UNL     1       2.615   7.431  18.068  0.00  0.00    +0.000 A 
ATOM     22  C   UNL     1       2.098   6.720  19.158  0.00  0.00    +0.000 A 
ATOM     23  C   UNL     1       2.864   5.724  19.768  0.00  0.00    +0.000 A 
ATOM     24 CL   UNL     1       2.227   4.877  21.125  0.00  0.00    +0.000 Cl
ATOM     25  C   UNL     1       4.143   5.423  19.308  0.00  0.00    +0.000 A 
ATOM     26  C   UNL     1       4.661   6.129  18.226  0.00  0.00    +0.000 A 
ATOM     27 CL   UNL     1       6.250   5.786  17.661  0.00  0.00    +0.000 Cl
ATOM     28  C   UNL     1       3.909   7.126  17.608  0.00  0.00    +0.000 A 
ENDBRANCH  20  21
ENDBRANCH  14  20
TORSDOF 2
ENDMDL
MODEL 7
REMARK VINA RESULT:      -6.8      4.347      6.964
REMARK  Name = 
REMARK  3 active torsions:
REMARK  status: ('A' for Active; 'I' for Inactive)
REMARK    1  A    between atoms: C_1  and  C_2
REMARK    2  A    between atoms: N_14  and  C_15
REMARK    3  A    between atoms: C_15  and  C_16
REMARK                            x       y       z     vdW  Elec       q    Type
REMARK                         _______ _______ _______ _____ _____    ______ ____
ROOT
ATOM      1  C   UNL     1      -7.053  17.813  23.836  0.00  0.00    +0.000 C 
ATOM      2  C   UNL     1      -6.910  16.583  23.003  0.00  0.00    +0.000 A 
ATOM      3  C   UNL     1      -7.794  16.286  21.975  0.00  0.00    +0.000 A 
ATOM      4  C   UNL     1      -7.603  15.131  21.218  0.00  0.00    +0.000 A 
ATOM      5  C   UNL     1      -6.523  14.290  21.476  0.00  0.00    +0.000 A 
ATOM      6  N   UNL     1      -6.278  13.193  20.681  0.00  0.00    +0.000 N 
ATOM      7  C   UNL     1      -7.325  12.349  20.139  0.00  0.00    +0.000 C 
ATOM      8  C   UNL     1      -7.154  12.309  18.628  0.00  0.00    +0.000 C 
ATOM      9  C   UNL     1      -5.739  11.946  18.256  0.00  0.00    +0.000 A 
ATOM     10  N   UNL     1      -5.561  11.480  17.003  0.00  0.00    +0.000 NA
ATOM     11  C   UNL     1      -4.295  11.248  16.644  0.00  0.00    +0.000 A 
ATOM     12  N   UNL     1      -3.209  11.428  17.407  0.00  0.00    +0.000 NA
ATOM     13  C   UNL     1      -3.407  11.886  18.654  0.00  0.00    +0.000 A 
ATOM     14  N   UNL     1      -2.302  12.165  19.453  0.00  0.00    +0.000 N 
ATOM     15  C   UNL     1      -4.683  12.171  19.135  0.00  0.00    +0.000 A 
ATOM     16  C   UNL     1      -4.903  12.734  20.521  0.00  0.00    +0.000 C 
ATOM     17  N   UNL     1      -5.658  14.573  22.473  0.00  0.00    +0.000 NA
ATOM     18  C   UNL     1      -5.872  15.688  23.215  0.00  0.00    +0.000 A 
ATOM     19  H   UNL     1      -2.340  11.715  20.360  0.00  0.00    +0.000 HD
ENDROOT
BRANCH  14  20
ATOM     20  C   UNL     1      -0.980  12.172  18.858  0.00  0.00    +0.000 C 
BRANCH  20  21
ATOM     21  C   UNL     1      -0.212  11.057  19.528  0.00  0.00    +0.000 A 
ATOM     22  C   UNL     1       0.592  10.179  18.790  0.00  0.00    +0.000 A 
ATOM     23  C   UNL     1       1.198   9.091  19.422  0.00  0.00    +0.000 A 
ATOM     24 CL   UNL     1       2.163   8.004  18.497  0.00  0.00    +0.000 Cl
ATOM     25  C   UNL     1       1.016   8.861  20.782  0.00  0.00    +0.000 A 
ATOM     26  C   UNL     1       0.216   9.730  21.519  0.00  0.00    +0.000 A 
ATOM     27 CL   UNL     1      -0.040   9.445  23.196  0.00  0.00    +0.000 Cl
ATOM     28  C   UNL     1      -0.397  10.819  20.902  0.00  0.00    +0.000 A 
ENDBRANCH  20  21
ENDBRANCH  14  20
TORSDOF 2
ENDMDL
MODEL 8
REMARK VINA RESULT:      -6.8      4.269      7.822
REMARK  Name = 
REMARK  3 active torsions:
REMARK  status: ('A' for Active; 'I' for Inactive)
REMARK    1  A    between atoms: C_1  and  C_2
REMARK    2  A    between atoms: N_14  and  C_15
REMARK    3  A    between atoms: C_15  and  C_16
REMARK                            x       y       z     vdW  Elec       q    Type
REMARK                         _______ _______ _______ _____ _____    ______ ____
ROOT
ATOM      1  C   UNL     1      -2.394  15.465  25.836  0.00  0.00    +0.000 C 
ATOM      2  C   UNL     1      -3.344  14.988  24.788  0.00  0.00    +0.000 A 
ATOM      3  C   UNL     1      -4.351  15.801  24.286  0.00  0.00    +0.000 A 
ATOM      4  C   UNL     1      -5.198  15.310  23.295  0.00  0.00    +0.000 A 
ATOM      5  C   UNL     1      -5.027  14.020  22.796  0.00  0.00    +0.000 A 
ATOM      6  N   UNL     1      -5.805  13.556  21.760  0.00  0.00    +0.000 N 
ATOM      7  C   UNL     1      -7.218  13.856  21.625  0.00  0.00    +0.000 C 
ATOM      8  C   UNL     1      -7.430  14.489  20.258  0.00  0.00    +0.000 C 
ATOM      9  C   UNL     1      -6.816  13.644  19.171  0.00  0.00    +0.000 A 
ATOM     10  N   UNL     1      -7.277  13.863  17.923  0.00  0.00    +0.000 NA
ATOM     11  C   UNL     1      -6.667  13.181  16.950  0.00  0.00    +0.000 A 
ATOM     12  N   UNL     1      -5.660  12.310  17.104  0.00  0.00    +0.000 NA
ATOM     13  C   UNL     1      -5.219  12.100  18.355  0.00  0.00    +0.000 A 
ATOM     14  N   UNL     1      -4.122  11.266  18.552  0.00  0.00    +0.000 N 
ATOM     15  C   UNL     1      -5.774  12.762  19.448  0.00  0.00    +0.000 A 
ATOM     16  C   UNL     1      -5.245  12.563  20.850  0.00  0.00    +0.000 C 
ATOM     17  N   UNL     1      -4.049  13.224  23.278  0.00  0.00    +0.000 NA
ATOM     18  C   UNL     1      -3.247  13.710  24.258  0.00  0.00    +0.000 A 
ATOM     19  H   UNL     1      -4.291  10.536  19.233  0.00  0.00    +0.000 HD
ENDROOT
BRANCH  14  20
ATOM     20  C   UNL     1      -3.350  10.828  17.406  0.00  0.00    +0.000 C 
BRANCH  20  21
ATOM     21  C   UNL     1      -1.898  10.988  17.790  0.00  0.00    +0.000 A 
ATOM     22  C   UNL     1      -0.981   9.941  17.631  0.00  0.00    +0.000 A 
ATOM     23  C   UNL     1       0.327  10.082  18.101  0.00  0.00    +0.000 A 
ATOM     24 CL   UNL     1       1.436   8.777  17.923  0.00  0.00    +0.000 Cl
ATOM     25  C   UNL     1       0.739  11.254  18.731  0.00  0.00    +0.000 A 
ATOM     26  C   UNL     1      -0.170  12.296  18.892  0.00  0.00    +0.000 A 
ATOM     27 CL   UNL     1       0.316  13.740  19.691  0.00  0.00    +0.000 Cl
ATOM     28  C   UNL     1      -1.479  12.169  18.430  0.00  0.00    +0.000 A 
ENDBRANCH  20  21
ENDBRANCH  14  20
TORSDOF 2
ENDMDL
MODEL 9
REMARK VINA RESULT:      -6.6      7.813      9.140
REMARK  Name = 
REMARK  3 active torsions:
REMARK  status: ('A' for Active; 'I' for Inactive)
REMARK    1  A    between atoms: C_1  and  C_2
REMARK    2  A    between atoms: N_14  and  C_15
REMARK    3  A    between atoms: C_15  and  C_16
REMARK                            x       y       z     vdW  Elec       q    Type
REMARK                         _______ _______ _______ _____ _____    ______ ____
ROOT
ATOM      1  C   UNL     1       0.379  11.653  20.924  0.00  0.00    +0.000 C 
ATOM      2  C   UNL     1       1.287  12.712  20.394  0.00  0.00    +0.000 A 
ATOM      3  C   UNL     1       1.432  13.939  21.027  0.00  0.00    +0.000 A 
ATOM      4  C   UNL     1       2.307  14.885  20.496  0.00  0.00    +0.000 A 
ATOM      5  C   UNL     1       3.047  14.598  19.351  0.00  0.00    +0.000 A 
ATOM      6  N   UNL     1       3.974  15.492  18.867  0.00  0.00    +0.000 N 
ATOM      7  C   UNL     1       3.775  16.929  18.868  0.00  0.00    +0.000 C 
ATOM      8  C   UNL     1       4.942  17.559  19.613  0.00  0.00    +0.000 C 
ATOM      9  C   UNL     1       6.259  17.064  19.069  0.00  0.00    +0.000 A 
ATOM     10  N   UNL     1       7.335  17.830  19.343  0.00  0.00    +0.000 NA
ATOM     11  C   UNL     1       8.512  17.342  18.942  0.00  0.00    +0.000 A 
ATOM     12  N   UNL     1       8.712  16.185  18.298  0.00  0.00    +0.000 NA
ATOM     13  C   UNL     1       7.628  15.439  18.028  0.00  0.00    +0.000 A 
ATOM     14  N   UNL     1       7.798  14.192  17.434  0.00  0.00    +0.000 N 
ATOM     15  C   UNL     1       6.349  15.843  18.406  0.00  0.00    +0.000 A 
ATOM     16  C   UNL     1       5.135  14.981  18.146  0.00  0.00    +0.000 C 
ATOM     17  N   UNL     1       2.912  13.407  18.730  0.00  0.00    +0.000 NA
ATOM     18  C   UNL     1       2.039  12.506  19.247  0.00  0.00    +0.000 A 
ATOM     19  H   UNL     1       7.234  14.065  16.602  0.00  0.00    +0.000 HD
ENDROOT
BRANCH  14  20
ATOM     20  C   UNL     1       9.132  13.634  17.327  0.00  0.00    +0.000 C 
BRANCH  20  21
ATOM     21  C   UNL     1       9.219  12.547  18.372  0.00  0.00    +0.000 A 
ATOM     22  C   UNL     1       9.040  11.199  18.040  0.00  0.00    +0.000 A 
ATOM     23  C   UNL     1       9.013  10.231  19.046  0.00  0.00    +0.000 A 
ATOM     24 CL   UNL     1       8.765   8.579  18.625  0.00  0.00    +0.000 Cl
ATOM     25  C   UNL     1       9.163  10.584  20.384  0.00  0.00    +0.000 A 
ATOM     26  C   UNL     1       9.340  11.924  20.718  0.00  0.00    +0.000 A 
ATOM     27 CL   UNL     1       9.501  12.380  22.370  0.00  0.00    +0.000 Cl
ATOM     28  C   UNL     1       9.366  12.902  19.726  0.00  0.00    +0.000 A 
ENDBRANCH  20  21
ENDBRANCH  14  20
TORSDOF 2
ENDMDL
