MODEL 1
REMARK VINA RESULT:      -9.8      0.000      0.000
REMARK  Name = 
REMARK  5 active torsions:
REMARK  status: ('A' for Active; 'I' for Inactive)
REMARK    1  A    between atoms: N_3  and  C_4
REMARK    2  A    between atoms: N_16  and  C_17
REMARK    3  A    between atoms: C_17  and  C_18
REMARK    4  A    between atoms: C_22  and  O_23
REMARK    5  A    between atoms: O_23  and  C_24
REMARK                            x       y       z     vdW  Elec       q    Type
REMARK                         _______ _______ _______ _____ _____    ______ ____
ROOT
ATOM      1  O   UNL     1      -3.082  11.657  23.663  0.00  0.00    +0.000 OA
ATOM      2  C   UNL     1      -2.592  11.932  22.570  0.00  0.00    +0.000 C 
ATOM      3  N   UNL     1      -3.262  12.616  21.573  0.00  0.00    +0.000 N 
ATOM      4  N   UNL     1      -1.314  11.514  22.247  0.00  0.00    +0.000 N 
ATOM      5  C   UNL     1      -0.637  10.588  23.155  0.00  0.00    +0.000 C 
ATOM      6  C   UNL     1      -0.342   9.284  22.417  0.00  0.00    +0.000 C 
ATOM      7  C   UNL     1       0.306   9.547  21.078  0.00  0.00    +0.000 A 
ATOM      8  N   UNL     1       0.921   8.502  20.481  0.00  0.00    +0.000 NA
ATOM      9  C   UNL     1       1.593   8.736  19.345  0.00  0.00    +0.000 A 
ATOM     10  N   UNL     1       2.229   7.652  18.769  0.00  0.00    +0.000 N 
ATOM     11  N   UNL     1       1.636   9.938  18.755  0.00  0.00    +0.000 NA
ATOM     12  C   UNL     1       0.950  10.939  19.331  0.00  0.00    +0.000 A 
ATOM     13  C   UNL     1       0.243  10.804  20.501  0.00  0.00    +0.000 A 
ATOM     14  C   UNL     1      -0.488  11.952  21.125  0.00  0.00    +0.000 C 
ATOM     15  H   UNL     1      -2.990  12.400  20.629  0.00  0.00    +0.000 HD
ATOM     16  H   UNL     1       1.524   6.968  18.525  0.00  0.00    +0.000 HD
ENDROOT
BRANCH   3  17
ATOM     17  C   UNL     1      -4.545  13.202  21.703  0.00  0.00    +0.000 A 
ATOM     18  C   UNL     1      -4.761  14.449  22.295  0.00  0.00    +0.000 A 
ATOM     19  C   UNL     1      -6.056  14.951  22.451  0.00  0.00    +0.000 A 
ATOM     20  C   UNL     1      -7.146  14.218  21.996  0.00  0.00    +0.000 A 
ATOM     21  C   UNL     1      -6.942  12.992  21.366  0.00  0.00    +0.000 A 
ATOM     22  C   UNL     1      -5.646  12.487  21.215  0.00  0.00    +0.000 A 
ENDBRANCH   3  17
BRANCH  10  23
ATOM     23  C   UNL     1       3.228   7.935  17.759  0.00  0.00    +0.000 C 
BRANCH  23  24
ATOM     24  C   UNL     1       3.915   6.666  17.319  0.00  0.00    +0.000 A 
ATOM     25  C   UNL     1       4.845   6.681  16.271  0.00  0.00    +0.000 A 
ATOM     26  C   UNL     1       5.450   5.498  15.845  0.00  0.00    +0.000 A 
ATOM     27  C   UNL     1       5.092   4.281  16.426  0.00  0.00    +0.000 A 
ATOM     28  C   UNL     1       4.137   4.249  17.441  0.00  0.00    +0.000 A 
ATOM     29  C   UNL     1       3.598   5.445  17.928  0.00  0.00    +0.000 A 
BRANCH  28  30
ATOM     30  O   UNL     1       3.791   3.007  17.930  0.00  0.00    +0.000 OA
BRANCH  30  31
ATOM     31  C   UNL     1       2.908   2.932  18.988  0.00  0.00    +0.000 A 
ATOM     32  C   UNL     1       1.520   3.053  18.861  0.00  0.00    +0.000 A 
ATOM     33  C   UNL     1       0.708   3.046  19.994  0.00  0.00    +0.000 A 
ATOM     34  C   UNL     1       1.272   2.845  21.251  0.00  0.00    +0.000 A 
ATOM     35  C   UNL     1       2.647   2.645  21.375  0.00  0.00    +0.000 A 
ATOM     36  C   UNL     1       3.466   2.691  20.245  0.00  0.00    +0.000 A 
ENDBRANCH  30  31
ENDBRANCH  28  30
ENDBRANCH  23  24
ENDBRANCH  10  23
TORSDOF 5
ENDMDL
MODEL 2
REMARK VINA RESULT:      -9.5      0.346      1.189
REMARK  Name = 
REMARK  5 active torsions:
REMARK  status: ('A' for Active; 'I' for Inactive)
REMARK    1  A    between atoms: N_3  and  C_4
REMARK    2  A    between atoms: N_16  and  C_17
REMARK    3  A    between atoms: C_17  and  C_18
REMARK    4  A    between atoms: C_22  and  O_23
REMARK    5  A    between atoms: O_23  and  C_24
REMARK                            x       y       z     vdW  Elec       q    Type
REMARK                         _______ _______ _______ _____ _____    ______ ____
ROOT
ATOM      1  O   UNL     1      -3.042  11.822  23.352  0.00  0.00    +0.000 OA
ATOM      2  C   UNL     1      -2.551  12.052  22.249  0.00  0.00    +0.000 C 
ATOM      3  N   UNL     1      -3.225  12.681  21.219  0.00  0.00    +0.000 N 
ATOM      4  N   UNL     1      -1.266  11.637  21.952  0.00  0.00    +0.000 N 
ATOM      5  C   UNL     1      -0.582  10.762  22.905  0.00  0.00    +0.000 C 
ATOM      6  C   UNL     1      -0.266   9.430  22.229  0.00  0.00    +0.000 C 
ATOM      7  C   UNL     1       0.385   9.639  20.882  0.00  0.00    +0.000 A 
ATOM      8  N   UNL     1       1.017   8.576  20.337  0.00  0.00    +0.000 NA
ATOM      9  C   UNL     1       1.691   8.766  19.194  0.00  0.00    +0.000 A 
ATOM     10  N   UNL     1       2.344   7.665  18.672  0.00  0.00    +0.000 N 
ATOM     11  N   UNL     1       1.722   9.940  18.549  0.00  0.00    +0.000 NA
ATOM     12  C   UNL     1       1.019  10.957  19.075  0.00  0.00    +0.000 A 
ATOM     13  C   UNL     1       0.309  10.867  20.248  0.00  0.00    +0.000 A 
ATOM     14  C   UNL     1      -0.439  12.033  20.814  0.00  0.00    +0.000 C 
ATOM     15  H   UNL     1      -2.945  12.425  20.287  0.00  0.00    +0.000 HD
ATOM     16  H   UNL     1       1.649   6.962  18.456  0.00  0.00    +0.000 HD
ENDROOT
BRANCH   3  17
ATOM     17  C   UNL     1      -4.516  13.255  21.316  0.00  0.00    +0.000 A 
ATOM     18  C   UNL     1      -5.689  12.498  21.365  0.00  0.00    +0.000 A 
ATOM     19  C   UNL     1      -6.939  13.120  21.399  0.00  0.00    +0.000 A 
ATOM     20  C   UNL     1      -7.027  14.508  21.409  0.00  0.00    +0.000 A 
ATOM     21  C   UNL     1      -5.864  15.275  21.403  0.00  0.00    +0.000 A 
ATOM     22  C   UNL     1      -4.612  14.652  21.363  0.00  0.00    +0.000 A 
ENDBRANCH   3  17
BRANCH  10  23
ATOM     23  C   UNL     1       3.344   7.914  17.654  0.00  0.00    +0.000 C 
BRANCH  23  24
ATOM     24  C   UNL     1       3.996   6.624  17.220  0.00  0.00    +0.000 A 
ATOM     25  C   UNL     1       4.933   6.610  16.179  0.00  0.00    +0.000 A 
ATOM     26  C   UNL     1       5.506   5.408  15.758  0.00  0.00    +0.000 A 
ATOM     27  C   UNL     1       5.106   4.204  16.338  0.00  0.00    +0.000 A 
ATOM     28  C   UNL     1       4.144   4.202  17.347  0.00  0.00    +0.000 A 
ATOM     29  C   UNL     1       3.638   5.414  17.828  0.00  0.00    +0.000 A 
BRANCH  28  30
ATOM     30  O   UNL     1       3.757   2.972  17.834  0.00  0.00    +0.000 OA
BRANCH  30  31
ATOM     31  C   UNL     1       2.991   2.923  18.981  0.00  0.00    +0.000 A 
ATOM     32  C   UNL     1       3.517   2.777  20.270  0.00  0.00    +0.000 A 
ATOM     33  C   UNL     1       2.665   2.655  21.367  0.00  0.00    +0.000 A 
ATOM     34  C   UNL     1       1.288   2.752  21.190  0.00  0.00    +0.000 A 
ATOM     35  C   UNL     1       0.761   2.976  19.917  0.00  0.00    +0.000 A 
ATOM     36  C   UNL     1       1.612   3.059  18.813  0.00  0.00    +0.000 A 
ENDBRANCH  30  31
ENDBRANCH  28  30
ENDBRANCH  23  24
ENDBRANCH  10  23
TORSDOF 5
ENDMDL
MODEL 3
REMARK VINA RESULT:      -8.8      1.498      3.459
REMARK  Name = 
REMARK  5 active torsions:
REMARK  status: ('A' for Active; 'I' for Inactive)
REMARK    1  A    between atoms: N_3  and  C_4
REMARK    2  A    between atoms: N_16  and  C_17
REMARK    3  A    between atoms: C_17  and  C_18
REMARK    4  A    between atoms: C_22  and  O_23
REMARK    5  A    between atoms: O_23  and  C_24
REMARK                            x       y       z     vdW  Elec       q    Type
REMARK                         _______ _______ _______ _____ _____    ______ ____
ROOT
ATOM      1  O   UNL     1      -3.896  13.286  22.892  0.00  0.00    +0.000 OA
ATOM      2  C   UNL     1      -3.376  12.964  21.826  0.00  0.00    +0.000 C 
ATOM      3  N   UNL     1      -4.017  13.026  20.603  0.00  0.00    +0.000 N 
ATOM      4  N   UNL     1      -2.089  12.457  21.797  0.00  0.00    +0.000 N 
ATOM      5  C   UNL     1      -1.440  12.142  23.069  0.00  0.00    +0.000 C 
ATOM      6  C   UNL     1      -1.124  10.649  23.117  0.00  0.00    +0.000 C 
ATOM      7  C   UNL     1      -0.438  10.193  21.852  0.00  0.00    +0.000 A 
ATOM      8  N   UNL     1       0.193   8.998  21.895  0.00  0.00    +0.000 NA
ATOM      9  C   UNL     1       0.897   8.622  20.818  0.00  0.00    +0.000 A 
ATOM     10  N   UNL     1       1.549   7.406  20.901  0.00  0.00    +0.000 N 
ATOM     11  N   UNL     1       0.958   9.347  19.693  0.00  0.00    +0.000 NA
ATOM     12  C   UNL     1       0.256  10.492  19.653  0.00  0.00    +0.000 A 
ATOM     13  C   UNL     1      -0.484  10.970  20.708  0.00  0.00    +0.000 A 
ATOM     14  C   UNL     1      -1.231  12.266  20.631  0.00  0.00    +0.000 C 
ATOM     15  H   UNL     1      -3.718  12.357  19.913  0.00  0.00    +0.000 HD
ATOM     16  H   UNL     1       0.851   6.684  21.027  0.00  0.00    +0.000 HD
ENDROOT
BRANCH   3  17
ATOM     17  C   UNL     1      -5.303  13.577  20.380  0.00  0.00    +0.000 A 
ATOM     18  C   UNL     1      -5.582  14.941  20.498  0.00  0.00    +0.000 A 
ATOM     19  C   UNL     1      -6.883  15.420  20.326  0.00  0.00    +0.000 A 
ATOM     20  C   UNL     1      -7.914  14.541  20.012  0.00  0.00    +0.000 A 
ATOM     21  C   UNL     1      -7.641  13.184  19.850  0.00  0.00    +0.000 A 
ATOM     22  C   UNL     1      -6.339  12.704  20.028  0.00  0.00    +0.000 A 
ENDBRANCH   3  17
BRANCH  10  23
ATOM     23  C   UNL     1       2.576   7.140  19.914  0.00  0.00    +0.000 C 
BRANCH  23  24
ATOM     24  C   UNL     1       2.548   5.692  19.492  0.00  0.00    +0.000 A 
ATOM     25  C   UNL     1       2.072   4.702  20.362  0.00  0.00    +0.000 A 
ATOM     26  C   UNL     1       2.081   3.360  19.980  0.00  0.00    +0.000 A 
ATOM     27  C   UNL     1       2.616   2.989  18.746  0.00  0.00    +0.000 A 
ATOM     28  C   UNL     1       3.131   3.962  17.889  0.00  0.00    +0.000 A 
ATOM     29  C   UNL     1       3.039   5.314  18.236  0.00  0.00    +0.000 A 
BRANCH  28  30
ATOM     30  O   UNL     1       3.695   3.517  16.712  0.00  0.00    +0.000 OA
BRANCH  30  31
ATOM     31  C   UNL     1       4.958   3.957  16.374  0.00  0.00    +0.000 A 
ATOM     32  C   UNL     1       5.991   4.160  17.296  0.00  0.00    +0.000 A 
ATOM     33  C   UNL     1       7.213   4.685  16.878  0.00  0.00    +0.000 A 
ATOM     34  C   UNL     1       7.433   4.939  15.527  0.00  0.00    +0.000 A 
ATOM     35  C   UNL     1       6.434   4.665  14.593  0.00  0.00    +0.000 A 
ATOM     36  C   UNL     1       5.196   4.176  15.015  0.00  0.00    +0.000 A 
ENDBRANCH  30  31
ENDBRANCH  28  30
ENDBRANCH  23  24
ENDBRANCH  10  23
TORSDOF 5
ENDMDL
MODEL 4
REMARK VINA RESULT:      -8.7      1.560      3.754
REMARK  Name = 
REMARK  5 active torsions:
REMARK  status: ('A' for Active; 'I' for Inactive)
REMARK    1  A    between atoms: N_3  and  C_4
REMARK    2  A    between atoms: N_16  and  C_17
REMARK    3  A    between atoms: C_17  and  C_18
REMARK    4  A    between atoms: C_22  and  O_23
REMARK    5  A    between atoms: O_23  and  C_24
REMARK                            x       y       z     vdW  Elec       q    Type
REMARK                         _______ _______ _______ _____ _____    ______ ____
ROOT
ATOM      1  O   UNL     1      -3.159  12.266  23.569  0.00  0.00    +0.000 OA
ATOM      2  C   UNL     1      -2.784  12.249  22.399  0.00  0.00    +0.000 C 
ATOM      3  N   UNL     1      -3.589  12.581  21.325  0.00  0.00    +0.000 N 
ATOM      4  N   UNL     1      -1.505  11.835  22.076  0.00  0.00    +0.000 N 
ATOM      5  C   UNL     1      -0.680  11.247  23.131  0.00  0.00    +0.000 C 
ATOM      6  C   UNL     1      -0.332   9.808  22.755  0.00  0.00    +0.000 C 
ATOM      7  C   UNL     1       0.180   9.720  21.337  0.00  0.00    +0.000 A 
ATOM      8  N   UNL     1       0.834   8.588  20.993  0.00  0.00    +0.000 NA
ATOM      9  C   UNL     1       1.389   8.531  19.774  0.00  0.00    +0.000 A 
ATOM     10  N   UNL     1       2.069   7.369  19.459  0.00  0.00    +0.000 N 
ATOM     11  N   UNL     1       1.281   9.518  18.873  0.00  0.00    +0.000 NA
ATOM     12  C   UNL     1       0.558  10.597  19.218  0.00  0.00    +0.000 A 
ATOM     13  C   UNL     1      -0.038  10.756  20.445  0.00  0.00    +0.000 A 
ATOM     14  C   UNL     1      -0.813  11.987  20.799  0.00  0.00    +0.000 C 
ATOM     15  H   UNL     1      -3.377  12.123  20.455  0.00  0.00    +0.000 HD
ATOM     16  H   UNL     1       1.408   6.603  19.485  0.00  0.00    +0.000 HD
ENDROOT
BRANCH   3  17
ATOM     17  C   UNL     1      -4.904  13.101  21.418  0.00  0.00    +0.000 A 
ATOM     18  C   UNL     1      -6.050  12.308  21.316  0.00  0.00    +0.000 A 
ATOM     19  C   UNL     1      -7.322  12.883  21.354  0.00  0.00    +0.000 A 
ATOM     20  C   UNL     1      -7.460  14.257  21.518  0.00  0.00    +0.000 A 
ATOM     21  C   UNL     1      -6.327  15.055  21.663  0.00  0.00    +0.000 A 
ATOM     22  C   UNL     1      -5.053  14.479  21.619  0.00  0.00    +0.000 A 
ENDBRANCH   3  17
BRANCH  10  23
ATOM     23  C   UNL     1       2.955   7.415  18.313  0.00  0.00    +0.000 C 
BRANCH  23  24
ATOM     24  C   UNL     1       3.221   6.025  17.791  0.00  0.00    +0.000 A 
ATOM     25  C   UNL     1       2.244   5.025  17.886  0.00  0.00    +0.000 A 
ATOM     26  C   UNL     1       2.508   3.731  17.434  0.00  0.00    +0.000 A 
ATOM     27  C   UNL     1       3.770   3.412  16.932  0.00  0.00    +0.000 A 
ATOM     28  C   UNL     1       4.763   4.388  16.870  0.00  0.00    +0.000 A 
ATOM     29  C   UNL     1       4.468   5.705  17.240  0.00  0.00    +0.000 A 
BRANCH  28  30
ATOM     30  O   UNL     1       6.002   3.988  16.416  0.00  0.00    +0.000 OA
BRANCH  30  31
ATOM     31  C   UNL     1       6.295   4.129  15.074  0.00  0.00    +0.000 A 
ATOM     32  C   UNL     1       5.641   3.432  14.052  0.00  0.00    +0.000 A 
ATOM     33  C   UNL     1       6.057   3.575  12.728  0.00  0.00    +0.000 A 
ATOM     34  C   UNL     1       7.076   4.470  12.414  0.00  0.00    +0.000 A 
ATOM     35  C   UNL     1       7.678   5.225  13.420  0.00  0.00    +0.000 A 
ATOM     36  C   UNL     1       7.289   5.054  14.750  0.00  0.00    +0.000 A 
ENDBRANCH  30  31
ENDBRANCH  28  30
ENDBRANCH  23  24
ENDBRANCH  10  23
TORSDOF 5
ENDMDL
MODEL 5
REMARK VINA RESULT:      -8.5      2.739     10.390
REMARK  Name = 
REMARK  5 active torsions:
REMARK  status: ('A' for Active; 'I' for Inactive)
REMARK    1  A    between atoms: N_3  and  C_4
REMARK    2  A    between atoms: N_16  and  C_17
REMARK    3  A    between atoms: C_17  and  C_18
REMARK    4  A    between atoms: C_22  and  O_23
REMARK    5  A    between atoms: O_23  and  C_24
REMARK                            x       y       z     vdW  Elec       q    Type
REMARK                         _______ _______ _______ _____ _____    ______ ____
ROOT
ATOM      1  O   UNL     1       3.474   5.243  19.647  0.00  0.00    +0.000 OA
ATOM      2  C   UNL     1       3.305   6.249  18.961  0.00  0.00    +0.000 C 
ATOM      3  N   UNL     1       4.175   6.662  17.969  0.00  0.00    +0.000 N 
ATOM      4  N   UNL     1       2.223   7.080  19.186  0.00  0.00    +0.000 N 
ATOM      5  C   UNL     1       1.396   6.837  20.368  0.00  0.00    +0.000 C 
ATOM      6  C   UNL     1       1.451   8.059  21.281  0.00  0.00    +0.000 C 
ATOM      7  C   UNL     1       1.206   9.333  20.508  0.00  0.00    +0.000 A 
ATOM      8  N   UNL     1       0.892  10.434  21.227  0.00  0.00    +0.000 NA
ATOM      9  C   UNL     1       0.567  11.548  20.557  0.00  0.00    +0.000 A 
ATOM     10  N   UNL     1       0.230  12.651  21.320  0.00  0.00    +0.000 N 
ATOM     11  N   UNL     1       0.590  11.632  19.220  0.00  0.00    +0.000 NA
ATOM     12  C   UNL     1       0.983  10.543  18.536  0.00  0.00    +0.000 A 
ATOM     13  C   UNL     1       1.322   9.351  19.129  0.00  0.00    +0.000 A 
ATOM     14  C   UNL     1       1.728   8.153  18.328  0.00  0.00    +0.000 C 
ATOM     15  H   UNL     1       4.214   7.653  17.800  0.00  0.00    +0.000 HD
ATOM     16  H   UNL     1       1.036  12.903  21.879  0.00  0.00    +0.000 HD
ENDROOT
BRANCH   3  17
ATOM     17  C   UNL     1       5.303   5.936  17.515  0.00  0.00    +0.000 A 
ATOM     18  C   UNL     1       5.312   5.194  16.331  0.00  0.00    +0.000 A 
ATOM     19  C   UNL     1       6.434   4.447  15.964  0.00  0.00    +0.000 A 
ATOM     20  C   UNL     1       7.569   4.455  16.768  0.00  0.00    +0.000 A 
ATOM     21  C   UNL     1       7.589   5.224  17.930  0.00  0.00    +0.000 A 
ATOM     22  C   UNL     1       6.463   5.966  18.300  0.00  0.00    +0.000 A 
ENDBRANCH   3  17
BRANCH  10  23
ATOM     23  C   UNL     1      -0.448  13.738  20.643  0.00  0.00    +0.000 C 
BRANCH  23  24
ATOM     24  C   UNL     1      -1.943  13.542  20.686  0.00  0.00    +0.000 A 
ATOM     25  C   UNL     1      -2.715  14.146  21.688  0.00  0.00    +0.000 A 
ATOM     26  C   UNL     1      -4.093  13.932  21.745  0.00  0.00    +0.000 A 
ATOM     27  C   UNL     1      -4.704  13.071  20.833  0.00  0.00    +0.000 A 
ATOM     28  C   UNL     1      -3.939  12.433  19.857  0.00  0.00    +0.000 A 
ATOM     29  C   UNL     1      -2.574  12.718  19.747  0.00  0.00    +0.000 A 
BRANCH  28  30
ATOM     30  O   UNL     1      -4.600  11.552  19.027  0.00  0.00    +0.000 OA
BRANCH  30  31
ATOM     31  C   UNL     1      -3.937  11.056  17.923  0.00  0.00    +0.000 A 
ATOM     32  C   UNL     1      -2.879  10.143  17.988  0.00  0.00    +0.000 A 
ATOM     33  C   UNL     1      -2.212   9.756  16.826  0.00  0.00    +0.000 A 
ATOM     34  C   UNL     1      -2.647  10.223  15.589  0.00  0.00    +0.000 A 
ATOM     35  C   UNL     1      -3.751  11.072  15.511  0.00  0.00    +0.000 A 
ATOM     36  C   UNL     1      -4.395  11.491  16.677  0.00  0.00    +0.000 A 
ENDBRANCH  30  31
ENDBRANCH  28  30
ENDBRANCH  23  24
ENDBRANCH  10  23
TORSDOF 5
ENDMDL
MODEL 6
REMARK VINA RESULT:      -8.5      3.198      5.112
REMARK  Name = 
REMARK  5 active torsions:
REMARK  status: ('A' for Active; 'I' for Inactive)
REMARK    1  A    between atoms: N_3  and  C_4
REMARK    2  A    between atoms: N_16  and  C_17
REMARK    3  A    between atoms: C_17  and  C_18
REMARK    4  A    between atoms: C_22  and  O_23
REMARK    5  A    between atoms: O_23  and  C_24
REMARK                            x       y       z     vdW  Elec       q    Type
REMARK                         _______ _______ _______ _____ _____    ______ ____
ROOT
ATOM      1  O   UNL     1      -1.446  13.709  20.064  0.00  0.00    +0.000 OA
ATOM      2  C   UNL     1      -0.809  12.876  20.706  0.00  0.00    +0.000 C 
ATOM      3  N   UNL     1      -0.101  13.165  21.857  0.00  0.00    +0.000 N 
ATOM      4  N   UNL     1      -0.723  11.567  20.268  0.00  0.00    +0.000 N 
ATOM      5  C   UNL     1      -1.245  11.244  18.941  0.00  0.00    +0.000 C 
ATOM      6  C   UNL     1      -0.108  10.724  18.064  0.00  0.00    +0.000 C 
ATOM      7  C   UNL     1       0.692   9.660  18.778  0.00  0.00    +0.000 A 
ATOM      8  N   UNL     1       1.496   8.886  18.015  0.00  0.00    +0.000 NA
ATOM      9  C   UNL     1       2.134   7.868  18.611  0.00  0.00    +0.000 A 
ATOM     10  N   UNL     1       2.932   7.082  17.801  0.00  0.00    +0.000 N 
ATOM     11  N   UNL     1       2.049   7.619  19.924  0.00  0.00    +0.000 NA
ATOM     12  C   UNL     1       1.304   8.454  20.668  0.00  0.00    +0.000 A 
ATOM     13  C   UNL     1       0.602   9.516  20.151  0.00  0.00    +0.000 A 
ATOM     14  C   UNL     1      -0.239  10.407  21.012  0.00  0.00    +0.000 C 
ATOM     15  H   UNL     1       0.706  12.591  22.036  0.00  0.00    +0.000 HD
ATOM     16  H   UNL     1       3.665   7.667  17.420  0.00  0.00    +0.000 HD
ENDROOT
BRANCH   3  17
ATOM     17  C   UNL     1      -0.104  14.412  22.528  0.00  0.00    +0.000 A 
ATOM     18  C   UNL     1       0.829  15.421  22.273  0.00  0.00    +0.000 A 
ATOM     19  C   UNL     1       0.815  16.608  23.009  0.00  0.00    +0.000 A 
ATOM     20  C   UNL     1      -0.147  16.808  23.992  0.00  0.00    +0.000 A 
ATOM     21  C   UNL     1      -1.110  15.827  24.228  0.00  0.00    +0.000 A 
ATOM     22  C   UNL     1      -1.092  14.636  23.495  0.00  0.00    +0.000 A 
ENDBRANCH   3  17
BRANCH  10  23
ATOM     23  C   UNL     1       3.345   5.798  18.330  0.00  0.00    +0.000 C 
BRANCH  23  24
ATOM     24  C   UNL     1       4.825   5.589  18.125  0.00  0.00    +0.000 A 
ATOM     25  C   UNL     1       5.670   5.339  19.214  0.00  0.00    +0.000 A 
ATOM     26  C   UNL     1       7.044   5.183  19.023  0.00  0.00    +0.000 A 
ATOM     27  C   UNL     1       7.592   5.327  17.748  0.00  0.00    +0.000 A 
ATOM     28  C   UNL     1       6.766   5.616  16.663  0.00  0.00    +0.000 A 
ATOM     29  C   UNL     1       5.380   5.684  16.843  0.00  0.00    +0.000 A 
BRANCH  28  30
ATOM     30  O   UNL     1       7.382   5.801  15.444  0.00  0.00    +0.000 OA
BRANCH  30  31
ATOM     31  C   UNL     1       6.965   5.045  14.367  0.00  0.00    +0.000 A 
ATOM     32  C   UNL     1       5.843   4.209  14.384  0.00  0.00    +0.000 A 
ATOM     33  C   UNL     1       5.539   3.418  13.277  0.00  0.00    +0.000 A 
ATOM     34  C   UNL     1       6.312   3.515  12.123  0.00  0.00    +0.000 A 
ATOM     35  C   UNL     1       7.385   4.405  12.073  0.00  0.00    +0.000 A 
ATOM     36  C   UNL     1       7.713   5.169  13.195  0.00  0.00    +0.000 A 
ENDBRANCH  30  31
ENDBRANCH  28  30
ENDBRANCH  23  24
ENDBRANCH  10  23
TORSDOF 5
ENDMDL
MODEL 7
REMARK VINA RESULT:      -8.4      3.222      5.397
REMARK  Name = 
REMARK  5 active torsions:
REMARK  status: ('A' for Active; 'I' for Inactive)
REMARK    1  A    between atoms: N_3  and  C_4
REMARK    2  A    between atoms: N_16  and  C_17
REMARK    3  A    between atoms: C_17  and  C_18
REMARK    4  A    between atoms: C_22  and  O_23
REMARK    5  A    between atoms: O_23  and  C_24
REMARK                            x       y       z     vdW  Elec       q    Type
REMARK                         _______ _______ _______ _____ _____    ______ ____
ROOT
ATOM      1  O   UNL     1      -0.969  10.935  19.947  0.00  0.00    +0.000 OA
ATOM      2  C   UNL     1      -0.539  10.266  19.010  0.00  0.00    +0.000 C 
ATOM      3  N   UNL     1      -1.227  10.059  17.829  0.00  0.00    +0.000 N 
ATOM      4  N   UNL     1       0.680   9.620  19.108  0.00  0.00    +0.000 N 
ATOM      5  C   UNL     1       1.350   9.599  20.408  0.00  0.00    +0.000 C 
ATOM      6  C   UNL     1       1.499   8.152  20.874  0.00  0.00    +0.000 C 
ATOM      7  C   UNL     1       2.068   7.280  19.781  0.00  0.00    +0.000 A 
ATOM      8  N   UNL     1       2.564   6.078  20.154  0.00  0.00    +0.000 NA
ATOM      9  C   UNL     1       3.169   5.333  19.218  0.00  0.00    +0.000 A 
ATOM     10  N   UNL     1       3.684   4.119  19.634  0.00  0.00    +0.000 N 
ATOM     11  N   UNL     1       3.257   5.701  17.933  0.00  0.00    +0.000 NA
ATOM     12  C   UNL     1       2.686   6.864  17.579  0.00  0.00    +0.000 A 
ATOM     13  C   UNL     1       2.055   7.705  18.464  0.00  0.00    +0.000 A 
ATOM     14  C   UNL     1       1.455   9.007  18.032  0.00  0.00    +0.000 C 
ATOM     15  H   UNL     1      -1.038   9.193  17.353  0.00  0.00    +0.000 HD
ATOM     16  H   UNL     1       2.916   3.551  19.970  0.00  0.00    +0.000 HD
ENDROOT
BRANCH   3  17
ATOM     17  C   UNL     1      -2.453  10.676  17.476  0.00  0.00    +0.000 A 
ATOM     18  C   UNL     1      -3.258  11.358  18.393  0.00  0.00    +0.000 A 
ATOM     19  C   UNL     1      -4.487  11.895  18.002  0.00  0.00    +0.000 A 
ATOM     20  C   UNL     1      -4.912  11.775  16.684  0.00  0.00    +0.000 A 
ATOM     21  C   UNL     1      -4.099  11.134  15.750  0.00  0.00    +0.000 A 
ATOM     22  C   UNL     1      -2.871  10.591  16.143  0.00  0.00    +0.000 A 
ENDBRANCH   3  17
BRANCH  10  23
ATOM     23  C   UNL     1       4.627   3.466  18.749  0.00  0.00    +0.000 C 
BRANCH  23  24
ATOM     24  C   UNL     1       5.756   4.400  18.392  0.00  0.00    +0.000 A 
ATOM     25  C   UNL     1       6.451   5.098  19.389  0.00  0.00    +0.000 A 
ATOM     26  C   UNL     1       7.471   5.988  19.050  0.00  0.00    +0.000 A 
ATOM     27  C   UNL     1       7.770   6.230  17.709  0.00  0.00    +0.000 A 
ATOM     28  C   UNL     1       7.057   5.572  16.707  0.00  0.00    +0.000 A 
ATOM     29  C   UNL     1       6.097   4.614  17.050  0.00  0.00    +0.000 A 
BRANCH  28  30
ATOM     30  O   UNL     1       7.367   5.902  15.405  0.00  0.00    +0.000 OA
BRANCH  30  31
ATOM     31  C   UNL     1       6.901   5.095  14.386  0.00  0.00    +0.000 A 
ATOM     32  C   UNL     1       5.700   4.379  14.441  0.00  0.00    +0.000 A 
ATOM     33  C   UNL     1       5.345   3.523  13.399  0.00  0.00    +0.000 A 
ATOM     34  C   UNL     1       6.151   3.437  12.267  0.00  0.00    +0.000 A 
ATOM     35  C   UNL     1       7.309   4.208  12.174  0.00  0.00    +0.000 A 
ATOM     36  C   UNL     1       7.686   5.036  13.233  0.00  0.00    +0.000 A 
ENDBRANCH  30  31
ENDBRANCH  28  30
ENDBRANCH  23  24
ENDBRANCH  10  23
TORSDOF 5
ENDMDL
MODEL 8
REMARK VINA RESULT:      -8.4      2.721     10.293
REMARK  Name = 
REMARK  5 active torsions:
REMARK  status: ('A' for Active; 'I' for Inactive)
REMARK    1  A    between atoms: N_3  and  C_4
REMARK    2  A    between atoms: N_16  and  C_17
REMARK    3  A    between atoms: C_17  and  C_18
REMARK    4  A    between atoms: C_22  and  O_23
REMARK    5  A    between atoms: O_23  and  C_24
REMARK                            x       y       z     vdW  Elec       q    Type
REMARK                         _______ _______ _______ _____ _____    ______ ____
ROOT
ATOM      1  O   UNL     1       3.412   5.340  19.758  0.00  0.00    +0.000 OA
ATOM      2  C   UNL     1       3.236   6.325  19.044  0.00  0.00    +0.000 C 
ATOM      3  N   UNL     1       4.083   6.695  18.016  0.00  0.00    +0.000 N 
ATOM      4  N   UNL     1       2.170   7.176  19.270  0.00  0.00    +0.000 N 
ATOM      5  C   UNL     1       1.373   6.982  20.481  0.00  0.00    +0.000 C 
ATOM      6  C   UNL     1       1.467   8.233  21.352  0.00  0.00    +0.000 C 
ATOM      7  C   UNL     1       1.215   9.483  20.545  0.00  0.00    +0.000 A 
ATOM      8  N   UNL     1       0.933  10.611  21.235  0.00  0.00    +0.000 NA
ATOM      9  C   UNL     1       0.603  11.707  20.538  0.00  0.00    +0.000 A 
ATOM     10  N   UNL     1       0.299  12.838  21.273  0.00  0.00    +0.000 N 
ATOM     11  N   UNL     1       0.591  11.746  19.199  0.00  0.00    +0.000 NA
ATOM     12  C   UNL     1       0.952  10.632  18.541  0.00  0.00    +0.000 A 
ATOM     13  C   UNL     1       1.293   9.456  19.163  0.00  0.00    +0.000 A 
ATOM     14  C   UNL     1       1.664   8.227  18.391  0.00  0.00    +0.000 C 
ATOM     15  H   UNL     1       4.129   7.680  17.814  0.00  0.00    +0.000 HD
ATOM     16  H   UNL     1       1.122  13.098  21.802  0.00  0.00    +0.000 HD
ENDROOT
BRANCH   3  17
ATOM     17  C   UNL     1       5.191   5.941  17.557  0.00  0.00    +0.000 A 
ATOM     18  C   UNL     1       6.487   6.105  18.053  0.00  0.00    +0.000 A 
ATOM     19  C   UNL     1       7.553   5.376  17.519  0.00  0.00    +0.000 A 
ATOM     20  C   UNL     1       7.327   4.458  16.499  0.00  0.00    +0.000 A 
ATOM     21  C   UNL     1       6.033   4.255  16.024  0.00  0.00    +0.000 A 
ATOM     22  C   UNL     1       4.967   4.989  16.554  0.00  0.00    +0.000 A 
ENDBRANCH   3  17
BRANCH  10  23
ATOM     23  C   UNL     1      -0.384  13.910  20.579  0.00  0.00    +0.000 C 
BRANCH  23  24
ATOM     24  C   UNL     1      -1.878  13.705  20.621  0.00  0.00    +0.000 A 
ATOM     25  C   UNL     1      -2.668  14.385  21.557  0.00  0.00    +0.000 A 
ATOM     26  C   UNL     1      -4.045  14.164  21.615  0.00  0.00    +0.000 A 
ATOM     27  C   UNL     1      -4.637  13.221  20.775  0.00  0.00    +0.000 A 
ATOM     28  C   UNL     1      -3.854  12.508  19.868  0.00  0.00    +0.000 A 
ATOM     29  C   UNL     1      -2.490  12.796  19.749  0.00  0.00    +0.000 A 
BRANCH  28  30
ATOM     30  O   UNL     1      -4.496  11.553  19.109  0.00  0.00    +0.000 OA
BRANCH  30  31
ATOM     31  C   UNL     1      -3.908  11.133  17.933  0.00  0.00    +0.000 A 
ATOM     32  C   UNL     1      -4.272  11.599  16.665  0.00  0.00    +0.000 A 
ATOM     33  C   UNL     1      -3.681  11.060  15.522  0.00  0.00    +0.000 A 
ATOM     34  C   UNL     1      -2.673  10.108  15.646  0.00  0.00    +0.000 A 
ATOM     35  C   UNL     1      -2.252   9.697  16.911  0.00  0.00    +0.000 A 
ATOM     36  C   UNL     1      -2.870  10.207  18.054  0.00  0.00    +0.000 A 
ENDBRANCH  30  31
ENDBRANCH  28  30
ENDBRANCH  23  24
ENDBRANCH  10  23
TORSDOF 5
ENDMDL
MODEL 9
REMARK VINA RESULT:      -8.3      2.693      4.622
REMARK  Name = 
REMARK  5 active torsions:
REMARK  status: ('A' for Active; 'I' for Inactive)
REMARK    1  A    between atoms: N_3  and  C_4
REMARK    2  A    between atoms: N_16  and  C_17
REMARK    3  A    between atoms: C_17  and  C_18
REMARK    4  A    between atoms: C_22  and  O_23
REMARK    5  A    between atoms: O_23  and  C_24
REMARK                            x       y       z     vdW  Elec       q    Type
REMARK                         _______ _______ _______ _____ _____    ______ ____
ROOT
ATOM      1  O   UNL     1      -0.476  14.870  19.465  0.00  0.00    +0.000 OA
ATOM      2  C   UNL     1      -0.595  14.031  20.356  0.00  0.00    +0.000 C 
ATOM      3  N   UNL     1      -0.608  14.334  21.705  0.00  0.00    +0.000 N 
ATOM      4  N   UNL     1      -0.675  12.685  20.049  0.00  0.00    +0.000 N 
ATOM      5  C   UNL     1      -0.430  12.274  18.666  0.00  0.00    +0.000 C 
ATOM      6  C   UNL     1       0.785  11.349  18.624  0.00  0.00    +0.000 C 
ATOM      7  C   UNL     1       0.682  10.262  19.667  0.00  0.00    +0.000 A 
ATOM      8  N   UNL     1       1.499   9.195  19.520  0.00  0.00    +0.000 NA
ATOM      9  C   UNL     1       1.352   8.171  20.373  0.00  0.00    +0.000 A 
ATOM     10  N   UNL     1       2.187   7.085  20.184  0.00  0.00    +0.000 N 
ATOM     11  N   UNL     1       0.475   8.182  21.386  0.00  0.00    +0.000 NA
ATOM     12  C   UNL     1      -0.267   9.290  21.553  0.00  0.00    +0.000 A 
ATOM     13  C   UNL     1      -0.201  10.385  20.726  0.00  0.00    +0.000 A 
ATOM     14  C   UNL     1      -1.066  11.589  20.931  0.00  0.00    +0.000 C 
ATOM     15  H   UNL     1      -0.257  13.620  22.322  0.00  0.00    +0.000 HD
ATOM     16  H   UNL     1       3.141   7.399  20.308  0.00  0.00    +0.000 HD
ENDROOT
BRANCH   3  17
ATOM     17  C   UNL     1      -0.613  15.641  22.250  0.00  0.00    +0.000 A 
ATOM     18  C   UNL     1       0.529  16.260  22.765  0.00  0.00    +0.000 A 
ATOM     19  C   UNL     1       0.453  17.528  23.347  0.00  0.00    +0.000 A 
ATOM     20  C   UNL     1      -0.764  18.199  23.397  0.00  0.00    +0.000 A 
ATOM     21  C   UNL     1      -1.903  17.611  22.850  0.00  0.00    +0.000 A 
ATOM     22  C   UNL     1      -1.827  16.339  22.273  0.00  0.00    +0.000 A 
ENDBRANCH   3  17
BRANCH  10  23
ATOM     23  C   UNL     1       1.824   5.852  20.851  0.00  0.00    +0.000 C 
BRANCH  23  24
ATOM     24  C   UNL     1       1.841   4.697  19.881  0.00  0.00    +0.000 A 
ATOM     25  C   UNL     1       0.950   3.625  20.028  0.00  0.00    +0.000 A 
ATOM     26  C   UNL     1       0.993   2.542  19.148  0.00  0.00    +0.000 A 
ATOM     27  C   UNL     1       1.963   2.496  18.146  0.00  0.00    +0.000 A 
ATOM     28  C   UNL     1       2.881   3.537  18.016  0.00  0.00    +0.000 A 
ATOM     29  C   UNL     1       2.778   4.662  18.841  0.00  0.00    +0.000 A 
BRANCH  28  30
ATOM     30  O   UNL     1       3.845   3.397  17.041  0.00  0.00    +0.000 OA
BRANCH  30  31
ATOM     31  C   UNL     1       4.957   4.214  17.085  0.00  0.00    +0.000 A 
ATOM     32  C   UNL     1       5.932   4.157  18.087  0.00  0.00    +0.000 A 
ATOM     33  C   UNL     1       6.982   5.074  18.098  0.00  0.00    +0.000 A 
ATOM     34  C   UNL     1       7.102   6.004  17.069  0.00  0.00    +0.000 A 
ATOM     35  C   UNL     1       6.177   6.014  16.025  0.00  0.00    +0.000 A 
ATOM     36  C   UNL     1       5.104   5.120  16.033  0.00  0.00    +0.000 A 
ENDBRANCH  30  31
ENDBRANCH  28  30
ENDBRANCH  23  24
ENDBRANCH  10  23
TORSDOF 5
ENDMDL
