MODEL 1
REMARK VINA RESULT:      -6.8      0.000      0.000
REMARK  Name = 
REMARK  8 active torsions:
REMARK  status: ('A' for Active; 'I' for Inactive)
REMARK    1  A    between atoms: C_1  and  C_2
REMARK    2  A    between atoms: C_2  and  N_3
REMARK    3  A    between atoms: C_2  and  C_19
REMARK    4  A    between atoms: N_6  and  C_7
REMARK    5  A    between atoms: C_7  and  C_8
REMARK    6  A    between atoms: C_8  and  N_9
REMARK    7  A    between atoms: N_9  and  C_10
REMARK    8  A    between atoms: C_16  and  C_17
REMARK                            x       y       z     vdW  Elec       q    Type
REMARK                         _______ _______ _______ _____ _____    ______ ____
ROOT
ATOM      1  N   UNL     1       2.529   6.906  19.807  0.00  0.00    +0.000 N 
ATOM      2  C   UNL     1       2.452   5.572  19.566  0.00  0.00    +0.000 C 
ATOM      3  O   UNL     1       1.837   5.132  18.601  0.00  0.00    +0.000 OA
ATOM      4  N   UNL     1       3.188   4.803  20.420  0.00  0.00    +0.000 N 
ATOM      5  H   UNL     1       2.781   7.265  20.716  0.00  0.00    +0.000 HD
ATOM      6  H   UNL     1       3.458   5.218  21.300  0.00  0.00    +0.000 HD
ENDROOT
BRANCH   1   8
ATOM      7  C   UNL     1       2.906   8.239  17.772  0.00  0.00    +0.000 C 
ATOM      8  C   UNL     1       1.915   7.837  18.862  0.00  0.00    +0.000 C 
BRANCH   8   9
ATOM      9  C   UNL     1       1.392   9.026  19.622  0.00  0.00    +0.000 A 
ATOM     10  N   UNL     1       1.279  10.248  19.135  0.00  0.00    +0.000 NA
ATOM     11  C   UNL     1       0.845  11.100  20.133  0.00  0.00    +0.000 A 
ATOM     12  C   UNL     1       0.644  10.524  21.367  0.00  0.00    +0.000 A 
ATOM     13  S   UNL     1       0.968   8.848  21.285  0.00  0.00    +0.000 S 
ENDBRANCH   8   9
ENDBRANCH   1   8
BRANCH   4  14
ATOM     14  C   UNL     1       3.253   3.342  20.310  0.00  0.00    +0.000 C 
BRANCH  14  15
ATOM     15  C   UNL     1       4.026   2.814  19.082  0.00  0.00    +0.000 C 
BRANCH  15  16
ATOM     16  N   UNL     1       5.418   3.292  19.015  0.00  0.00    +0.000 N 
ATOM     17  H   UNL     1       6.055   2.514  18.834  0.00  0.00    +0.000 HD
BRANCH  16  18
ATOM     18  C   UNL     1       5.627   4.353  18.085  0.00  0.00    +0.000 A 
ATOM     19  C   UNL     1       4.858   4.440  16.905  0.00  0.00    +0.000 A 
ATOM     20  C   UNL     1       4.994   5.503  16.004  0.00  0.00    +0.000 A 
ATOM     21  C   UNL     1       5.884   6.528  16.276  0.00  0.00    +0.000 A 
ATOM     22  C   UNL     1       6.630   6.483  17.449  0.00  0.00    +0.000 A 
ATOM     23  F   UNL     1       7.483   7.491  17.695  0.00  0.00    +0.000 F 
ATOM     24  C   UNL     1       6.507   5.425  18.357  0.00  0.00    +0.000 A 
BRANCH  24  25
ATOM     25  C   UNL     1       7.330   5.452  19.527  0.00  0.00    +0.000 C 
ATOM     26  N   UNL     1       8.030   5.477  20.450  0.00  0.00    +0.000 NA
ENDBRANCH  24  25
ENDBRANCH  16  18
ENDBRANCH  15  16
ENDBRANCH  14  15
ENDBRANCH   4  14
TORSDOF 7
ENDMDL
MODEL 2
REMARK VINA RESULT:      -6.5      3.256      7.249
REMARK  Name = 
REMARK  8 active torsions:
REMARK  status: ('A' for Active; 'I' for Inactive)
REMARK    1  A    between atoms: C_1  and  C_2
REMARK    2  A    between atoms: C_2  and  N_3
REMARK    3  A    between atoms: C_2  and  C_19
REMARK    4  A    between atoms: N_6  and  C_7
REMARK    5  A    between atoms: C_7  and  C_8
REMARK    6  A    between atoms: C_8  and  N_9
REMARK    7  A    between atoms: N_9  and  C_10
REMARK    8  A    between atoms: C_16  and  C_17
REMARK                            x       y       z     vdW  Elec       q    Type
REMARK                         _______ _______ _______ _____ _____    ______ ____
ROOT
ATOM      1  N   UNL     1       5.353   5.955  18.221  0.00  0.00    +0.000 N 
ATOM      2  C   UNL     1       4.474   5.265  18.992  0.00  0.00    +0.000 C 
ATOM      3  O   UNL     1       4.740   4.147  19.419  0.00  0.00    +0.000 OA
ATOM      4  N   UNL     1       3.345   5.960  19.317  0.00  0.00    +0.000 N 
ATOM      5  H   UNL     1       5.056   6.729  17.645  0.00  0.00    +0.000 HD
ATOM      6  H   UNL     1       3.111   6.756  18.742  0.00  0.00    +0.000 HD
ENDROOT
BRANCH   1   8
ATOM      7  C   UNL     1       7.781   6.334  18.354  0.00  0.00    +0.000 C 
ATOM      8  C   UNL     1       6.666   5.375  17.944  0.00  0.00    +0.000 C 
BRANCH   8   9
ATOM      9  C   UNL     1       6.737   5.008  16.487  0.00  0.00    +0.000 A 
ATOM     10  N   UNL     1       7.477   5.627  15.585  0.00  0.00    +0.000 NA
ATOM     11  C   UNL     1       7.232   5.080  14.339  0.00  0.00    +0.000 A 
ATOM     12  C   UNL     1       6.305   4.062  14.304  0.00  0.00    +0.000 A 
ATOM     13  S   UNL     1       5.737   3.740  15.883  0.00  0.00    +0.000 S 
ENDBRANCH   8   9
ENDBRANCH   1   8
BRANCH   4  14
ATOM     14  C   UNL     1       2.286   5.397  20.161  0.00  0.00    +0.000 C 
BRANCH  14  15
ATOM     15  C   UNL     1       1.380   6.438  20.853  0.00  0.00    +0.000 C 
BRANCH  15  16
ATOM     16  N   UNL     1       1.982   7.782  20.926  0.00  0.00    +0.000 N 
ATOM     17  H   UNL     1       2.634   7.923  20.151  0.00  0.00    +0.000 HD
BRANCH  16  18
ATOM     18  C   UNL     1       1.032   8.843  20.997  0.00  0.00    +0.000 A 
ATOM     19  C   UNL     1       0.395   9.161  22.216  0.00  0.00    +0.000 A 
ATOM     20  C   UNL     1      -0.493  10.237  22.333  0.00  0.00    +0.000 A 
ATOM     21  C   UNL     1      -0.744  11.046  21.239  0.00  0.00    +0.000 A 
ATOM     22  C   UNL     1      -0.103  10.776  20.035  0.00  0.00    +0.000 A 
ATOM     23  F   UNL     1      -0.357  11.578  18.989  0.00  0.00    +0.000 F 
ATOM     24  C   UNL     1       0.784   9.702  19.902  0.00  0.00    +0.000 A 
BRANCH  24  25
ATOM     25  C   UNL     1       1.382   9.486  18.620  0.00  0.00    +0.000 C 
ATOM     26  N   UNL     1       1.846   9.345  17.567  0.00  0.00    +0.000 NA
ENDBRANCH  24  25
ENDBRANCH  16  18
ENDBRANCH  15  16
ENDBRANCH  14  15
ENDBRANCH   4  14
TORSDOF 7
ENDMDL
MODEL 3
REMARK VINA RESULT:      -6.4      4.951      6.417
REMARK  Name = 
REMARK  8 active torsions:
REMARK  status: ('A' for Active; 'I' for Inactive)
REMARK    1  A    between atoms: C_1  and  C_2
REMARK    2  A    between atoms: C_2  and  N_3
REMARK    3  A    between atoms: C_2  and  C_19
REMARK    4  A    between atoms: N_6  and  C_7
REMARK    5  A    between atoms: C_7  and  C_8
REMARK    6  A    between atoms: C_8  and  N_9
REMARK    7  A    between atoms: N_9  and  C_10
REMARK    8  A    between atoms: C_16  and  C_17
REMARK                            x       y       z     vdW  Elec       q    Type
REMARK                         _______ _______ _______ _____ _____    ______ ____
ROOT
ATOM      1  N   UNL     1       9.249   9.888  19.166  0.00  0.00    +0.000 N 
ATOM      2  C   UNL     1       8.457   9.013  18.494  0.00  0.00    +0.000 C 
ATOM      3  O   UNL     1       7.776   9.373  17.539  0.00  0.00    +0.000 OA
ATOM      4  N   UNL     1       8.568   7.718  18.911  0.00  0.00    +0.000 N 
ATOM      5  H   UNL     1       9.589   9.686  20.095  0.00  0.00    +0.000 HD
ATOM      6  H   UNL     1       8.957   7.561  19.830  0.00  0.00    +0.000 HD
ENDROOT
BRANCH   1   8
ATOM      7  C   UNL     1      10.571  11.475  17.828  0.00  0.00    +0.000 C 
ATOM      8  C   UNL     1       9.336  11.271  18.703  0.00  0.00    +0.000 C 
BRANCH   8   9
ATOM      9  C   UNL     1       9.328  12.185  19.898  0.00  0.00    +0.000 A 
ATOM     10  N   UNL     1       9.680  11.835  21.122  0.00  0.00    +0.000 NA
ATOM     11  C   UNL     1       9.469  12.898  21.980  0.00  0.00    +0.000 A 
ATOM     12  C   UNL     1       8.952  14.037  21.406  0.00  0.00    +0.000 A 
ATOM     13  S   UNL     1       8.750  13.800  19.726  0.00  0.00    +0.000 S 
ENDBRANCH   8   9
ENDBRANCH   1   8
BRANCH   4  14
ATOM     14  C   UNL     1       7.812   6.622  18.296  0.00  0.00    +0.000 C 
BRANCH  14  15
ATOM     15  C   UNL     1       7.201   5.613  19.291  0.00  0.00    +0.000 C 
BRANCH  15  16
ATOM     16  N   UNL     1       6.421   4.546  18.640  0.00  0.00    +0.000 N 
ATOM     17  H   UNL     1       6.642   3.638  19.054  0.00  0.00    +0.000 HD
BRANCH  16  18
ATOM     18  C   UNL     1       5.013   4.775  18.630  0.00  0.00    +0.000 A 
ATOM     19  C   UNL     1       4.467   5.884  17.949  0.00  0.00    +0.000 A 
ATOM     20  C   UNL     1       3.087   6.102  17.866  0.00  0.00    +0.000 A 
ATOM     21  C   UNL     1       2.211   5.194  18.436  0.00  0.00    +0.000 A 
ATOM     22  C   UNL     1       2.721   4.075  19.083  0.00  0.00    +0.000 A 
ATOM     23  F   UNL     1       1.852   3.205  19.623  0.00  0.00    +0.000 F 
ATOM     24  C   UNL     1       4.099   3.847  19.178  0.00  0.00    +0.000 A 
BRANCH  24  25
ATOM     25  C   UNL     1       4.535   2.679  19.880  0.00  0.00    +0.000 C 
ATOM     26  N   UNL     1       4.908   1.758  20.476  0.00  0.00    +0.000 NA
ENDBRANCH  24  25
ENDBRANCH  16  18
ENDBRANCH  15  16
ENDBRANCH  14  15
ENDBRANCH   4  14
TORSDOF 7
ENDMDL
MODEL 4
REMARK VINA RESULT:      -6.3      4.838      6.366
REMARK  Name = 
REMARK  8 active torsions:
REMARK  status: ('A' for Active; 'I' for Inactive)
REMARK    1  A    between atoms: C_1  and  C_2
REMARK    2  A    between atoms: C_2  and  N_3
REMARK    3  A    between atoms: C_2  and  C_19
REMARK    4  A    between atoms: N_6  and  C_7
REMARK    5  A    between atoms: C_7  and  C_8
REMARK    6  A    between atoms: C_8  and  N_9
REMARK    7  A    between atoms: N_9  and  C_10
REMARK    8  A    between atoms: C_16  and  C_17
REMARK                            x       y       z     vdW  Elec       q    Type
REMARK                         _______ _______ _______ _____ _____    ______ ____
ROOT
ATOM      1  N   UNL     1       9.170   9.644  19.270  0.00  0.00    +0.000 N 
ATOM      2  C   UNL     1       8.402   8.797  18.538  0.00  0.00    +0.000 C 
ATOM      3  O   UNL     1       7.769   9.189  17.564  0.00  0.00    +0.000 OA
ATOM      4  N   UNL     1       8.484   7.489  18.923  0.00  0.00    +0.000 N 
ATOM      5  H   UNL     1       9.465   9.414  20.208  0.00  0.00    +0.000 HD
ATOM      6  H   UNL     1       8.829   7.302  19.853  0.00  0.00    +0.000 HD
ENDROOT
BRANCH   1   8
ATOM      7  C   UNL     1      10.544  11.247  18.005  0.00  0.00    +0.000 C 
ATOM      8  C   UNL     1       9.289  11.040  18.851  0.00  0.00    +0.000 C 
BRANCH   8   9
ATOM      9  C   UNL     1       9.275  11.916  20.073  0.00  0.00    +0.000 A 
ATOM     10  N   UNL     1       9.245  11.480  21.320  0.00  0.00    +0.000 NA
ATOM     11  C   UNL     1       9.155  12.558  22.180  0.00  0.00    +0.000 A 
ATOM     12  C   UNL     1       9.106  13.798  21.583  0.00  0.00    +0.000 A 
ATOM     13  S   UNL     1       9.214  13.630  19.886  0.00  0.00    +0.000 S 
ENDBRANCH   8   9
ENDBRANCH   1   8
BRANCH   4  14
ATOM     14  C   UNL     1       7.748   6.418  18.243  0.00  0.00    +0.000 C 
BRANCH  14  15
ATOM     15  C   UNL     1       6.983   5.458  19.178  0.00  0.00    +0.000 C 
BRANCH  15  16
ATOM     16  N   UNL     1       6.432   4.279  18.486  0.00  0.00    +0.000 N 
ATOM     17  H   UNL     1       6.939   3.435  18.759  0.00  0.00    +0.000 HD
BRANCH  16  18
ATOM     18  C   UNL     1       5.026   4.110  18.651  0.00  0.00    +0.000 A 
ATOM     19  C   UNL     1       4.516   3.206  19.608  0.00  0.00    +0.000 A 
ATOM     20  C   UNL     1       3.142   3.063  19.839  0.00  0.00    +0.000 A 
ATOM     21  C   UNL     1       2.240   3.847  19.140  0.00  0.00    +0.000 A 
ATOM     22  C   UNL     1       2.719   4.770  18.216  0.00  0.00    +0.000 A 
ATOM     23  F   UNL     1       1.826   5.523  17.555  0.00  0.00    +0.000 F 
ATOM     24  C   UNL     1       4.089   4.920  17.972  0.00  0.00    +0.000 A 
BRANCH  24  25
ATOM     25  C   UNL     1       4.489   5.880  16.989  0.00  0.00    +0.000 C 
ATOM     26  N   UNL     1       4.815   6.626  16.164  0.00  0.00    +0.000 NA
ENDBRANCH  24  25
ENDBRANCH  16  18
ENDBRANCH  15  16
ENDBRANCH  14  15
ENDBRANCH   4  14
TORSDOF 7
ENDMDL
MODEL 5
REMARK VINA RESULT:      -6.2      3.160      6.443
REMARK  Name = 
REMARK  8 active torsions:
REMARK  status: ('A' for Active; 'I' for Inactive)
REMARK    1  A    between atoms: C_1  and  C_2
REMARK    2  A    between atoms: C_2  and  N_3
REMARK    3  A    between atoms: C_2  and  C_19
REMARK    4  A    between atoms: N_6  and  C_7
REMARK    5  A    between atoms: C_7  and  C_8
REMARK    6  A    between atoms: C_8  and  N_9
REMARK    7  A    between atoms: N_9  and  C_10
REMARK    8  A    between atoms: C_16  and  C_17
REMARK                            x       y       z     vdW  Elec       q    Type
REMARK                         _______ _______ _______ _____ _____    ______ ____
ROOT
ATOM      1  N   UNL     1       4.949   4.191  17.474  0.00  0.00    +0.000 N 
ATOM      2  C   UNL     1       4.448   3.924  18.707  0.00  0.00    +0.000 C 
ATOM      3  O   UNL     1       5.179   3.836  19.688  0.00  0.00    +0.000 OA
ATOM      4  N   UNL     1       3.085   3.866  18.760  0.00  0.00    +0.000 N 
ATOM      5  H   UNL     1       4.421   3.996  16.636  0.00  0.00    +0.000 HD
ATOM      6  H   UNL     1       2.595   3.716  17.890  0.00  0.00    +0.000 HD
ENDROOT
BRANCH   1   8
ATOM      7  C   UNL     1       6.797   5.701  18.074  0.00  0.00    +0.000 C 
ATOM      8  C   UNL     1       6.382   4.436  17.325  0.00  0.00    +0.000 C 
BRANCH   8   9
ATOM      9  C   UNL     1       6.713   4.508  15.859  0.00  0.00    +0.000 A 
ATOM     10  N   UNL     1       7.603   5.322  15.321  0.00  0.00    +0.000 NA
ATOM     11  C   UNL     1       7.585   5.175  13.947  0.00  0.00    +0.000 A 
ATOM     12  C   UNL     1       6.678   4.264  13.454  0.00  0.00    +0.000 A 
ATOM     13  S   UNL     1       5.835   3.527  14.744  0.00  0.00    +0.000 S 
ENDBRANCH   8   9
ENDBRANCH   1   8
BRANCH   4  14
ATOM     14  C   UNL     1       2.353   3.611  20.006  0.00  0.00    +0.000 C 
BRANCH  14  15
ATOM     15  C   UNL     1       1.890   4.876  20.760  0.00  0.00    +0.000 C 
BRANCH  15  16
ATOM     16  N   UNL     1       2.735   6.055  20.502  0.00  0.00    +0.000 N 
ATOM     17  H   UNL     1       3.415   5.853  19.766  0.00  0.00    +0.000 HD
BRANCH  16  18
ATOM     18  C   UNL     1       2.004   7.246  20.212  0.00  0.00    +0.000 A 
ATOM     19  C   UNL     1       1.142   7.815  21.174  0.00  0.00    +0.000 A 
ATOM     20  C   UNL     1       0.460   9.016  20.944  0.00  0.00    +0.000 A 
ATOM     21  C   UNL     1       0.649   9.699  19.755  0.00  0.00    +0.000 A 
ATOM     22  C   UNL     1       1.520   9.178  18.805  0.00  0.00    +0.000 A 
ATOM     23  F   UNL     1       1.692   9.861  17.662  0.00  0.00    +0.000 F 
ATOM     24  C   UNL     1       2.205   7.976  19.019  0.00  0.00    +0.000 A 
BRANCH  24  25
ATOM     25  C   UNL     1       3.064   7.504  17.977  0.00  0.00    +0.000 C 
ATOM     26  N   UNL     1       3.794   7.133  17.157  0.00  0.00    +0.000 NA
ENDBRANCH  24  25
ENDBRANCH  16  18
ENDBRANCH  15  16
ENDBRANCH  14  15
ENDBRANCH   4  14
TORSDOF 7
ENDMDL
MODEL 6
REMARK VINA RESULT:      -6.2      2.758      4.736
REMARK  Name = 
REMARK  8 active torsions:
REMARK  status: ('A' for Active; 'I' for Inactive)
REMARK    1  A    between atoms: C_1  and  C_2
REMARK    2  A    between atoms: C_2  and  N_3
REMARK    3  A    between atoms: C_2  and  C_19
REMARK    4  A    between atoms: N_6  and  C_7
REMARK    5  A    between atoms: C_7  and  C_8
REMARK    6  A    between atoms: C_8  and  N_9
REMARK    7  A    between atoms: N_9  and  C_10
REMARK    8  A    between atoms: C_16  and  C_17
REMARK                            x       y       z     vdW  Elec       q    Type
REMARK                         _______ _______ _______ _____ _____    ______ ____
ROOT
ATOM      1  N   UNL     1       0.230  10.390  17.975  0.00  0.00    +0.000 N 
ATOM      2  C   UNL     1       1.176   9.547  18.464  0.00  0.00    +0.000 C 
ATOM      3  O   UNL     1       1.212   9.248  19.653  0.00  0.00    +0.000 OA
ATOM      4  N   UNL     1       1.993   9.006  17.513  0.00  0.00    +0.000 N 
ATOM      5  H   UNL     1       0.346  10.856  17.087  0.00  0.00    +0.000 HD
ATOM      6  H   UNL     1       2.043   9.480  16.623  0.00  0.00    +0.000 HD
ENDROOT
BRANCH   1   8
ATOM      7  C   UNL     1      -2.192  10.701  18.279  0.00  0.00    +0.000 C 
ATOM      8  C   UNL     1      -0.801  10.902  18.876  0.00  0.00    +0.000 C 
BRANCH   8   9
ATOM      9  C   UNL     1      -0.512  12.349  19.170  0.00  0.00    +0.000 A 
ATOM     10  N   UNL     1      -0.565  13.329  18.286  0.00  0.00    +0.000 NA
ATOM     11  C   UNL     1      -0.159  14.507  18.884  0.00  0.00    +0.000 A 
ATOM     12  C   UNL     1       0.208  14.411  20.207  0.00  0.00    +0.000 A 
ATOM     13  S   UNL     1       0.009  12.804  20.750  0.00  0.00    +0.000 S 
ENDBRANCH   8   9
ENDBRANCH   1   8
BRANCH   4  14
ATOM     14  C   UNL     1       3.062   8.056  17.838  0.00  0.00    +0.000 C 
BRANCH  14  15
ATOM     15  C   UNL     1       2.579   6.660  18.286  0.00  0.00    +0.000 C 
BRANCH  15  16
ATOM     16  N   UNL     1       2.839   6.379  19.709  0.00  0.00    +0.000 N 
ATOM     17  H   UNL     1       2.298   7.011  20.303  0.00  0.00    +0.000 HD
BRANCH  16  18
ATOM     18  C   UNL     1       2.630   5.018  20.083  0.00  0.00    +0.000 A 
ATOM     19  C   UNL     1       1.374   4.586  20.559  0.00  0.00    +0.000 A 
ATOM     20  C   UNL     1       1.118   3.246  20.874  0.00  0.00    +0.000 A 
ATOM     21  C   UNL     1       2.105   2.294  20.690  0.00  0.00    +0.000 A 
ATOM     22  C   UNL     1       3.341   2.688  20.189  0.00  0.00    +0.000 A 
ATOM     23  F   UNL     1       4.282   1.746  20.013  0.00  0.00    +0.000 F 
ATOM     24  C   UNL     1       3.613   4.024  19.874  0.00  0.00    +0.000 A 
BRANCH  24  25
ATOM     25  C   UNL     1       4.919   4.342  19.385  0.00  0.00    +0.000 C 
ATOM     26  N   UNL     1       5.985   4.558  18.985  0.00  0.00    +0.000 NA
ENDBRANCH  24  25
ENDBRANCH  16  18
ENDBRANCH  15  16
ENDBRANCH  14  15
ENDBRANCH   4  14
TORSDOF 7
ENDMDL
MODEL 7
REMARK VINA RESULT:      -6.2      4.767      6.589
REMARK  Name = 
REMARK  8 active torsions:
REMARK  status: ('A' for Active; 'I' for Inactive)
REMARK    1  A    between atoms: C_1  and  C_2
REMARK    2  A    between atoms: C_2  and  N_3
REMARK    3  A    between atoms: C_2  and  C_19
REMARK    4  A    between atoms: N_6  and  C_7
REMARK    5  A    between atoms: C_7  and  C_8
REMARK    6  A    between atoms: C_8  and  N_9
REMARK    7  A    between atoms: N_9  and  C_10
REMARK    8  A    between atoms: C_16  and  C_17
REMARK                            x       y       z     vdW  Elec       q    Type
REMARK                         _______ _______ _______ _____ _____    ______ ____
ROOT
ATOM      1  N   UNL     1       9.140   9.457  19.120  0.00  0.00    +0.000 N 
ATOM      2  C   UNL     1       8.328   8.630  18.413  0.00  0.00    +0.000 C 
ATOM      3  O   UNL     1       7.665   9.042  17.467  0.00  0.00    +0.000 OA
ATOM      4  N   UNL     1       8.401   7.318  18.784  0.00  0.00    +0.000 N 
ATOM      5  H   UNL     1       9.468   9.213  20.044  0.00  0.00    +0.000 HD
ATOM      6  H   UNL     1       8.779   7.117  19.698  0.00  0.00    +0.000 HD
ENDROOT
BRANCH   1   8
ATOM      7  C   UNL     1      10.529  11.058  17.869  0.00  0.00    +0.000 C 
ATOM      8  C   UNL     1       9.269  10.853  18.707  0.00  0.00    +0.000 C 
BRANCH   8   9
ATOM      9  C   UNL     1       9.252  11.726  19.933  0.00  0.00    +0.000 A 
ATOM     10  N   UNL     1       9.280  11.285  21.178  0.00  0.00    +0.000 NA
ATOM     11  C   UNL     1       9.168  12.356  22.045  0.00  0.00    +0.000 A 
ATOM     12  C   UNL     1       9.046  13.594  21.454  0.00  0.00    +0.000 A 
ATOM     13  S   UNL     1       9.109  13.435  19.754  0.00  0.00    +0.000 S 
ENDBRANCH   8   9
ENDBRANCH   1   8
BRANCH   4  14
ATOM     14  C   UNL     1       7.619   6.267  18.126  0.00  0.00    +0.000 C 
BRANCH  14  15
ATOM     15  C   UNL     1       6.620   5.528  19.042  0.00  0.00    +0.000 C 
BRANCH  15  16
ATOM     16  N   UNL     1       5.210   5.780  18.696  0.00  0.00    +0.000 N 
ATOM     17  H   UNL     1       5.094   5.832  17.682  0.00  0.00    +0.000 HD
BRANCH  16  18
ATOM     18  C   UNL     1       4.292   4.851  19.270  0.00  0.00    +0.000 A 
ATOM     19  C   UNL     1       4.665   3.507  19.483  0.00  0.00    +0.000 A 
ATOM     20  C   UNL     1       3.811   2.586  20.102  0.00  0.00    +0.000 A 
ATOM     21  C   UNL     1       2.569   2.995  20.556  0.00  0.00    +0.000 A 
ATOM     22  C   UNL     1       2.191   4.323  20.389  0.00  0.00    +0.000 A 
ATOM     23  F   UNL     1       0.984   4.699  20.843  0.00  0.00    +0.000 F 
ATOM     24  C   UNL     1       3.032   5.253  19.768  0.00  0.00    +0.000 A 
BRANCH  24  25
ATOM     25  C   UNL     1       2.552   6.593  19.621  0.00  0.00    +0.000 C 
ATOM     26  N   UNL     1       2.123   7.663  19.505  0.00  0.00    +0.000 NA
ENDBRANCH  24  25
ENDBRANCH  16  18
ENDBRANCH  15  16
ENDBRANCH  14  15
ENDBRANCH   4  14
TORSDOF 7
ENDMDL
MODEL 8
REMARK VINA RESULT:      -6.2      3.713      5.564
REMARK  Name = 
REMARK  8 active torsions:
REMARK  status: ('A' for Active; 'I' for Inactive)
REMARK    1  A    between atoms: C_1  and  C_2
REMARK    2  A    between atoms: C_2  and  N_3
REMARK    3  A    between atoms: C_2  and  C_19
REMARK    4  A    between atoms: N_6  and  C_7
REMARK    5  A    between atoms: C_7  and  C_8
REMARK    6  A    between atoms: C_8  and  N_9
REMARK    7  A    between atoms: N_9  and  C_10
REMARK    8  A    between atoms: C_16  and  C_17
REMARK                            x       y       z     vdW  Elec       q    Type
REMARK                         _______ _______ _______ _____ _____    ______ ____
ROOT
ATOM      1  N   UNL     1      -1.346  10.677  19.985  0.00  0.00    +0.000 N 
ATOM      2  C   UNL     1      -0.071  10.213  20.046  0.00  0.00    +0.000 C 
ATOM      3  O   UNL     1       0.843  10.781  19.457  0.00  0.00    +0.000 OA
ATOM      4  N   UNL     1       0.101   9.147  20.881  0.00  0.00    +0.000 N 
ATOM      5  H   UNL     1      -2.133  10.089  20.220  0.00  0.00    +0.000 HD
ATOM      6  H   UNL     1      -0.722   8.615  21.126  0.00  0.00    +0.000 HD
ENDROOT
BRANCH   1   8
ATOM      7  C   UNL     1      -1.913  13.061  20.214  0.00  0.00    +0.000 C 
ATOM      8  C   UNL     1      -1.621  11.911  19.252  0.00  0.00    +0.000 C 
BRANCH   8   9
ATOM      9  C   UNL     1      -2.758  11.665  18.297  0.00  0.00    +0.000 A 
ATOM     10  N   UNL     1      -4.036  11.850  18.575  0.00  0.00    +0.000 NA
ATOM     11  C   UNL     1      -4.802  11.446  17.498  0.00  0.00    +0.000 A 
ATOM     12  C   UNL     1      -4.104  10.949  16.420  0.00  0.00    +0.000 A 
ATOM     13  S   UNL     1      -2.425  11.017  16.734  0.00  0.00    +0.000 S 
ENDBRANCH   8   9
ENDBRANCH   1   8
BRANCH   4  14
ATOM     14  C   UNL     1       1.407   8.518  21.099  0.00  0.00    +0.000 C 
BRANCH  14  15
ATOM     15  C   UNL     1       1.899   7.620  19.944  0.00  0.00    +0.000 C 
BRANCH  15  16
ATOM     16  N   UNL     1       2.657   6.440  20.399  0.00  0.00    +0.000 N 
ATOM     17  H   UNL     1       2.664   6.393  21.420  0.00  0.00    +0.000 HD
BRANCH  16  18
ATOM     18  C   UNL     1       2.216   5.209  19.831  0.00  0.00    +0.000 A 
ATOM     19  C   UNL     1       1.255   4.413  20.490  0.00  0.00    +0.000 A 
ATOM     20  C   UNL     1       0.755   3.231  19.928  0.00  0.00    +0.000 A 
ATOM     21  C   UNL     1       1.182   2.830  18.674  0.00  0.00    +0.000 A 
ATOM     22  C   UNL     1       2.103   3.614  17.989  0.00  0.00    +0.000 A 
ATOM     23  F   UNL     1       2.497   3.209  16.771  0.00  0.00    +0.000 F 
ATOM     24  C   UNL     1       2.614   4.795  18.539  0.00  0.00    +0.000 A 
BRANCH  24  25
ATOM     25  C   UNL     1       3.574   5.528  17.771  0.00  0.00    +0.000 C 
ATOM     26  N   UNL     1       4.342   6.155  17.172  0.00  0.00    +0.000 NA
ENDBRANCH  24  25
ENDBRANCH  16  18
ENDBRANCH  15  16
ENDBRANCH  14  15
ENDBRANCH   4  14
TORSDOF 7
ENDMDL
MODEL 9
REMARK VINA RESULT:      -6.1      4.980      6.683
REMARK  Name = 
REMARK  8 active torsions:
REMARK  status: ('A' for Active; 'I' for Inactive)
REMARK    1  A    between atoms: C_1  and  C_2
REMARK    2  A    between atoms: C_2  and  N_3
REMARK    3  A    between atoms: C_2  and  C_19
REMARK    4  A    between atoms: N_6  and  C_7
REMARK    5  A    between atoms: C_7  and  C_8
REMARK    6  A    between atoms: C_8  and  N_9
REMARK    7  A    between atoms: N_9  and  C_10
REMARK    8  A    between atoms: C_16  and  C_17
REMARK                            x       y       z     vdW  Elec       q    Type
REMARK                         _______ _______ _______ _____ _____    ______ ____
ROOT
ATOM      1  N   UNL     1       5.115   5.578  18.123  0.00  0.00    +0.000 N 
ATOM      2  C   UNL     1       6.418   5.923  18.294  0.00  0.00    +0.000 C 
ATOM      3  O   UNL     1       7.225   5.143  18.787  0.00  0.00    +0.000 OA
ATOM      4  N   UNL     1       6.747   7.147  17.787  0.00  0.00    +0.000 N 
ATOM      5  H   UNL     1       4.398   6.275  17.986  0.00  0.00    +0.000 HD
ATOM      6  H   UNL     1       5.992   7.797  17.622  0.00  0.00    +0.000 HD
ENDROOT
BRANCH   1   8
ATOM      7  C   UNL     1       4.276   3.442  17.235  0.00  0.00    +0.000 C 
ATOM      8  C   UNL     1       4.683   4.228  18.479  0.00  0.00    +0.000 C 
BRANCH   8   9
ATOM      9  C   UNL     1       3.566   4.325  19.483  0.00  0.00    +0.000 A 
ATOM     10  N   UNL     1       2.952   5.442  19.827  0.00  0.00    +0.000 NA
ATOM     11  C   UNL     1       2.040   5.172  20.831  0.00  0.00    +0.000 A 
ATOM     12  C   UNL     1       1.978   3.860  21.246  0.00  0.00    +0.000 A 
ATOM     13  S   UNL     1       3.066   2.911  20.332  0.00  0.00    +0.000 S 
ENDBRANCH   8   9
ENDBRANCH   1   8
BRANCH   4  14
ATOM     14  C   UNL     1       8.108   7.689  17.853  0.00  0.00    +0.000 C 
BRANCH  14  15
ATOM     15  C   UNL     1       8.192   9.213  18.084  0.00  0.00    +0.000 C 
BRANCH  15  16
ATOM     16  N   UNL     1       9.012   9.586  19.250  0.00  0.00    +0.000 N 
ATOM     17  H   UNL     1       9.650   8.825  19.495  0.00  0.00    +0.000 HD
BRANCH  16  18
ATOM     18  C   UNL     1       9.715  10.817  19.100  0.00  0.00    +0.000 A 
ATOM     19  C   UNL     1      10.378  11.127  17.893  0.00  0.00    +0.000 A 
ATOM     20  C   UNL     1      11.023  12.354  17.691  0.00  0.00    +0.000 A 
ATOM     21  C   UNL     1      10.994  13.319  18.683  0.00  0.00    +0.000 A 
ATOM     22  C   UNL     1      10.318  13.052  19.868  0.00  0.00    +0.000 A 
ATOM     23  F   UNL     1      10.297  14.006  20.813  0.00  0.00    +0.000 F 
ATOM     24  C   UNL     1       9.673  11.829  20.086  0.00  0.00    +0.000 A 
BRANCH  24  25
ATOM     25  C   UNL     1       9.020  11.634  21.344  0.00  0.00    +0.000 C 
ATOM     26  N   UNL     1       8.456  11.492  22.346  0.00  0.00    +0.000 NA
ENDBRANCH  24  25
ENDBRANCH  16  18
ENDBRANCH  15  16
ENDBRANCH  14  15
ENDBRANCH   4  14
TORSDOF 7
ENDMDL
