MODEL 1
REMARK VINA RESULT:      -4.9      0.000      0.000
REMARK  Name = 
REMARK  3 active torsions:
REMARK  status: ('A' for Active; 'I' for Inactive)
REMARK    1  A    between atoms: C_5  and  C_6
REMARK    2  A    between atoms: C_6  and  C_7
REMARK    3  A    between atoms: C_7  and  O_9
REMARK                            x       y       z     vdW  Elec       q    Type
REMARK                         _______ _______ _______ _____ _____    ______ ____
ROOT
ATOM      1  N   UNL     1       8.001   5.600  20.115  0.00  0.00    +0.000 N 
ATOM      2  C   UNL     1       7.196   5.339  19.077  0.00  0.00    +0.000 A 
ATOM      3  N   UNL     1       6.239   4.446  19.116  0.00  0.00    +0.000 NA
ATOM      4  C   UNL     1       5.612   4.366  17.889  0.00  0.00    +0.000 A 
ATOM      5  C   UNL     1       6.068   5.245  16.925  0.00  0.00    +0.000 A 
ATOM      6  S   UNL     1       7.346   6.183  17.590  0.00  0.00    +0.000 S 
ATOM      7  H   UNL     1       7.715   5.237  21.017  0.00  0.00    +0.000 HD
ATOM      8  H   UNL     1       8.516   6.470  20.140  0.00  0.00    +0.000 HD
ENDROOT
BRANCH   5   9
ATOM      9  C   UNL     1       5.666   5.427  15.498  0.00  0.00    +0.000 C 
BRANCH   9  10
ATOM     10  C   UNL     1       6.659   4.811  14.541  0.00  0.00    +0.000 C 
ATOM     11  O   UNL     1       7.645   5.398  14.117  0.00  0.00    +0.000 OA
BRANCH  10  12
ATOM     12  O   UNL     1       6.351   3.553  14.148  0.00  0.00    +0.000 OA
ATOM     13  H   UNL     1       5.666   3.117  14.691  0.00  0.00    +0.000 HD
ENDBRANCH  10  12
ENDBRANCH   9  10
ENDBRANCH   5   9
TORSDOF 3
ENDMDL
MODEL 2
REMARK VINA RESULT:      -4.8      3.501      4.480
REMARK  Name = 
REMARK  3 active torsions:
REMARK  status: ('A' for Active; 'I' for Inactive)
REMARK    1  A    between atoms: C_5  and  C_6
REMARK    2  A    between atoms: C_6  and  C_7
REMARK    3  A    between atoms: C_7  and  O_9
REMARK                            x       y       z     vdW  Elec       q    Type
REMARK                         _______ _______ _______ _____ _____    ______ ____
ROOT
ATOM      1  N   UNL     1       6.785   4.442  14.206  0.00  0.00    +0.000 N 
ATOM      2  C   UNL     1       6.726   4.553  15.539  0.00  0.00    +0.000 A 
ATOM      3  N   UNL     1       7.785   4.569  16.308  0.00  0.00    +0.000 NA
ATOM      4  C   UNL     1       7.411   4.644  17.635  0.00  0.00    +0.000 A 
ATOM      5  C   UNL     1       6.052   4.736  17.868  0.00  0.00    +0.000 A 
ATOM      6  S   UNL     1       5.226   4.702  16.361  0.00  0.00    +0.000 S 
ATOM      7  H   UNL     1       7.692   4.587  13.777  0.00  0.00    +0.000 HD
ATOM      8  H   UNL     1       5.990   4.719  13.647  0.00  0.00    +0.000 HD
ENDROOT
BRANCH   5   9
ATOM      9  C   UNL     1       5.281   4.800  19.147  0.00  0.00    +0.000 C 
BRANCH   9  10
ATOM     10  C   UNL     1       4.442   3.564  19.370  0.00  0.00    +0.000 C 
ATOM     11  O   UNL     1       3.220   3.574  19.415  0.00  0.00    +0.000 OA
BRANCH  10  12
ATOM     12  O   UNL     1       5.156   2.430  19.563  0.00  0.00    +0.000 OA
ATOM     13  H   UNL     1       6.049   2.444  19.168  0.00  0.00    +0.000 HD
ENDBRANCH  10  12
ENDBRANCH   9  10
ENDBRANCH   5   9
TORSDOF 3
ENDMDL
MODEL 3
REMARK VINA RESULT:      -4.8      2.492      2.879
REMARK  Name = 
REMARK  3 active torsions:
REMARK  status: ('A' for Active; 'I' for Inactive)
REMARK    1  A    between atoms: C_5  and  C_6
REMARK    2  A    between atoms: C_6  and  C_7
REMARK    3  A    between atoms: C_7  and  O_9
REMARK                            x       y       z     vdW  Elec       q    Type
REMARK                         _______ _______ _______ _____ _____    ______ ____
ROOT
ATOM      1  N   UNL     1       2.774   6.391  19.943  0.00  0.00    +0.000 N 
ATOM      2  C   UNL     1       3.532   5.563  19.213  0.00  0.00    +0.000 A 
ATOM      3  N   UNL     1       3.913   4.382  19.629  0.00  0.00    +0.000 NA
ATOM      4  C   UNL     1       4.721   3.781  18.684  0.00  0.00    +0.000 A 
ATOM      5  C   UNL     1       4.913   4.498  17.519  0.00  0.00    +0.000 A 
ATOM      6  S   UNL     1       4.062   5.987  17.636  0.00  0.00    +0.000 S 
ATOM      7  H   UNL     1       2.314   5.992  20.754  0.00  0.00    +0.000 HD
ATOM      8  H   UNL     1       2.276   7.144  19.487  0.00  0.00    +0.000 HD
ENDROOT
BRANCH   5   9
ATOM      9  C   UNL     1       5.734   4.195  16.308  0.00  0.00    +0.000 C 
BRANCH   9  10
ATOM     10  C   UNL     1       7.114   4.804  16.385  0.00  0.00    +0.000 C 
ATOM     11  O   UNL     1       7.456   5.789  15.747  0.00  0.00    +0.000 OA
BRANCH  10  12
ATOM     12  O   UNL     1       7.973   4.143  17.196  0.00  0.00    +0.000 OA
ATOM     13  H   UNL     1       8.086   4.547  18.079  0.00  0.00    +0.000 HD
ENDBRANCH  10  12
ENDBRANCH   9  10
ENDBRANCH   5   9
TORSDOF 3
ENDMDL
MODEL 4
REMARK VINA RESULT:      -4.7      3.635      4.507
REMARK  Name = 
REMARK  3 active torsions:
REMARK  status: ('A' for Active; 'I' for Inactive)
REMARK    1  A    between atoms: C_5  and  C_6
REMARK    2  A    between atoms: C_6  and  C_7
REMARK    3  A    between atoms: C_7  and  O_9
REMARK                            x       y       z     vdW  Elec       q    Type
REMARK                         _______ _______ _______ _____ _____    ______ ____
ROOT
ATOM      1  N   UNL     1       6.335   3.543  13.443  0.00  0.00    +0.000 N 
ATOM      2  C   UNL     1       6.367   4.276  14.563  0.00  0.00    +0.000 A 
ATOM      3  N   UNL     1       7.330   5.117  14.845  0.00  0.00    +0.000 NA
ATOM      4  C   UNL     1       7.117   5.689  16.084  0.00  0.00    +0.000 A 
ATOM      5  C   UNL     1       5.952   5.311  16.724  0.00  0.00    +0.000 A 
ATOM      6  S   UNL     1       5.117   4.180  15.735  0.00  0.00    +0.000 S 
ATOM      7  H   UNL     1       6.973   3.813  12.703  0.00  0.00    +0.000 HD
ATOM      8  H   UNL     1       5.460   3.138  13.137  0.00  0.00    +0.000 HD
ENDROOT
BRANCH   5   9
ATOM      9  C   UNL     1       5.406   5.685  18.063  0.00  0.00    +0.000 C 
BRANCH   9  10
ATOM     10  C   UNL     1       6.062   4.912  19.183  0.00  0.00    +0.000 C 
ATOM     11  O   UNL     1       6.926   5.379  19.913  0.00  0.00    +0.000 OA
BRANCH  10  12
ATOM     12  O   UNL     1       5.647   3.629  19.296  0.00  0.00    +0.000 OA
ATOM     13  H   UNL     1       6.332   2.964  19.088  0.00  0.00    +0.000 HD
ENDBRANCH  10  12
ENDBRANCH   9  10
ENDBRANCH   5   9
TORSDOF 3
ENDMDL
MODEL 5
REMARK VINA RESULT:      -4.7      2.850      3.171
REMARK  Name = 
REMARK  3 active torsions:
REMARK  status: ('A' for Active; 'I' for Inactive)
REMARK    1  A    between atoms: C_5  and  C_6
REMARK    2  A    between atoms: C_6  and  C_7
REMARK    3  A    between atoms: C_7  and  O_9
REMARK                            x       y       z     vdW  Elec       q    Type
REMARK                         _______ _______ _______ _____ _____    ______ ____
ROOT
ATOM      1  N   UNL     1       2.708   5.473  20.527  0.00  0.00    +0.000 N 
ATOM      2  C   UNL     1       3.419   5.456  19.392  0.00  0.00    +0.000 A 
ATOM      3  N   UNL     1       3.361   6.404  18.493  0.00  0.00    +0.000 NA
ATOM      4  C   UNL     1       4.164   6.089  17.414  0.00  0.00    +0.000 A 
ATOM      5  C   UNL     1       4.876   4.910  17.524  0.00  0.00    +0.000 A 
ATOM      6  S   UNL     1       4.496   4.170  19.028  0.00  0.00    +0.000 S 
ATOM      7  H   UNL     1       2.276   6.355  20.781  0.00  0.00    +0.000 HD
ATOM      8  H   UNL     1       2.991   4.889  21.302  0.00  0.00    +0.000 HD
ENDROOT
BRANCH   5   9
ATOM      9  C   UNL     1       5.803   4.235  16.567  0.00  0.00    +0.000 C 
BRANCH   9  10
ATOM     10  C   UNL     1       7.187   4.841  16.589  0.00  0.00    +0.000 C 
ATOM     11  O   UNL     1       7.482   5.875  16.008  0.00  0.00    +0.000 OA
BRANCH  10  12
ATOM     12  O   UNL     1       8.103   4.119  17.276  0.00  0.00    +0.000 OA
ATOM     13  H   UNL     1       8.223   4.401  18.205  0.00  0.00    +0.000 HD
ENDBRANCH  10  12
ENDBRANCH   9  10
ENDBRANCH   5   9
TORSDOF 3
ENDMDL
MODEL 6
REMARK VINA RESULT:      -4.7      5.173      6.132
REMARK  Name = 
REMARK  3 active torsions:
REMARK  status: ('A' for Active; 'I' for Inactive)
REMARK    1  A    between atoms: C_5  and  C_6
REMARK    2  A    between atoms: C_6  and  C_7
REMARK    3  A    between atoms: C_7  and  O_9
REMARK                            x       y       z     vdW  Elec       q    Type
REMARK                         _______ _______ _______ _____ _____    ______ ____
ROOT
ATOM      1  N   UNL     1       6.241   4.122  18.294  0.00  0.00    +0.000 N 
ATOM      2  C   UNL     1       4.976   3.681  18.301  0.00  0.00    +0.000 A 
ATOM      3  N   UNL     1       4.169   3.794  17.277  0.00  0.00    +0.000 NA
ATOM      4  C   UNL     1       2.922   3.296  17.596  0.00  0.00    +0.000 A 
ATOM      5  C   UNL     1       2.799   2.754  18.861  0.00  0.00    +0.000 A 
ATOM      6  S   UNL     1       4.305   2.904  19.676  0.00  0.00    +0.000 S 
ATOM      7  H   UNL     1       6.636   4.357  17.390  0.00  0.00    +0.000 HD
ATOM      8  H   UNL     1       6.897   3.765  18.976  0.00  0.00    +0.000 HD
ENDROOT
BRANCH   5   9
ATOM      9  C   UNL     1       1.620   2.161  19.561  0.00  0.00    +0.000 C 
BRANCH   9  10
ATOM     10  C   UNL     1       1.239   2.940  20.798  0.00  0.00    +0.000 C 
ATOM     11  O   UNL     1       1.490   2.569  21.936  0.00  0.00    +0.000 OA
BRANCH  10  12
ATOM     12  O   UNL     1       0.549   4.078  20.552  0.00  0.00    +0.000 OA
ATOM     13  H   UNL     1       0.970   4.671  19.898  0.00  0.00    +0.000 HD
ENDBRANCH  10  12
ENDBRANCH   9  10
ENDBRANCH   5   9
TORSDOF 3
ENDMDL
MODEL 7
REMARK VINA RESULT:      -4.7      3.514      4.321
REMARK  Name = 
REMARK  3 active torsions:
REMARK  status: ('A' for Active; 'I' for Inactive)
REMARK    1  A    between atoms: C_5  and  C_6
REMARK    2  A    between atoms: C_6  and  C_7
REMARK    3  A    between atoms: C_7  and  O_9
REMARK                            x       y       z     vdW  Elec       q    Type
REMARK                         _______ _______ _______ _____ _____    ______ ____
ROOT
ATOM      1  N   UNL     1       7.816   4.426  17.121  0.00  0.00    +0.000 N 
ATOM      2  C   UNL     1       6.553   4.326  17.556  0.00  0.00    +0.000 A 
ATOM      3  N   UNL     1       6.219   4.404  18.819  0.00  0.00    +0.000 NA
ATOM      4  C   UNL     1       4.858   4.218  18.965  0.00  0.00    +0.000 A 
ATOM      5  C   UNL     1       4.149   4.047  17.791  0.00  0.00    +0.000 A 
ATOM      6  S   UNL     1       5.245   4.100  16.468  0.00  0.00    +0.000 S 
ATOM      7  H   UNL     1       8.498   4.782  17.781  0.00  0.00    +0.000 HD
ATOM      8  H   UNL     1       7.993   4.646  16.150  0.00  0.00    +0.000 HD
ENDROOT
BRANCH   5   9
ATOM      9  C   UNL     1       2.696   3.791  17.555  0.00  0.00    +0.000 C 
BRANCH   9  10
ATOM     10  C   UNL     1       2.253   2.457  18.108  0.00  0.00    +0.000 C 
ATOM     11  O   UNL     1       1.169   2.271  18.643  0.00  0.00    +0.000 OA
BRANCH  10  12
ATOM     12  O   UNL     1       3.178   1.473  18.005  0.00  0.00    +0.000 OA
ATOM     13  H   UNL     1       3.356   1.183  17.089  0.00  0.00    +0.000 HD
ENDBRANCH  10  12
ENDBRANCH   9  10
ENDBRANCH   5   9
TORSDOF 3
ENDMDL
MODEL 8
REMARK VINA RESULT:      -4.7      5.058      6.092
REMARK  Name = 
REMARK  3 active torsions:
REMARK  status: ('A' for Active; 'I' for Inactive)
REMARK    1  A    between atoms: C_5  and  C_6
REMARK    2  A    between atoms: C_6  and  C_7
REMARK    3  A    between atoms: C_7  and  O_9
REMARK                            x       y       z     vdW  Elec       q    Type
REMARK                         _______ _______ _______ _____ _____    ______ ____
ROOT
ATOM      1  N   UNL     1       5.203   3.327  16.812  0.00  0.00    +0.000 N 
ATOM      2  C   UNL     1       4.636   3.950  17.852  0.00  0.00    +0.000 A 
ATOM      3  N   UNL     1       5.129   5.033  18.398  0.00  0.00    +0.000 NA
ATOM      4  C   UNL     1       4.358   5.417  19.477  0.00  0.00    +0.000 A 
ATOM      5  C   UNL     1       3.240   4.642  19.719  0.00  0.00    +0.000 A 
ATOM      6  S   UNL     1       3.180   3.377  18.557  0.00  0.00    +0.000 S 
ATOM      7  H   UNL     1       5.919   3.838  16.309  0.00  0.00    +0.000 HD
ATOM      8  H   UNL     1       4.653   2.687  16.254  0.00  0.00    +0.000 HD
ENDROOT
BRANCH   5   9
ATOM      9  C   UNL     1       2.205   4.727  20.793  0.00  0.00    +0.000 C 
BRANCH   9  10
ATOM     10  C   UNL     1       1.866   3.371  21.367  0.00  0.00    +0.000 C 
ATOM     11  O   UNL     1       2.624   2.728  22.080  0.00  0.00    +0.000 OA
BRANCH  10  12
ATOM     12  O   UNL     1       0.656   2.892  20.994  0.00  0.00    +0.000 OA
ATOM     13  H   UNL     1       0.217   2.338  21.669  0.00  0.00    +0.000 HD
ENDBRANCH  10  12
ENDBRANCH   9  10
ENDBRANCH   5   9
TORSDOF 3
ENDMDL
MODEL 9
REMARK VINA RESULT:      -4.7      4.107      4.882
REMARK  Name = 
REMARK  3 active torsions:
REMARK  status: ('A' for Active; 'I' for Inactive)
REMARK    1  A    between atoms: C_5  and  C_6
REMARK    2  A    between atoms: C_6  and  C_7
REMARK    3  A    between atoms: C_7  and  O_9
REMARK                            x       y       z     vdW  Elec       q    Type
REMARK                         _______ _______ _______ _____ _____    ______ ____
ROOT
ATOM      1  N   UNL     1       7.106   4.352  18.010  0.00  0.00    +0.000 N 
ATOM      2  C   UNL     1       5.792   4.467  18.245  0.00  0.00    +0.000 A 
ATOM      3  N   UNL     1       5.301   5.046  19.312  0.00  0.00    +0.000 NA
ATOM      4  C   UNL     1       3.922   4.970  19.303  0.00  0.00    +0.000 A 
ATOM      5  C   UNL     1       3.364   4.371  18.190  0.00  0.00    +0.000 A 
ATOM      6  S   UNL     1       4.626   3.867  17.138  0.00  0.00    +0.000 S 
ATOM      7  H   UNL     1       7.722   4.921  18.580  0.00  0.00    +0.000 HD
ATOM      8  H   UNL     1       7.429   4.167  17.070  0.00  0.00    +0.000 HD
ENDROOT
BRANCH   5   9
ATOM      9  C   UNL     1       1.939   4.083  17.846  0.00  0.00    +0.000 C 
BRANCH   9  10
ATOM     10  C   UNL     1       1.330   3.041  18.755  0.00  0.00    +0.000 C 
ATOM     11  O   UNL     1       0.679   3.311  19.754  0.00  0.00    +0.000 OA
BRANCH  10  12
ATOM     12  O   UNL     1       1.598   1.763  18.399  0.00  0.00    +0.000 OA
ATOM     13  H   UNL     1       2.484   1.447  18.667  0.00  0.00    +0.000 HD
ENDBRANCH  10  12
ENDBRANCH   9  10
ENDBRANCH   5   9
TORSDOF 3
ENDMDL
