MODEL 1
REMARK VINA RESULT:      -8.0      0.000      0.000
REMARK  Name = 
REMARK  4 active torsions:
REMARK  status: ('A' for Active; 'I' for Inactive)
REMARK    1  A    between atoms: C_1  and  C_2
REMARK    2  A    between atoms: C_2  and  N_3
REMARK    3  A    between atoms: C_8  and  C_10
REMARK    4  A    between atoms: C_10  and  C_11
REMARK                            x       y       z     vdW  Elec       q    Type
REMARK                         _______ _______ _______ _____ _____    ______ ____
ROOT
ATOM      1  N   UNL     1       2.479   4.966  18.385  0.00  0.00    +0.000 NA
ATOM      2  C   UNL     1       2.722   6.395  18.664  0.00  0.00    +0.000 C 
ATOM      3  C   UNL     1       3.452   7.237  17.632  0.00  0.00    +0.000 C 
ATOM      4  C   UNL     1       4.951   7.067  17.735  0.00  0.00    +0.000 C 
ATOM      5  N   UNL     1       5.457   5.874  17.082  0.00  0.00    +0.000 N 
ATOM      6  C   UNL     1       6.717   6.002  16.465  0.00  0.00    +0.000 C 
ATOM      7  O   UNL     1       7.403   7.015  16.585  0.00  0.00    +0.000 OA
ATOM      8  C   UNL     1       4.549   4.740  16.869  0.00  0.00    +0.000 C 
ATOM      9  C   UNL     1       3.694   4.114  18.067  0.00  0.00    +0.000 C 
ATOM     10  C   UNL     1       3.225   2.741  17.428  0.00  0.00    +0.000 C 
ATOM     11  C   UNL     1       3.040   1.542  18.346  0.00  0.00    +0.000 C 
ATOM     12  O   UNL     1       4.102   1.436  19.283  0.00  0.00    +0.000 OA
ATOM     13  C   UNL     1       4.196   2.590  20.108  0.00  0.00    +0.000 C 
ATOM     14  C   UNL     1       4.622   3.802  19.275  0.00  0.00    +0.000 C 
ENDROOT
BRANCH   1  16
ATOM     15  C   UNL     1       1.592   5.263  20.753  0.00  0.00    +0.000 C 
ATOM     16  C   UNL     1       1.595   4.445  19.454  0.00  0.00    +0.000 C 
ENDBRANCH   1  16
BRANCH   6  17
ATOM     17  C   UNL     1       7.203   4.821  15.628  0.00  0.00    +0.000 C 
BRANCH  17  18
ATOM     18  C   UNL     1       6.719   4.823  14.173  0.00  0.00    +0.000 C 
ATOM     19  C   UNL     1       7.878   5.041  13.197  0.00  0.00    +0.000 C 
ATOM     20  C   UNL     1       7.317   4.610  11.850  0.00  0.00    +0.000 C 
ATOM     21  C   UNL     1       6.256   3.557  12.161  0.00  0.00    +0.000 C 
ATOM     22  C   UNL     1       6.139   3.495  13.683  0.00  0.00    +0.000 C 
ENDBRANCH  17  18
ENDBRANCH   6  17
TORSDOF 3
ENDMDL
MODEL 2
REMARK VINA RESULT:      -7.6      2.722      7.273
REMARK  Name = 
REMARK  4 active torsions:
REMARK  status: ('A' for Active; 'I' for Inactive)
REMARK    1  A    between atoms: C_1  and  C_2
REMARK    2  A    between atoms: C_2  and  N_3
REMARK    3  A    between atoms: C_8  and  C_10
REMARK    4  A    between atoms: C_10  and  C_11
REMARK                            x       y       z     vdW  Elec       q    Type
REMARK                         _______ _______ _______ _____ _____    ______ ____
ROOT
ATOM      1  N   UNL     1       4.932   4.589  16.704  0.00  0.00    +0.000 NA
ATOM      2  C   UNL     1       4.058   3.446  17.039  0.00  0.00    +0.000 C 
ATOM      3  C   UNL     1       2.610   3.706  17.415  0.00  0.00    +0.000 C 
ATOM      4  C   UNL     1       2.475   4.105  18.867  0.00  0.00    +0.000 C 
ATOM      5  N   UNL     1       2.766   5.502  19.127  0.00  0.00    +0.000 N 
ATOM      6  C   UNL     1       1.987   6.114  20.128  0.00  0.00    +0.000 C 
ATOM      7  O   UNL     1       1.205   5.475  20.828  0.00  0.00    +0.000 OA
ATOM      8  C   UNL     1       3.619   6.238  18.185  0.00  0.00    +0.000 C 
ATOM      9  C   UNL     1       5.054   5.685  17.746  0.00  0.00    +0.000 C 
ATOM     10  C   UNL     1       5.693   6.976  17.083  0.00  0.00    +0.000 C 
ATOM     11  C   UNL     1       7.199   7.171  17.184  0.00  0.00    +0.000 C 
ATOM     12  O   UNL     1       7.676   6.867  18.486  0.00  0.00    +0.000 OA
ATOM     13  C   UNL     1       7.399   5.521  18.850  0.00  0.00    +0.000 C 
ATOM     14  C   UNL     1       5.889   5.316  19.005  0.00  0.00    +0.000 C 
ENDROOT
BRANCH   1  16
ATOM     15  C   UNL     1       6.364   4.047  14.670  0.00  0.00    +0.000 C 
ATOM     16  C   UNL     1       6.212   4.041  16.198  0.00  0.00    +0.000 C 
ENDBRANCH   1  16
BRANCH   6  17
ATOM     17  C   UNL     1       2.150   7.621  20.310  0.00  0.00    +0.000 C 
BRANCH  17  18
ATOM     18  C   UNL     1       0.919   8.336  20.881  0.00  0.00    +0.000 C 
ATOM     19  C   UNL     1       1.211   8.944  22.255  0.00  0.00    +0.000 C 
ATOM     20  C   UNL     1       0.074   9.931  22.475  0.00  0.00    +0.000 C 
ATOM     21  C   UNL     1      -0.356  10.386  21.083  0.00  0.00    +0.000 C 
ATOM     22  C   UNL     1       0.456   9.558  20.086  0.00  0.00    +0.000 C 
ENDBRANCH  17  18
ENDBRANCH   6  17
TORSDOF 3
ENDMDL
MODEL 3
REMARK VINA RESULT:      -7.4      2.505      6.800
REMARK  Name = 
REMARK  4 active torsions:
REMARK  status: ('A' for Active; 'I' for Inactive)
REMARK    1  A    between atoms: C_1  and  C_2
REMARK    2  A    between atoms: C_2  and  N_3
REMARK    3  A    between atoms: C_8  and  C_10
REMARK    4  A    between atoms: C_10  and  C_11
REMARK                            x       y       z     vdW  Elec       q    Type
REMARK                         _______ _______ _______ _____ _____    ______ ____
ROOT
ATOM      1  N   UNL     1       5.162   4.654  16.637  0.00  0.00    +0.000 NA
ATOM      2  C   UNL     1       4.305   3.480  16.897  0.00  0.00    +0.000 C 
ATOM      3  C   UNL     1       2.846   3.694  17.259  0.00  0.00    +0.000 C 
ATOM      4  C   UNL     1       2.678   4.014  18.727  0.00  0.00    +0.000 C 
ATOM      5  N   UNL     1       2.939   5.401  19.064  0.00  0.00    +0.000 N 
ATOM      6  C   UNL     1       2.131   5.947  20.081  0.00  0.00    +0.000 C 
ATOM      7  O   UNL     1       1.349   5.258  20.733  0.00  0.00    +0.000 OA
ATOM      8  C   UNL     1       3.794   6.200  18.177  0.00  0.00    +0.000 C 
ATOM      9  C   UNL     1       5.247   5.696  17.736  0.00  0.00    +0.000 C 
ATOM     10  C   UNL     1       5.873   7.031  17.152  0.00  0.00    +0.000 C 
ATOM     11  C   UNL     1       7.373   7.247  17.290  0.00  0.00    +0.000 C 
ATOM     12  O   UNL     1       7.833   6.884  18.584  0.00  0.00    +0.000 OA
ATOM     13  C   UNL     1       7.574   5.517  18.873  0.00  0.00    +0.000 C 
ATOM     14  C   UNL     1       6.066   5.277  18.989  0.00  0.00    +0.000 C 
ENDROOT
BRANCH   1  16
ATOM     15  C   UNL     1       6.709   4.397  14.631  0.00  0.00    +0.000 C 
ATOM     16  C   UNL     1       6.461   4.156  16.126  0.00  0.00    +0.000 C 
ENDBRANCH   1  16
BRANCH   6  17
ATOM     17  C   UNL     1       2.263   7.445  20.344  0.00  0.00    +0.000 C 
BRANCH  17  18
ATOM     18  C   UNL     1       1.130   8.301  19.764  0.00  0.00    +0.000 C 
ATOM     19  C   UNL     1       0.654   9.356  20.766  0.00  0.00    +0.000 C 
ATOM     20  C   UNL     1      -0.136  10.344  19.921  0.00  0.00    +0.000 C 
ATOM     21  C   UNL     1       0.476  10.276  18.524  0.00  0.00    +0.000 C 
ATOM     22  C   UNL     1       1.521   9.161  18.561  0.00  0.00    +0.000 C 
ENDBRANCH  17  18
ENDBRANCH   6  17
TORSDOF 3
ENDMDL
MODEL 4
REMARK VINA RESULT:      -7.4      3.329      6.503
REMARK  Name = 
REMARK  4 active torsions:
REMARK  status: ('A' for Active; 'I' for Inactive)
REMARK    1  A    between atoms: C_1  and  C_2
REMARK    2  A    between atoms: C_2  and  N_3
REMARK    3  A    between atoms: C_8  and  C_10
REMARK    4  A    between atoms: C_10  and  C_11
REMARK                            x       y       z     vdW  Elec       q    Type
REMARK                         _______ _______ _______ _____ _____    ______ ____
ROOT
ATOM      1  N   UNL     1       4.138   3.939  19.297  0.00  0.00    +0.000 NA
ATOM      2  C   UNL     1       4.938   4.407  18.148  0.00  0.00    +0.000 C 
ATOM      3  C   UNL     1       5.254   5.887  18.019  0.00  0.00    +0.000 C 
ATOM      4  C   UNL     1       4.105   6.650  17.400  0.00  0.00    +0.000 C 
ATOM      5  N   UNL     1       3.045   6.984  18.333  0.00  0.00    +0.000 N 
ATOM      6  C   UNL     1       2.413   8.225  18.124  0.00  0.00    +0.000 C 
ATOM      7  O   UNL     1       2.650   8.920  17.138  0.00  0.00    +0.000 OA
ATOM      8  C   UNL     1       2.889   6.178  19.551  0.00  0.00    +0.000 C 
ATOM      9  C   UNL     1       2.778   4.584  19.492  0.00  0.00    +0.000 C 
ATOM     10  C   UNL     1       2.242   4.257  20.949  0.00  0.00    +0.000 C 
ATOM     11  C   UNL     1       1.328   3.055  21.131  0.00  0.00    +0.000 C 
ATOM     12  O   UNL     1       0.351   2.985  20.103  0.00  0.00    +0.000 OA
ATOM     13  C   UNL     1       0.945   2.874  18.816  0.00  0.00    +0.000 C 
ATOM     14  C   UNL     1       1.689   4.165  18.464  0.00  0.00    +0.000 C 
ENDROOT
BRANCH   1  16
ATOM     15  C   UNL     1       4.827   1.792  20.480  0.00  0.00    +0.000 C 
ATOM     16  C   UNL     1       4.147   2.458  19.275  0.00  0.00    +0.000 C 
ENDBRANCH   1  16
BRANCH   6  17
ATOM     17  C   UNL     1       1.413   8.682  19.183  0.00  0.00    +0.000 C 
BRANCH  17  18
ATOM     18  C   UNL     1       0.882  10.109  18.992  0.00  0.00    +0.000 C 
ATOM     19  C   UNL     1      -0.481  10.112  18.295  0.00  0.00    +0.000 C 
ATOM     20  C   UNL     1      -1.030  11.506  18.557  0.00  0.00    +0.000 C 
ATOM     21  C   UNL     1      -0.411  11.954  19.879  0.00  0.00    +0.000 C 
ATOM     22  C   UNL     1       0.577  10.862  20.287  0.00  0.00    +0.000 C 
ENDBRANCH  17  18
ENDBRANCH   6  17
TORSDOF 3
ENDMDL
MODEL 5
REMARK VINA RESULT:      -7.1      1.643      2.294
REMARK  Name = 
REMARK  4 active torsions:
REMARK  status: ('A' for Active; 'I' for Inactive)
REMARK    1  A    between atoms: C_1  and  C_2
REMARK    2  A    between atoms: C_2  and  N_3
REMARK    3  A    between atoms: C_8  and  C_10
REMARK    4  A    between atoms: C_10  and  C_11
REMARK                            x       y       z     vdW  Elec       q    Type
REMARK                         _______ _______ _______ _____ _____    ______ ____
ROOT
ATOM      1  N   UNL     1       4.010   4.934  19.305  0.00  0.00    +0.000 NA
ATOM      2  C   UNL     1       5.414   5.103  19.734  0.00  0.00    +0.000 C 
ATOM      3  C   UNL     1       6.374   5.869  18.843  0.00  0.00    +0.000 C 
ATOM      4  C   UNL     1       6.924   4.997  17.737  0.00  0.00    +0.000 C 
ATOM      5  N   UNL     1       6.031   4.847  16.603  0.00  0.00    +0.000 N 
ATOM      6  C   UNL     1       6.652   4.771  15.341  0.00  0.00    +0.000 C 
ATOM      7  O   UNL     1       7.873   4.701  15.217  0.00  0.00    +0.000 OA
ATOM      8  C   UNL     1       4.591   5.055  16.798  0.00  0.00    +0.000 C 
ATOM      9  C   UNL     1       3.782   4.294  17.949  0.00  0.00    +0.000 C 
ATOM     10  C   UNL     1       2.285   4.543  17.491  0.00  0.00    +0.000 C 
ATOM     11  C   UNL     1       1.246   3.475  17.800  0.00  0.00    +0.000 C 
ATOM     12  O   UNL     1       1.746   2.173  17.533  0.00  0.00    +0.000 OA
ATOM     13  C   UNL     1       2.899   1.879  18.311  0.00  0.00    +0.000 C 
ATOM     14  C   UNL     1       4.069   2.767  17.878  0.00  0.00    +0.000 C 
ENDROOT
BRANCH   1  16
ATOM     15  C   UNL     1       2.093   5.162  20.964  0.00  0.00    +0.000 C 
ATOM     16  C   UNL     1       3.267   4.327  20.434  0.00  0.00    +0.000 C 
ENDBRANCH   1  16
BRANCH   6  17
ATOM     17  C   UNL     1       5.740   4.782  14.117  0.00  0.00    +0.000 C 
BRANCH  17  18
ATOM     18  C   UNL     1       5.820   3.522  13.245  0.00  0.00    +0.000 C 
ATOM     19  C   UNL     1       4.625   3.421  12.294  0.00  0.00    +0.000 C 
ATOM     20  C   UNL     1       5.058   2.395  11.258  0.00  0.00    +0.000 C 
ATOM     21  C   UNL     1       6.580   2.494  11.188  0.00  0.00    +0.000 C 
ATOM     22  C   UNL     1       7.001   3.484  12.273  0.00  0.00    +0.000 C 
ENDBRANCH  17  18
ENDBRANCH   6  17
TORSDOF 3
ENDMDL
MODEL 6
REMARK VINA RESULT:      -7.0      1.077      1.436
REMARK  Name = 
REMARK  4 active torsions:
REMARK  status: ('A' for Active; 'I' for Inactive)
REMARK    1  A    between atoms: C_1  and  C_2
REMARK    2  A    between atoms: C_2  and  N_3
REMARK    3  A    between atoms: C_8  and  C_10
REMARK    4  A    between atoms: C_10  and  C_11
REMARK                            x       y       z     vdW  Elec       q    Type
REMARK                         _______ _______ _______ _____ _____    ______ ____
ROOT
ATOM      1  N   UNL     1       3.015   5.190  18.527  0.00  0.00    +0.000 NA
ATOM      2  C   UNL     1       3.666   6.515  18.515  0.00  0.00    +0.000 C 
ATOM      3  C   UNL     1       4.209   7.062  17.207  0.00  0.00    +0.000 C 
ATOM      4  C   UNL     1       5.577   6.501  16.894  0.00  0.00    +0.000 C 
ATOM      5  N   UNL     1       5.552   5.177  16.300  0.00  0.00    +0.000 N 
ATOM      6  C   UNL     1       6.543   4.921  15.333  0.00  0.00    +0.000 C 
ATOM      7  O   UNL     1       7.452   5.716  15.102  0.00  0.00    +0.000 OA
ATOM      8  C   UNL     1       4.382   4.318  16.525  0.00  0.00    +0.000 C 
ATOM      9  C   UNL     1       3.828   4.024  17.996  0.00  0.00    +0.000 C 
ATOM     10  C   UNL     1       2.869   2.791  17.724  0.00  0.00    +0.000 C 
ATOM     11  C   UNL     1       2.706   1.746  18.819  0.00  0.00    +0.000 C 
ATOM     12  O   UNL     1       3.953   1.417  19.413  0.00  0.00    +0.000 OA
ATOM     13  C   UNL     1       4.575   2.552  20.000  0.00  0.00    +0.000 C 
ATOM     14  C   UNL     1       4.990   3.549  18.915  0.00  0.00    +0.000 C 
ENDROOT
BRANCH   1  16
ATOM     15  C   UNL     1       1.806   6.255  20.498  0.00  0.00    +0.000 C 
ATOM     16  C   UNL     1       2.419   4.996  19.870  0.00  0.00    +0.000 C 
ENDBRANCH   1  16
BRANCH   6  17
ATOM     17  C   UNL     1       6.444   3.602  14.570  0.00  0.00    +0.000 C 
BRANCH  17  18
ATOM     18  C   UNL     1       6.058   3.743  13.092  0.00  0.00    +0.000 C 
ATOM     19  C   UNL     1       6.395   2.477  12.301  0.00  0.00    +0.000 C 
ATOM     20  C   UNL     1       5.597   2.618  11.013  0.00  0.00    +0.000 C 
ATOM     21  C   UNL     1       4.375   3.460  11.373  0.00  0.00    +0.000 C 
ATOM     22  C   UNL     1       4.559   3.892  12.828  0.00  0.00    +0.000 C 
ENDBRANCH  17  18
ENDBRANCH   6  17
TORSDOF 3
ENDMDL
MODEL 7
REMARK VINA RESULT:      -6.9      3.570      7.426
REMARK  Name = 
REMARK  4 active torsions:
REMARK  status: ('A' for Active; 'I' for Inactive)
REMARK    1  A    between atoms: C_1  and  C_2
REMARK    2  A    between atoms: C_2  and  N_3
REMARK    3  A    between atoms: C_8  and  C_10
REMARK    4  A    between atoms: C_10  and  C_11
REMARK                            x       y       z     vdW  Elec       q    Type
REMARK                         _______ _______ _______ _____ _____    ______ ____
ROOT
ATOM      1  N   UNL     1       3.712   4.218  18.855  0.00  0.00    +0.000 NA
ATOM      2  C   UNL     1       3.804   4.963  17.583  0.00  0.00    +0.000 C 
ATOM      3  C   UNL     1       3.998   6.468  17.619  0.00  0.00    +0.000 C 
ATOM      4  C   UNL     1       2.688   7.194  17.831  0.00  0.00    +0.000 C 
ATOM      5  N   UNL     1       2.257   7.242  19.215  0.00  0.00    +0.000 N 
ATOM      6  C   UNL     1       1.597   8.423  19.610  0.00  0.00    +0.000 C 
ATOM      7  O   UNL     1       1.289   9.299  18.804  0.00  0.00    +0.000 OA
ATOM      8  C   UNL     1       2.755   6.227  20.153  0.00  0.00    +0.000 C 
ATOM      9  C   UNL     1       2.641   4.664  19.833  0.00  0.00    +0.000 C 
ATOM     10  C   UNL     1       2.932   4.035  21.260  0.00  0.00    +0.000 C 
ATOM     11  C   UNL     1       2.251   2.725  21.625  0.00  0.00    +0.000 C 
ATOM     12  O   UNL     1       0.884   2.725  21.237  0.00  0.00    +0.000 OA
ATOM     13  C   UNL     1       0.733   2.903  19.835  0.00  0.00    +0.000 C 
ATOM     14  C   UNL     1       1.182   4.310  19.430  0.00  0.00    +0.000 C 
ENDROOT
BRANCH   1  16
ATOM     15  C   UNL     1       3.119   2.410  17.164  0.00  0.00    +0.000 C 
ATOM     16  C   UNL     1       3.719   2.773  18.529  0.00  0.00    +0.000 C 
ENDBRANCH   1  16
BRANCH   6  17
ATOM     17  C   UNL     1       1.280   8.577  21.095  0.00  0.00    +0.000 C 
BRANCH  17  18
ATOM     18  C   UNL     1       0.130   9.542  21.409  0.00  0.00    +0.000 C 
ATOM     19  C   UNL     1      -0.326   9.417  22.865  0.00  0.00    +0.000 C 
ATOM     20  C   UNL     1      -1.140  10.679  23.111  0.00  0.00    +0.000 C 
ATOM     21  C   UNL     1      -0.561  11.735  22.173  0.00  0.00    +0.000 C 
ATOM     22  C   UNL     1       0.489  11.026  21.316  0.00  0.00    +0.000 C 
ENDBRANCH  17  18
ENDBRANCH   6  17
TORSDOF 3
ENDMDL
MODEL 8
REMARK VINA RESULT:      -6.7      3.129      6.433
REMARK  Name = 
REMARK  4 active torsions:
REMARK  status: ('A' for Active; 'I' for Inactive)
REMARK    1  A    between atoms: C_1  and  C_2
REMARK    2  A    between atoms: C_2  and  N_3
REMARK    3  A    between atoms: C_8  and  C_10
REMARK    4  A    between atoms: C_10  and  C_11
REMARK                            x       y       z     vdW  Elec       q    Type
REMARK                         _______ _______ _______ _____ _____    ______ ____
ROOT
ATOM      1  N   UNL     1       3.149   3.541  19.107  0.00  0.00    +0.000 NA
ATOM      2  C   UNL     1       2.479   3.668  20.417  0.00  0.00    +0.000 C 
ATOM      3  C   UNL     1       1.310   4.626  20.561  0.00  0.00    +0.000 C 
ATOM      4  C   UNL     1       1.777   6.048  20.776  0.00  0.00    +0.000 C 
ATOM      5  N   UNL     1       2.158   6.736  19.557  0.00  0.00    +0.000 N 
ATOM      6  C   UNL     1       1.855   8.111  19.510  0.00  0.00    +0.000 C 
ATOM      7  O   UNL     1       1.420   8.717  20.487  0.00  0.00    +0.000 OA
ATOM      8  C   UNL     1       2.561   5.944  18.388  0.00  0.00    +0.000 C 
ATOM      9  C   UNL     1       3.691   4.817  18.489  0.00  0.00    +0.000 C 
ATOM     10  C   UNL     1       4.015   4.566  16.957  0.00  0.00    +0.000 C 
ATOM     11  C   UNL     1       5.433   4.172  16.573  0.00  0.00    +0.000 C 
ATOM     12  O   UNL     1       6.395   4.950  17.270  0.00  0.00    +0.000 OA
ATOM     13  C   UNL     1       6.280   4.795  18.678  0.00  0.00    +0.000 C 
ATOM     14  C   UNL     1       4.962   5.398  19.170  0.00  0.00    +0.000 C 
ENDROOT
BRANCH   1  16
ATOM     15  C   UNL     1       3.727   1.163  18.406  0.00  0.00    +0.000 C 
ATOM     16  C   UNL     1       4.110   2.418  19.203  0.00  0.00    +0.000 C 
ENDBRANCH   1  16
BRANCH   6  17
ATOM     17  C   UNL     1       2.088   8.829  18.183  0.00  0.00    +0.000 C 
BRANCH  17  18
ATOM     18  C   UNL     1       1.146  10.009  17.917  0.00  0.00    +0.000 C 
ATOM     19  C   UNL     1      -0.322   9.594  18.041  0.00  0.00    +0.000 C 
ATOM     20  C   UNL     1      -1.073  10.911  18.163  0.00  0.00    +0.000 C 
ATOM     21  C   UNL     1      -0.094  11.888  18.810  0.00  0.00    +0.000 C 
ATOM     22  C   UNL     1       1.239  11.150  18.932  0.00  0.00    +0.000 C 
ENDBRANCH  17  18
ENDBRANCH   6  17
TORSDOF 3
ENDMDL
MODEL 9
REMARK VINA RESULT:      -6.6      3.501      7.329
REMARK  Name = 
REMARK  4 active torsions:
REMARK  status: ('A' for Active; 'I' for Inactive)
REMARK    1  A    between atoms: C_1  and  C_2
REMARK    2  A    between atoms: C_2  and  N_3
REMARK    3  A    between atoms: C_8  and  C_10
REMARK    4  A    between atoms: C_10  and  C_11
REMARK                            x       y       z     vdW  Elec       q    Type
REMARK                         _______ _______ _______ _____ _____    ______ ____
ROOT
ATOM      1  N   UNL     1       4.156   4.739  18.250  0.00  0.00    +0.000 NA
ATOM      2  C   UNL     1       4.430   5.755  17.214  0.00  0.00    +0.000 C 
ATOM      3  C   UNL     1       4.486   7.220  17.610  0.00  0.00    +0.000 C 
ATOM      4  C   UNL     1       3.104   7.828  17.696  0.00  0.00    +0.000 C 
ATOM      5  N   UNL     1       2.410   7.545  18.939  0.00  0.00    +0.000 N 
ATOM      6  C   UNL     1       1.591   8.579  19.432  0.00  0.00    +0.000 C 
ATOM      7  O   UNL     1       1.372   9.602  18.786  0.00  0.00    +0.000 OA
ATOM      8  C   UNL     1       2.801   6.364  19.720  0.00  0.00    +0.000 C 
ATOM      9  C   UNL     1       2.882   4.910  19.057  0.00  0.00    +0.000 C 
ATOM     10  C   UNL     1       2.944   3.987  20.344  0.00  0.00    +0.000 C 
ATOM     11  C   UNL     1       2.317   2.602  20.272  0.00  0.00    +0.000 C 
ATOM     12  O   UNL     1       1.056   2.637  19.618  0.00  0.00    +0.000 OA
ATOM     13  C   UNL     1       1.165   3.122  18.286  0.00  0.00    +0.000 C 
ATOM     14  C   UNL     1       1.564   4.600  18.293  0.00  0.00    +0.000 C 
ENDROOT
BRANCH   1  16
ATOM     15  C   UNL     1       4.926   3.425  16.209  0.00  0.00    +0.000 C 
ATOM     16  C   UNL     1       4.347   3.406  17.631  0.00  0.00    +0.000 C 
ENDBRANCH   1  16
BRANCH   6  17
ATOM     17  C   UNL     1       0.980   8.381  20.817  0.00  0.00    +0.000 C 
BRANCH  17  18
ATOM     18  C   UNL     1       0.543   9.673  21.517  0.00  0.00    +0.000 C 
ATOM     19  C   UNL     1      -0.592  10.366  20.759  0.00  0.00    +0.000 C 
ATOM     20  C   UNL     1      -1.165  11.352  21.766  0.00  0.00    +0.000 C 
ATOM     21  C   UNL     1      -0.902  10.742  23.140  0.00  0.00    +0.000 C 
ATOM     22  C   UNL     1      -0.073   9.480  22.903  0.00  0.00    +0.000 C 
ENDBRANCH  17  18
ENDBRANCH   6  17
TORSDOF 3
ENDMDL
