MODEL 1
REMARK VINA RESULT:      -6.8      0.000      0.000
REMARK  Name = 
REMARK  10 active torsions:
REMARK  status: ('A' for Active; 'I' for Inactive)
REMARK    1  A    between atoms: C_1  and  S_2
REMARK    2  A    between atoms: S_2  and  C_3
REMARK    3  A    between atoms: S_2  and  C_7
REMARK    4  A    between atoms: C_3  and  C_4
REMARK    5  A    between atoms: C_4  and  C_5
REMARK    6  A    between atoms: C_5  and  N_6
REMARK    7  A    between atoms: C_7  and  C_8
REMARK    8  A    between atoms: C_10  and  N_11
REMARK    9  A    between atoms: C_21  and  O_22
REMARK   10  A    between atoms: C_23  and  O_24
REMARK                            x       y       z     vdW  Elec       q    Type
REMARK                         _______ _______ _______ _____ _____    ______ ____
ROOT
ATOM      1  C   UNL     1       4.629   4.335  18.527  0.00  0.00    +0.000 C 
ATOM      2  O   UNL     1       4.416   5.701  18.948  0.00  0.00    +0.000 OA
ATOM      3  C   UNL     1       3.067   5.855  19.443  0.00  0.00    +0.000 C 
ATOM      4  C   UNL     1       2.285   4.650  18.919  0.00  0.00    +0.000 C 
ATOM      5  C   UNL     1       3.364   3.573  18.927  0.00  0.00    +0.000 C 
ENDROOT
BRANCH   3   6
ATOM      6  N   UNL     1       2.537   7.145  19.059  0.00  0.00    +0.000 N 
ATOM      7  C   UNL     1       2.754   7.826  17.889  0.00  0.00    +0.000 A 
ATOM      8  N   UNL     1       2.134   8.991  17.876  0.00  0.00    +0.000 NA
ATOM      9  C   UNL     1       1.547   9.096  19.114  0.00  0.00    +0.000 A 
ATOM     10  C   UNL     1       0.805  10.123  19.725  0.00  0.00    +0.000 A 
ATOM     11  N   UNL     1       0.556  11.348  19.115  0.00  0.00    +0.000 N 
ATOM     12  N   UNL     1       0.302   9.912  20.962  0.00  0.00    +0.000 NA
ATOM     13  C   UNL     1       0.581   8.735  21.564  0.00  0.00    +0.000 A 
ATOM     14  N   UNL     1       1.307   7.696  21.102  0.00  0.00    +0.000 NA
ATOM     15  C   UNL     1       1.758   7.946  19.857  0.00  0.00    +0.000 A 
ATOM     16  H   UNL     1       0.700  11.331  18.110  0.00  0.00    +0.000 HD
ATOM     17  H   UNL     1      -0.261  11.814  19.481  0.00  0.00    +0.000 HD
ENDBRANCH   3   6
BRANCH   4  18
ATOM     18  O   UNL     1       1.187   4.254  19.743  0.00  0.00    +0.000 OA
ATOM     19  H   UNL     1       0.407   4.716  19.382  0.00  0.00    +0.000 HD
ENDBRANCH   4  18
BRANCH   5  20
ATOM     20  O   UNL     1       3.464   3.058  20.274  0.00  0.00    +0.000 OA
ATOM     21  H   UNL     1       4.379   3.188  20.589  0.00  0.00    +0.000 HD
ENDBRANCH   5  20
BRANCH   1  22
ATOM     22  C   UNL     1       4.928   4.222  17.023  0.00  0.00    +0.000 C 
BRANCH  22  24
ATOM     23  C   UNL     1       6.636   4.391  14.856  0.00  0.00    +0.000 C 
ATOM     24  S   UNL     1       6.687   4.456  16.654  0.00  0.00    +0.000 S 
BRANCH  24  25
ATOM     25  C   UNL     1       6.792   6.276  16.773  0.00  0.00    +0.000 C 
BRANCH  25  26
ATOM     26  C   UNL     1       7.581   6.724  17.998  0.00  0.00    +0.000 C 
BRANCH  26  27
ATOM     27  C   UNL     1       8.085   5.561  18.860  0.00  0.00    +0.000 C 
BRANCH  27  28
ATOM     28  N   UNL     1       7.548   5.581  20.218  0.00  0.00    +0.000 NA
ATOM     29  H   UNL     1       7.143   6.508  20.393  0.00  0.00    +0.000 HD
ATOM     30  H   UNL     1       8.305   5.478  20.890  0.00  0.00    +0.000 HD
ENDBRANCH  27  28
ENDBRANCH  26  27
ENDBRANCH  25  26
ENDBRANCH  24  25
ENDBRANCH  22  24
ENDBRANCH   1  22
TORSDOF 9
ENDMDL
MODEL 2
REMARK VINA RESULT:      -6.7      1.206      2.244
REMARK  Name = 
REMARK  10 active torsions:
REMARK  status: ('A' for Active; 'I' for Inactive)
REMARK    1  A    between atoms: C_1  and  S_2
REMARK    2  A    between atoms: S_2  and  C_3
REMARK    3  A    between atoms: S_2  and  C_7
REMARK    4  A    between atoms: C_3  and  C_4
REMARK    5  A    between atoms: C_4  and  C_5
REMARK    6  A    between atoms: C_5  and  N_6
REMARK    7  A    between atoms: C_7  and  C_8
REMARK    8  A    between atoms: C_10  and  N_11
REMARK    9  A    between atoms: C_21  and  O_22
REMARK   10  A    between atoms: C_23  and  O_24
REMARK                            x       y       z     vdW  Elec       q    Type
REMARK                         _______ _______ _______ _____ _____    ______ ____
ROOT
ATOM      1  C   UNL     1       4.512   3.333  17.748  0.00  0.00    +0.000 C 
ATOM      2  O   UNL     1       4.286   4.197  18.884  0.00  0.00    +0.000 OA
ATOM      3  C   UNL     1       2.919   4.068  19.333  0.00  0.00    +0.000 C 
ATOM      4  C   UNL     1       2.155   3.421  18.177  0.00  0.00    +0.000 C 
ATOM      5  C   UNL     1       3.229   2.516  17.585  0.00  0.00    +0.000 C 
ENDROOT
BRANCH   3   6
ATOM      6  N   UNL     1       2.410   5.351  19.763  0.00  0.00    +0.000 N 
ATOM      7  C   UNL     1       1.701   5.634  20.902  0.00  0.00    +0.000 A 
ATOM      8  N   UNL     1       1.370   6.910  20.972  0.00  0.00    +0.000 NA
ATOM      9  C   UNL     1       1.827   7.461  19.799  0.00  0.00    +0.000 A 
ATOM     10  C   UNL     1       1.728   8.757  19.261  0.00  0.00    +0.000 A 
ATOM     11  N   UNL     1       1.039   9.790  19.886  0.00  0.00    +0.000 N 
ATOM     12  N   UNL     1       2.336   9.018  18.082  0.00  0.00    +0.000 NA
ATOM     13  C   UNL     1       2.971   8.000  17.460  0.00  0.00    +0.000 A 
ATOM     14  N   UNL     1       3.101   6.716  17.851  0.00  0.00    +0.000 NA
ATOM     15  C   UNL     1       2.505   6.518  19.044  0.00  0.00    +0.000 A 
ATOM     16  H   UNL     1       0.866   9.616  20.872  0.00  0.00    +0.000 HD
ATOM     17  H   UNL     1       1.353  10.706  19.602  0.00  0.00    +0.000 HD
ENDBRANCH   3   6
BRANCH   4  18
ATOM     18  O   UNL     1       1.023   2.646  18.577  0.00  0.00    +0.000 OA
ATOM     19  H   UNL     1       0.679   2.241  17.759  0.00  0.00    +0.000 HD
ENDBRANCH   4  18
BRANCH   5  20
ATOM     20  O   UNL     1       3.272   1.306  18.375  0.00  0.00    +0.000 OA
ATOM     21  H   UNL     1       3.936   0.704  17.986  0.00  0.00    +0.000 HD
ENDBRANCH   5  20
BRANCH   1  22
ATOM     22  C   UNL     1       4.872   4.116  16.475  0.00  0.00    +0.000 C 
BRANCH  22  24
ATOM     23  C   UNL     1       6.798   4.830  14.624  0.00  0.00    +0.000 C 
ATOM     24  S   UNL     1       6.639   4.511  16.389  0.00  0.00    +0.000 S 
BRANCH  24  25
ATOM     25  C   UNL     1       6.592   6.266  16.893  0.00  0.00    +0.000 C 
BRANCH  25  26
ATOM     26  C   UNL     1       7.498   6.542  18.088  0.00  0.00    +0.000 C 
BRANCH  26  27
ATOM     27  C   UNL     1       7.824   5.290  18.911  0.00  0.00    +0.000 C 
BRANCH  27  28
ATOM     28  N   UNL     1       7.971   5.565  20.337  0.00  0.00    +0.000 NA
ATOM     29  H   UNL     1       8.887   6.004  20.489  0.00  0.00    +0.000 HD
ATOM     30  H   UNL     1       7.994   4.691  20.857  0.00  0.00    +0.000 HD
ENDBRANCH  27  28
ENDBRANCH  26  27
ENDBRANCH  25  26
ENDBRANCH  24  25
ENDBRANCH  22  24
ENDBRANCH   1  22
TORSDOF 9
ENDMDL
MODEL 3
REMARK VINA RESULT:      -6.6      1.886      2.653
REMARK  Name = 
REMARK  10 active torsions:
REMARK  status: ('A' for Active; 'I' for Inactive)
REMARK    1  A    between atoms: C_1  and  S_2
REMARK    2  A    between atoms: S_2  and  C_3
REMARK    3  A    between atoms: S_2  and  C_7
REMARK    4  A    between atoms: C_3  and  C_4
REMARK    5  A    between atoms: C_4  and  C_5
REMARK    6  A    between atoms: C_5  and  N_6
REMARK    7  A    between atoms: C_7  and  C_8
REMARK    8  A    between atoms: C_10  and  N_11
REMARK    9  A    between atoms: C_21  and  O_22
REMARK   10  A    between atoms: C_23  and  O_24
REMARK                            x       y       z     vdW  Elec       q    Type
REMARK                         _______ _______ _______ _____ _____    ______ ____
ROOT
ATOM      1  C   UNL     1       4.619   4.232  18.786  0.00  0.00    +0.000 C 
ATOM      2  O   UNL     1       4.425   5.638  19.058  0.00  0.00    +0.000 OA
ATOM      3  C   UNL     1       3.060   5.874  19.470  0.00  0.00    +0.000 C 
ATOM      4  C   UNL     1       2.269   4.640  19.031  0.00  0.00    +0.000 C 
ATOM      5  C   UNL     1       3.316   3.545  19.199  0.00  0.00    +0.000 C 
ENDROOT
BRANCH   3   6
ATOM      6  N   UNL     1       2.585   7.130  18.934  0.00  0.00    +0.000 N 
ATOM      7  C   UNL     1       2.847   7.668  17.700  0.00  0.00    +0.000 A 
ATOM      8  N   UNL     1       2.271   8.845  17.545  0.00  0.00    +0.000 NA
ATOM      9  C   UNL     1       1.667   9.109  18.751  0.00  0.00    +0.000 A 
ATOM     10  C   UNL     1       0.954  10.222  19.228  0.00  0.00    +0.000 A 
ATOM     11  N   UNL     1       0.760  11.379  18.481  0.00  0.00    +0.000 N 
ATOM     12  N   UNL     1       0.422  10.169  20.470  0.00  0.00    +0.000 NA
ATOM     13  C   UNL     1       0.647   9.058  21.205  0.00  0.00    +0.000 A 
ATOM     14  N   UNL     1       1.342   7.949  20.877  0.00  0.00    +0.000 NA
ATOM     15  C   UNL     1       1.823   8.042  19.621  0.00  0.00    +0.000 A 
ATOM     16  H   UNL     1       0.920  11.245  17.487  0.00  0.00    +0.000 HD
ATOM     17  H   UNL     1      -0.044  11.912  18.776  0.00  0.00    +0.000 HD
ENDBRANCH   3   6
BRANCH   4  18
ATOM     18  O   UNL     1       1.124   4.355  19.837  0.00  0.00    +0.000 OA
ATOM     19  H   UNL     1       0.551   3.788  19.287  0.00  0.00    +0.000 HD
ENDBRANCH   4  18
BRANCH   5  20
ATOM     20  O   UNL     1       3.340   3.166  20.593  0.00  0.00    +0.000 OA
ATOM     21  H   UNL     1       4.180   2.702  20.775  0.00  0.00    +0.000 HD
ENDBRANCH   5  20
BRANCH   1  22
ATOM     22  C   UNL     1       4.983   3.962  17.317  0.00  0.00    +0.000 C 
BRANCH  22  24
ATOM     23  C   UNL     1       7.619   4.695  17.713  0.00  0.00    +0.000 C 
ATOM     24  S   UNL     1       6.209   5.138  16.686  0.00  0.00    +0.000 S 
BRANCH  24  25
ATOM     25  C   UNL     1       6.769   4.238  15.199  0.00  0.00    +0.000 C 
BRANCH  25  26
ATOM     26  C   UNL     1       5.694   4.193  14.118  0.00  0.00    +0.000 C 
BRANCH  26  27
ATOM     27  C   UNL     1       6.189   3.620  12.786  0.00  0.00    +0.000 C 
BRANCH  27  28
ATOM     28  N   UNL     1       5.103   3.189  11.910  0.00  0.00    +0.000 NA
ATOM     29  H   UNL     1       4.389   3.926  11.893  0.00  0.00    +0.000 HD
ATOM     30  H   UNL     1       4.645   2.370  12.304  0.00  0.00    +0.000 HD
ENDBRANCH  27  28
ENDBRANCH  26  27
ENDBRANCH  25  26
ENDBRANCH  24  25
ENDBRANCH  22  24
ENDBRANCH   1  22
TORSDOF 9
ENDMDL
MODEL 4
REMARK VINA RESULT:      -6.5      1.541      2.084
REMARK  Name = 
REMARK  10 active torsions:
REMARK  status: ('A' for Active; 'I' for Inactive)
REMARK    1  A    between atoms: C_1  and  S_2
REMARK    2  A    between atoms: S_2  and  C_3
REMARK    3  A    between atoms: S_2  and  C_7
REMARK    4  A    between atoms: C_3  and  C_4
REMARK    5  A    between atoms: C_4  and  C_5
REMARK    6  A    between atoms: C_5  and  N_6
REMARK    7  A    between atoms: C_7  and  C_8
REMARK    8  A    between atoms: C_10  and  N_11
REMARK    9  A    between atoms: C_21  and  O_22
REMARK   10  A    between atoms: C_23  and  O_24
REMARK                            x       y       z     vdW  Elec       q    Type
REMARK                         _______ _______ _______ _____ _____    ______ ____
ROOT
ATOM      1  C   UNL     1       4.488   4.364  19.166  0.00  0.00    +0.000 C 
ATOM      2  O   UNL     1       3.858   5.578  19.632  0.00  0.00    +0.000 OA
ATOM      3  C   UNL     1       2.525   5.679  19.083  0.00  0.00    +0.000 C 
ATOM      4  C   UNL     1       2.481   4.709  17.901  0.00  0.00    +0.000 C 
ATOM      5  C   UNL     1       3.409   3.604  18.393  0.00  0.00    +0.000 C 
ENDROOT
BRANCH   3   6
ATOM      6  N   UNL     1       2.219   7.054  18.759  0.00  0.00    +0.000 N 
ATOM      7  C   UNL     1       2.445   7.708  17.576  0.00  0.00    +0.000 A 
ATOM      8  N   UNL     1       2.065   8.971  17.630  0.00  0.00    +0.000 NA
ATOM      9  C   UNL     1       1.638   9.159  18.923  0.00  0.00    +0.000 A 
ATOM     10  C   UNL     1       1.175  10.295  19.610  0.00  0.00    +0.000 A 
ATOM     11  N   UNL     1       1.108  11.558  19.033  0.00  0.00    +0.000 N 
ATOM     12  N   UNL     1       0.767  10.157  20.892  0.00  0.00    +0.000 NA
ATOM     13  C   UNL     1       0.872   8.934  21.459  0.00  0.00    +0.000 A 
ATOM     14  N   UNL     1       1.332   7.786  20.921  0.00  0.00    +0.000 NA
ATOM     15  C   UNL     1       1.695   7.973  19.636  0.00  0.00    +0.000 A 
ATOM     16  H   UNL     1       1.144  11.537  18.019  0.00  0.00    +0.000 HD
ATOM     17  H   UNL     1       0.439  12.165  19.483  0.00  0.00    +0.000 HD
ENDBRANCH   3   6
BRANCH   4  18
ATOM     18  O   UNL     1       1.185   4.177  17.621  0.00  0.00    +0.000 OA
ATOM     19  H   UNL     1       0.849   4.690  16.862  0.00  0.00    +0.000 HD
ENDBRANCH   4  18
BRANCH   5  20
ATOM     20  O   UNL     1       2.645   2.742  19.266  0.00  0.00    +0.000 OA
ATOM     21  H   UNL     1       3.253   2.099  19.679  0.00  0.00    +0.000 HD
ENDBRANCH   5  20
BRANCH   1  22
ATOM     22  C   UNL     1       5.735   4.639  18.310  0.00  0.00    +0.000 C 
BRANCH  22  24
ATOM     23  C   UNL     1       7.661   6.537  17.730  0.00  0.00    +0.000 C 
ATOM     24  S   UNL     1       5.870   6.383  17.837  0.00  0.00    +0.000 S 
BRANCH  24  25
ATOM     25  C   UNL     1       5.587   6.242  16.038  0.00  0.00    +0.000 C 
BRANCH  25  26
ATOM     26  C   UNL     1       5.492   4.789  15.586  0.00  0.00    +0.000 C 
BRANCH  26  27
ATOM     27  C   UNL     1       6.688   4.330  14.745  0.00  0.00    +0.000 C 
BRANCH  27  28
ATOM     28  N   UNL     1       7.546   5.434  14.320  0.00  0.00    +0.000 NA
ATOM     29  H   UNL     1       7.374   6.234  14.940  0.00  0.00    +0.000 HD
ATOM     30  H   UNL     1       7.275   5.743  13.390  0.00  0.00    +0.000 HD
ENDBRANCH  27  28
ENDBRANCH  26  27
ENDBRANCH  25  26
ENDBRANCH  24  25
ENDBRANCH  22  24
ENDBRANCH   1  22
TORSDOF 9
ENDMDL
MODEL 5
REMARK VINA RESULT:      -6.4      3.809      6.115
REMARK  Name = 
REMARK  10 active torsions:
REMARK  status: ('A' for Active; 'I' for Inactive)
REMARK    1  A    between atoms: C_1  and  S_2
REMARK    2  A    between atoms: S_2  and  C_3
REMARK    3  A    between atoms: S_2  and  C_7
REMARK    4  A    between atoms: C_3  and  C_4
REMARK    5  A    between atoms: C_4  and  C_5
REMARK    6  A    between atoms: C_5  and  N_6
REMARK    7  A    between atoms: C_7  and  C_8
REMARK    8  A    between atoms: C_10  and  N_11
REMARK    9  A    between atoms: C_21  and  O_22
REMARK   10  A    between atoms: C_23  and  O_24
REMARK                            x       y       z     vdW  Elec       q    Type
REMARK                         _______ _______ _______ _____ _____    ______ ____
ROOT
ATOM      1  C   UNL     1       6.016   4.749  14.730  0.00  0.00    +0.000 C 
ATOM      2  O   UNL     1       4.857   4.890  15.582  0.00  0.00    +0.000 OA
ATOM      3  C   UNL     1       5.260   4.852  16.969  0.00  0.00    +0.000 C 
ATOM      4  C   UNL     1       6.663   4.243  16.983  0.00  0.00    +0.000 C 
ATOM      5  C   UNL     1       7.225   4.768  15.668  0.00  0.00    +0.000 C 
ENDROOT
BRANCH   3   6
ATOM      6  N   UNL     1       4.276   4.145  17.757  0.00  0.00    +0.000 N 
ATOM      7  C   UNL     1       3.950   2.815  17.695  0.00  0.00    +0.000 A 
ATOM      8  N   UNL     1       2.987   2.504  18.543  0.00  0.00    +0.000 NA
ATOM      9  C   UNL     1       2.630   3.695  19.129  0.00  0.00    +0.000 A 
ATOM     10  C   UNL     1       1.633   4.028  20.062  0.00  0.00    +0.000 A 
ATOM     11  N   UNL     1       0.722   3.106  20.566  0.00  0.00    +0.000 N 
ATOM     12  N   UNL     1       1.555   5.305  20.502  0.00  0.00    +0.000 NA
ATOM     13  C   UNL     1       2.418   6.205  19.980  0.00  0.00    +0.000 A 
ATOM     14  N   UNL     1       3.385   6.018  19.059  0.00  0.00    +0.000 NA
ATOM     15  C   UNL     1       3.439   4.725  18.679  0.00  0.00    +0.000 A 
ATOM     16  H   UNL     1       1.012   2.142  20.429  0.00  0.00    +0.000 HD
ATOM     17  H   UNL     1       0.336   3.375  21.458  0.00  0.00    +0.000 HD
ENDBRANCH   3   6
BRANCH   4  18
ATOM     18  O   UNL     1       7.481   4.668  18.075  0.00  0.00    +0.000 OA
ATOM     19  H   UNL     1       8.129   3.951  18.212  0.00  0.00    +0.000 HD
ENDBRANCH   4  18
BRANCH   5  20
ATOM     20  O   UNL     1       7.693   6.117  15.895  0.00  0.00    +0.000 OA
ATOM     21  H   UNL     1       7.571   6.631  15.073  0.00  0.00    +0.000 HD
ENDBRANCH   5  20
BRANCH   1  22
ATOM     22  C   UNL     1       5.964   3.475  13.871  0.00  0.00    +0.000 C 
BRANCH  22  24
ATOM     23  C   UNL     1       7.373   2.564  11.674  0.00  0.00    +0.000 C 
ATOM     24  S   UNL     1       6.169   3.830  12.106  0.00  0.00    +0.000 S 
BRANCH  24  25
ATOM     25  C   UNL     1       4.717   2.945  11.438  0.00  0.00    +0.000 C 
BRANCH  25  26
ATOM     26  C   UNL     1       3.620   3.904  10.989  0.00  0.00    +0.000 C 
BRANCH  26  27
ATOM     27  C   UNL     1       2.909   3.462   9.705  0.00  0.00    +0.000 C 
BRANCH  27  28
ATOM     28  N   UNL     1       2.924   4.484   8.662  0.00  0.00    +0.000 NA
ATOM     29  H   UNL     1       3.715   4.296   8.035  0.00  0.00    +0.000 HD
ATOM     30  H   UNL     1       3.109   5.395   9.075  0.00  0.00    +0.000 HD
ENDBRANCH  27  28
ENDBRANCH  26  27
ENDBRANCH  25  26
ENDBRANCH  24  25
ENDBRANCH  22  24
ENDBRANCH   1  22
TORSDOF 9
ENDMDL
MODEL 6
REMARK VINA RESULT:      -6.4      3.292      5.403
REMARK  Name = 
REMARK  10 active torsions:
REMARK  status: ('A' for Active; 'I' for Inactive)
REMARK    1  A    between atoms: C_1  and  S_2
REMARK    2  A    between atoms: S_2  and  C_3
REMARK    3  A    between atoms: S_2  and  C_7
REMARK    4  A    between atoms: C_3  and  C_4
REMARK    5  A    between atoms: C_4  and  C_5
REMARK    6  A    between atoms: C_5  and  N_6
REMARK    7  A    between atoms: C_7  and  C_8
REMARK    8  A    between atoms: C_10  and  N_11
REMARK    9  A    between atoms: C_21  and  O_22
REMARK   10  A    between atoms: C_23  and  O_24
REMARK                            x       y       z     vdW  Elec       q    Type
REMARK                         _______ _______ _______ _____ _____    ______ ____
ROOT
ATOM      1  C   UNL     1       6.794   5.969  16.754  0.00  0.00    +0.000 C 
ATOM      2  O   UNL     1       5.507   5.839  17.399  0.00  0.00    +0.000 OA
ATOM      3  C   UNL     1       5.690   5.626  18.817  0.00  0.00    +0.000 C 
ATOM      4  C   UNL     1       7.144   5.186  18.993  0.00  0.00    +0.000 C 
ATOM      5  C   UNL     1       7.827   5.976  17.883  0.00  0.00    +0.000 C 
ENDROOT
BRANCH   3   6
ATOM      6  N   UNL     1       4.703   4.694  19.314  0.00  0.00    +0.000 N 
ATOM      7  C   UNL     1       4.786   3.326  19.357  0.00  0.00    +0.000 A 
ATOM      8  N   UNL     1       3.691   2.781  19.853  0.00  0.00    +0.000 NA
ATOM      9  C   UNL     1       2.839   3.836  20.079  0.00  0.00    +0.000 A 
ATOM     10  C   UNL     1       1.512   3.897  20.538  0.00  0.00    +0.000 A 
ATOM     11  N   UNL     1       0.755   2.768  20.832  0.00  0.00    +0.000 N 
ATOM     12  N   UNL     1       0.941   5.110  20.712  0.00  0.00    +0.000 NA
ATOM     13  C   UNL     1       1.668   6.202  20.388  0.00  0.00    +0.000 A 
ATOM     14  N   UNL     1       2.926   6.272  19.905  0.00  0.00    +0.000 NA
ATOM     15  C   UNL     1       3.457   5.039  19.780  0.00  0.00    +0.000 A 
ATOM     16  H   UNL     1       1.317   1.933  20.962  0.00  0.00    +0.000 HD
ATOM     17  H   UNL     1       0.002   2.953  21.478  0.00  0.00    +0.000 HD
ENDBRANCH   3   6
BRANCH   4  18
ATOM     18  O   UNL     1       7.714   5.522  20.260  0.00  0.00    +0.000 OA
ATOM     19  H   UNL     1       7.873   6.484  20.229  0.00  0.00    +0.000 HD
ENDBRANCH   4  18
BRANCH   5  20
ATOM     20  O   UNL     1       8.060   7.315  18.373  0.00  0.00    +0.000 OA
ATOM     21  H   UNL     1       7.817   7.950  17.672  0.00  0.00    +0.000 HD
ENDBRANCH   5  20
BRANCH   1  22
ATOM     22  C   UNL     1       7.055   4.852  15.731  0.00  0.00    +0.000 C 
BRANCH  22  24
ATOM     23  C   UNL     1       7.936   5.232  13.138  0.00  0.00    +0.000 C 
ATOM     24  S   UNL     1       6.407   5.261  14.088  0.00  0.00    +0.000 S 
BRANCH  24  25
ATOM     25  C   UNL     1       5.826   3.612  13.561  0.00  0.00    +0.000 C 
BRANCH  25  26
ATOM     26  C   UNL     1       6.355   3.234  12.181  0.00  0.00    +0.000 C 
BRANCH  26  27
ATOM     27  C   UNL     1       5.621   2.046  11.550  0.00  0.00    +0.000 C 
BRANCH  27  28
ATOM     28  N   UNL     1       6.523   0.987  11.104  0.00  0.00    +0.000 NA
ATOM     29  H   UNL     1       6.676   0.341  11.888  0.00  0.00    +0.000 HD
ATOM     30  H   UNL     1       7.436   1.380  10.888  0.00  0.00    +0.000 HD
ENDBRANCH  27  28
ENDBRANCH  26  27
ENDBRANCH  25  26
ENDBRANCH  24  25
ENDBRANCH  22  24
ENDBRANCH   1  22
TORSDOF 9
ENDMDL
MODEL 7
REMARK VINA RESULT:      -6.4      3.874      5.949
REMARK  Name = 
REMARK  10 active torsions:
REMARK  status: ('A' for Active; 'I' for Inactive)
REMARK    1  A    between atoms: C_1  and  S_2
REMARK    2  A    between atoms: S_2  and  C_3
REMARK    3  A    between atoms: S_2  and  C_7
REMARK    4  A    between atoms: C_3  and  C_4
REMARK    5  A    between atoms: C_4  and  C_5
REMARK    6  A    between atoms: C_5  and  N_6
REMARK    7  A    between atoms: C_7  and  C_8
REMARK    8  A    between atoms: C_10  and  N_11
REMARK    9  A    between atoms: C_21  and  O_22
REMARK   10  A    between atoms: C_23  and  O_24
REMARK                            x       y       z     vdW  Elec       q    Type
REMARK                         _______ _______ _______ _____ _____    ______ ____
ROOT
ATOM      1  C   UNL     1       6.071   4.640  14.830  0.00  0.00    +0.000 C 
ATOM      2  O   UNL     1       4.860   4.771  15.608  0.00  0.00    +0.000 OA
ATOM      3  C   UNL     1       5.185   4.819  17.016  0.00  0.00    +0.000 C 
ATOM      4  C   UNL     1       6.608   4.273  17.138  0.00  0.00    +0.000 C 
ATOM      5  C   UNL     1       7.223   4.758  15.831  0.00  0.00    +0.000 C 
ENDROOT
BRANCH   3   6
ATOM      6  N   UNL     1       4.187   4.108  17.784  0.00  0.00    +0.000 N 
ATOM      7  C   UNL     1       3.835   2.787  17.684  0.00  0.00    +0.000 A 
ATOM      8  N   UNL     1       2.866   2.471  18.523  0.00  0.00    +0.000 NA
ATOM      9  C   UNL     1       2.533   3.651  19.143  0.00  0.00    +0.000 A 
ATOM     10  C   UNL     1       1.542   3.977  20.085  0.00  0.00    +0.000 A 
ATOM     11  N   UNL     1       0.613   3.058  20.562  0.00  0.00    +0.000 N 
ATOM     12  N   UNL     1       1.488   5.241  20.561  0.00  0.00    +0.000 NA
ATOM     13  C   UNL     1       2.368   6.139  20.065  0.00  0.00    +0.000 A 
ATOM     14  N   UNL     1       3.332   5.960  19.138  0.00  0.00    +0.000 NA
ATOM     15  C   UNL     1       3.361   4.678  18.722  0.00  0.00    +0.000 A 
ATOM     16  H   UNL     1       0.885   2.093  20.398  0.00  0.00    +0.000 HD
ATOM     17  H   UNL     1       0.232   3.309  21.462  0.00  0.00    +0.000 HD
ENDBRANCH   3   6
BRANCH   4  18
ATOM     18  O   UNL     1       7.344   4.786  18.250  0.00  0.00    +0.000 OA
ATOM     19  H   UNL     1       7.691   5.650  17.959  0.00  0.00    +0.000 HD
ENDBRANCH   4  18
BRANCH   5  20
ATOM     20  O   UNL     1       7.621   6.135  16.014  0.00  0.00    +0.000 OA
ATOM     21  H   UNL     1       6.829   6.661  16.237  0.00  0.00    +0.000 HD
ENDBRANCH   5  20
BRANCH   1  22
ATOM     22  C   UNL     1       6.120   3.325  14.036  0.00  0.00    +0.000 C 
BRANCH  22  24
ATOM     23  C   UNL     1       7.320   4.772  12.009  0.00  0.00    +0.000 C 
ATOM     24  S   UNL     1       5.978   3.597  12.250  0.00  0.00    +0.000 S 
BRANCH  24  25
ATOM     25  C   UNL     1       6.892   2.139  11.637  0.00  0.00    +0.000 C 
BRANCH  25  26
ATOM     26  C   UNL     1       5.954   1.032  11.168  0.00  0.00    +0.000 C 
BRANCH  26  27
ATOM     27  C   UNL     1       6.509  -0.378  11.397  0.00  0.00    +0.000 C 
BRANCH  27  28
ATOM     28  N   UNL     1       5.489  -1.418  11.298  0.00  0.00    +0.000 NA
ATOM     29  H   UNL     1       4.688  -1.141  11.877  0.00  0.00    +0.000 HD
ATOM     30  H   UNL     1       5.838  -2.283  11.705  0.00  0.00    +0.000 HD
ENDBRANCH  27  28
ENDBRANCH  26  27
ENDBRANCH  25  26
ENDBRANCH  24  25
ENDBRANCH  22  24
ENDBRANCH   1  22
TORSDOF 9
ENDMDL
MODEL 8
REMARK VINA RESULT:      -6.3      1.058      1.192
REMARK  Name = 
REMARK  10 active torsions:
REMARK  status: ('A' for Active; 'I' for Inactive)
REMARK    1  A    between atoms: C_1  and  S_2
REMARK    2  A    between atoms: S_2  and  C_3
REMARK    3  A    between atoms: S_2  and  C_7
REMARK    4  A    between atoms: C_3  and  C_4
REMARK    5  A    between atoms: C_4  and  C_5
REMARK    6  A    between atoms: C_5  and  N_6
REMARK    7  A    between atoms: C_7  and  C_8
REMARK    8  A    between atoms: C_10  and  N_11
REMARK    9  A    between atoms: C_21  and  O_22
REMARK   10  A    between atoms: C_23  and  O_24
REMARK                            x       y       z     vdW  Elec       q    Type
REMARK                         _______ _______ _______ _____ _____    ______ ____
ROOT
ATOM      1  C   UNL     1       4.620   4.397  18.987  0.00  0.00    +0.000 C 
ATOM      2  O   UNL     1       4.311   5.760  19.354  0.00  0.00    +0.000 OA
ATOM      3  C   UNL     1       2.908   5.874  19.681  0.00  0.00    +0.000 C 
ATOM      4  C   UNL     1       2.236   4.634  19.088  0.00  0.00    +0.000 C 
ATOM      5  C   UNL     1       3.341   3.597  19.246  0.00  0.00    +0.000 C 
ENDROOT
BRANCH   3   6
ATOM      6  N   UNL     1       2.386   7.138  19.213  0.00  0.00    +0.000 N 
ATOM      7  C   UNL     1       2.503   7.682  17.960  0.00  0.00    +0.000 A 
ATOM      8  N   UNL     1       1.926   8.866  17.881  0.00  0.00    +0.000 NA
ATOM      9  C   UNL     1       1.475   9.128  19.152  0.00  0.00    +0.000 A 
ATOM     10  C   UNL     1       0.837  10.246  19.718  0.00  0.00    +0.000 A 
ATOM     11  N   UNL     1       0.567  11.409  19.006  0.00  0.00    +0.000 N 
ATOM     12  N   UNL     1       0.457  10.190  21.014  0.00  0.00    +0.000 NA
ATOM     13  C   UNL     1       0.757   9.071  21.711  0.00  0.00    +0.000 A 
ATOM     14  N   UNL     1       1.394   7.957  21.296  0.00  0.00    +0.000 NA
ATOM     15  C   UNL     1       1.722   8.054  19.992  0.00  0.00    +0.000 A 
ATOM     16  H   UNL     1       0.605  11.280  17.999  0.00  0.00    +0.000 HD
ATOM     17  H   UNL     1      -0.190  11.948  19.398  0.00  0.00    +0.000 HD
ENDBRANCH   3   6
BRANCH   4  18
ATOM     18  O   UNL     1       1.060   4.211  19.782  0.00  0.00    +0.000 OA
ATOM     19  H   UNL     1       0.842   4.938  20.396  0.00  0.00    +0.000 HD
ENDBRANCH   4  18
BRANCH   5  20
ATOM     20  O   UNL     1       3.295   3.104  20.603  0.00  0.00    +0.000 OA
ATOM     21  H   UNL     1       2.814   2.254  20.609  0.00  0.00    +0.000 HD
ENDBRANCH   5  20
BRANCH   1  22
ATOM     22  C   UNL     1       5.101   4.274  17.532  0.00  0.00    +0.000 C 
BRANCH  22  24
ATOM     23  C   UNL     1       7.058   4.425  15.584  0.00  0.00    +0.000 C 
ATOM     24  S   UNL     1       6.850   4.714  17.349  0.00  0.00    +0.000 S 
BRANCH  24  25
ATOM     25  C   UNL     1       6.704   6.531  17.226  0.00  0.00    +0.000 C 
BRANCH  25  26
ATOM     26  C   UNL     1       7.800   7.247  18.008  0.00  0.00    +0.000 C 
BRANCH  26  27
ATOM     27  C   UNL     1       7.882   8.748  17.711  0.00  0.00    +0.000 C 
BRANCH  27  28
ATOM     28  N   UNL     1       8.734   9.471  18.651  0.00  0.00    +0.000 NA
ATOM     29  H   UNL     1       8.803   8.921  19.515  0.00  0.00    +0.000 HD
ATOM     30  H   UNL     1       8.290  10.347  18.916  0.00  0.00    +0.000 HD
ENDBRANCH  27  28
ENDBRANCH  26  27
ENDBRANCH  25  26
ENDBRANCH  24  25
ENDBRANCH  22  24
ENDBRANCH   1  22
TORSDOF 9
ENDMDL
MODEL 9
REMARK VINA RESULT:      -6.3      3.347      5.701
REMARK  Name = 
REMARK  10 active torsions:
REMARK  status: ('A' for Active; 'I' for Inactive)
REMARK    1  A    between atoms: C_1  and  S_2
REMARK    2  A    between atoms: S_2  and  C_3
REMARK    3  A    between atoms: S_2  and  C_7
REMARK    4  A    between atoms: C_3  and  C_4
REMARK    5  A    between atoms: C_4  and  C_5
REMARK    6  A    between atoms: C_5  and  N_6
REMARK    7  A    between atoms: C_7  and  C_8
REMARK    8  A    between atoms: C_10  and  N_11
REMARK    9  A    between atoms: C_21  and  O_22
REMARK   10  A    between atoms: C_23  and  O_24
REMARK                            x       y       z     vdW  Elec       q    Type
REMARK                         _______ _______ _______ _____ _____    ______ ____
ROOT
ATOM      1  C   UNL     1       6.792   5.808  16.644  0.00  0.00    +0.000 C 
ATOM      2  O   UNL     1       5.451   6.151  17.061  0.00  0.00    +0.000 OA
ATOM      3  C   UNL     1       5.340   6.035  18.497  0.00  0.00    +0.000 C 
ATOM      4  C   UNL     1       6.529   5.183  18.945  0.00  0.00    +0.000 C 
ATOM      5  C   UNL     1       7.590   5.606  17.934  0.00  0.00    +0.000 C 
ENDROOT
BRANCH   3   6
ATOM      6  N   UNL     1       4.041   5.512  18.858  0.00  0.00    +0.000 N 
ATOM      7  C   UNL     1       3.049   6.143  19.562  0.00  0.00    +0.000 A 
ATOM      8  N   UNL     1       1.996   5.365  19.736  0.00  0.00    +0.000 NA
ATOM      9  C   UNL     1       2.349   4.159  19.178  0.00  0.00    +0.000 A 
ATOM     10  C   UNL     1       1.685   2.923  19.101  0.00  0.00    +0.000 A 
ATOM     11  N   UNL     1       0.441   2.689  19.677  0.00  0.00    +0.000 N 
ATOM     12  N   UNL     1       2.276   1.909  18.429  0.00  0.00    +0.000 NA
ATOM     13  C   UNL     1       3.502   2.130  17.905  0.00  0.00    +0.000 A 
ATOM     14  N   UNL     1       4.253   3.250  17.945  0.00  0.00    +0.000 NA
ATOM     15  C   UNL     1       3.605   4.235  18.598  0.00  0.00    +0.000 A 
ATOM     16  H   UNL     1      -0.063   3.542  19.900  0.00  0.00    +0.000 HD
ATOM     17  H   UNL     1      -0.060   1.929  19.244  0.00  0.00    +0.000 HD
ENDBRANCH   3   6
BRANCH   4  18
ATOM     18  O   UNL     1       6.980   5.450  20.274  0.00  0.00    +0.000 OA
ATOM     19  H   UNL     1       7.547   6.242  20.205  0.00  0.00    +0.000 HD
ENDBRANCH   4  18
BRANCH   5  20
ATOM     20  O   UNL     1       8.168   6.848  18.395  0.00  0.00    +0.000 OA
ATOM     21  H   UNL     1       7.507   7.315  18.941  0.00  0.00    +0.000 HD
ENDBRANCH   5  20
BRANCH   1  22
ATOM     22  C   UNL     1       6.827   4.569  15.736  0.00  0.00    +0.000 C 
BRANCH  22  24
ATOM     23  C   UNL     1       7.807   5.161  13.220  0.00  0.00    +0.000 C 
ATOM     24  S   UNL     1       6.233   4.929  14.062  0.00  0.00    +0.000 S 
BRANCH  24  25
ATOM     25  C   UNL     1       5.947   3.229  13.459  0.00  0.00    +0.000 C 
BRANCH  25  26
ATOM     26  C   UNL     1       5.487   3.208  12.005  0.00  0.00    +0.000 C 
BRANCH  26  27
ATOM     27  C   UNL     1       5.713   1.860  11.311  0.00  0.00    +0.000 C 
BRANCH  27  28
ATOM     28  N   UNL     1       7.120   1.472  11.260  0.00  0.00    +0.000 NA
ATOM     29  H   UNL     1       7.287   0.763  11.984  0.00  0.00    +0.000 HD
ATOM     30  H   UNL     1       7.706   2.265  11.510  0.00  0.00    +0.000 HD
ENDBRANCH  27  28
ENDBRANCH  26  27
ENDBRANCH  25  26
ENDBRANCH  24  25
ENDBRANCH  22  24
ENDBRANCH   1  22
TORSDOF 9
ENDMDL
