MODEL 1
REMARK VINA RESULT:      -8.6      0.000      0.000
REMARK  Name = 
REMARK  3 active torsions:
REMARK  status: ('A' for Active; 'I' for Inactive)
REMARK    1  A    between atoms: N_3  and  N_4
REMARK    2  A    between atoms: C_5  and  C_6
REMARK    3  A    between atoms: N_20  and  C_21
REMARK                            x       y       z     vdW  Elec       q    Type
REMARK                         _______ _______ _______ _____ _____    ______ ____
ROOT
ATOM      1  O   UNL     1       7.914   6.753  16.321  0.00  0.00    +0.000 OA
ATOM      2  C   UNL     1       7.049   7.207  17.066  0.00  0.00    +0.000 C 
ATOM      3  N   UNL     1       7.231   8.310  17.891  0.00  0.00    +0.000 N 
ATOM      4  N   UNL     1       5.786   6.631  17.176  0.00  0.00    +0.000 N 
ATOM      5  C   UNL     1       5.521   5.372  16.489  0.00  0.00    +0.000 C 
ATOM      6  C   UNL     1       4.803   4.415  17.433  0.00  0.00    +0.000 C 
ATOM      7  C   UNL     1       3.690   5.082  18.203  0.00  0.00    +0.000 A 
ATOM      8  N   UNL     1       2.825   4.255  18.821  0.00  0.00    +0.000 NA
ATOM      9  C   UNL     1       1.844   4.844  19.512  0.00  0.00    +0.000 A 
ATOM     10  N   UNL     1       1.642   6.160  19.621  0.00  0.00    +0.000 NA
ATOM     11  C   UNL     1       2.507   6.976  18.995  0.00  0.00    +0.000 A 
ATOM     12  N   UNL     1       2.276   8.370  19.002  0.00  0.00    +0.000 N 
ATOM     13  C   UNL     1       3.601   6.468  18.296  0.00  0.00    +0.000 A 
ATOM     14  C   UNL     1       4.582   7.353  17.584  0.00  0.00    +0.000 C 
ATOM     15  H   UNL     1       6.752   8.281  18.780  0.00  0.00    +0.000 HD
ATOM     16  H   UNL     1       3.068   8.887  19.359  0.00  0.00    +0.000 HD
ENDROOT
BRANCH  12  17
ATOM     17  C   UNL     1       1.058   9.074  19.139  0.00  0.00    +0.000 A 
ATOM     18  C   UNL     1       0.796   9.742  20.348  0.00  0.00    +0.000 A 
ATOM     19  C   UNL     1      -0.311  10.587  20.485  0.00  0.00    +0.000 A 
ATOM     20  C   UNL     1      -1.172  10.788  19.410  0.00  0.00    +0.000 A 
ATOM     21  C   UNL     1      -0.925  10.134  18.208  0.00  0.00    +0.000 A 
ATOM     22 BR   UNL     1      -2.072  10.418  16.730  0.00  0.00    +0.000 Br
ATOM     23  C   UNL     1       0.180   9.292  18.071  0.00  0.00    +0.000 A 
ENDBRANCH  12  17
BRANCH   3  24
ATOM     24  N   UNL     1       8.413   8.990  17.861  0.00  0.00    +0.000 NA
ATOM     25  C   UNL     1       8.502   9.982  18.689  0.00  0.00    +0.000 C 
BRANCH  25  26
ATOM     26  C   UNL     1       9.732  10.788  18.793  0.00  0.00    +0.000 A 
ATOM     27  C   UNL     1      10.244  11.134  20.046  0.00  0.00    +0.000 A 
ATOM     28  C   UNL     1      11.404  11.905  20.132  0.00  0.00    +0.000 A 
ATOM     29  C   UNL     1      12.048  12.325  18.970  0.00  0.00    +0.000 A 
ATOM     30  C   UNL     1      11.535  11.979  17.716  0.00  0.00    +0.000 A 
ATOM     31  C   UNL     1      10.374  11.209  17.625  0.00  0.00    +0.000 A 
ENDBRANCH  25  26
ENDBRANCH   3  24
TORSDOF 3
ENDMDL
MODEL 2
REMARK VINA RESULT:      -8.6      0.781      1.261
REMARK  Name = 
REMARK  3 active torsions:
REMARK  status: ('A' for Active; 'I' for Inactive)
REMARK    1  A    between atoms: N_3  and  N_4
REMARK    2  A    between atoms: C_5  and  C_6
REMARK    3  A    between atoms: N_20  and  C_21
REMARK                            x       y       z     vdW  Elec       q    Type
REMARK                         _______ _______ _______ _____ _____    ______ ____
ROOT
ATOM      1  O   UNL     1       7.933   6.874  16.234  0.00  0.00    +0.000 OA
ATOM      2  C   UNL     1       7.123   7.138  17.118  0.00  0.00    +0.000 C 
ATOM      3  N   UNL     1       7.380   8.000  18.178  0.00  0.00    +0.000 N 
ATOM      4  N   UNL     1       5.854   6.568  17.159  0.00  0.00    +0.000 N 
ATOM      5  C   UNL     1       5.518   5.523  16.199  0.00  0.00    +0.000 C 
ATOM      6  C   UNL     1       4.829   4.369  16.919  0.00  0.00    +0.000 C 
ATOM      7  C   UNL     1       3.779   4.837  17.896  0.00  0.00    +0.000 A 
ATOM      8  N   UNL     1       2.927   3.893  18.342  0.00  0.00    +0.000 NA
ATOM      9  C   UNL     1       2.002   4.303  19.214  0.00  0.00    +0.000 A 
ATOM     10  N   UNL     1       1.841   5.553  19.658  0.00  0.00    +0.000 NA
ATOM     11  C   UNL     1       2.692   6.488  19.202  0.00  0.00    +0.000 A 
ATOM     12  N   UNL     1       2.498   7.839  19.567  0.00  0.00    +0.000 N 
ATOM     13  C   UNL     1       3.731   6.157  18.333  0.00  0.00    +0.000 A 
ATOM     14  C   UNL     1       4.694   7.180  17.805  0.00  0.00    +0.000 C 
ATOM     15  H   UNL     1       6.951   7.756  19.060  0.00  0.00    +0.000 HD
ATOM     16  H   UNL     1       3.322   8.242  19.993  0.00  0.00    +0.000 HD
ENDROOT
BRANCH  12  17
ATOM     17  C   UNL     1       1.308   8.502  19.947  0.00  0.00    +0.000 A 
ATOM     18  C   UNL     1       0.841   8.349  21.264  0.00  0.00    +0.000 A 
ATOM     19  C   UNL     1      -0.234   9.105  21.745  0.00  0.00    +0.000 A 
ATOM     20  C   UNL     1      -0.856  10.037  20.919  0.00  0.00    +0.000 A 
ATOM     21  C   UNL     1      -0.404  10.199  19.614  0.00  0.00    +0.000 A 
ATOM     22 BR   UNL     1      -1.223  11.479  18.488  0.00  0.00    +0.000 Br
ATOM     23  C   UNL     1       0.669   9.446  19.135  0.00  0.00    +0.000 A 
ENDBRANCH  12  17
BRANCH   3  24
ATOM     24  N   UNL     1       8.576   8.652  18.246  0.00  0.00    +0.000 NA
ATOM     25  C   UNL     1       8.505   9.910  18.545  0.00  0.00    +0.000 C 
BRANCH  25  26
ATOM     26  C   UNL     1       9.717  10.737  18.687  0.00  0.00    +0.000 A 
ATOM     27  C   UNL     1      10.363  11.241  17.555  0.00  0.00    +0.000 A 
ATOM     28  C   UNL     1      11.515  12.015  17.703  0.00  0.00    +0.000 A 
ATOM     29  C   UNL     1      12.015  12.284  18.975  0.00  0.00    +0.000 A 
ATOM     30  C   UNL     1      11.368  11.779  20.107  0.00  0.00    +0.000 A 
ATOM     31  C   UNL     1      10.216  11.003  19.965  0.00  0.00    +0.000 A 
ENDBRANCH  25  26
ENDBRANCH   3  24
TORSDOF 3
ENDMDL
MODEL 3
REMARK VINA RESULT:      -8.2      1.006      1.343
REMARK  Name = 
REMARK  3 active torsions:
REMARK  status: ('A' for Active; 'I' for Inactive)
REMARK    1  A    between atoms: N_3  and  N_4
REMARK    2  A    between atoms: C_5  and  C_6
REMARK    3  A    between atoms: N_20  and  C_21
REMARK                            x       y       z     vdW  Elec       q    Type
REMARK                         _______ _______ _______ _____ _____    ______ ____
ROOT
ATOM      1  O   UNL     1       8.018   6.836  16.359  0.00  0.00    +0.000 OA
ATOM      2  C   UNL     1       7.142   7.330  17.064  0.00  0.00    +0.000 C 
ATOM      3  N   UNL     1       7.322   8.457  17.856  0.00  0.00    +0.000 N 
ATOM      4  N   UNL     1       5.866   6.780  17.159  0.00  0.00    +0.000 N 
ATOM      5  C   UNL     1       5.597   5.504  16.508  0.00  0.00    +0.000 C 
ATOM      6  C   UNL     1       4.836   4.592  17.464  0.00  0.00    +0.000 C 
ATOM      7  C   UNL     1       3.716   5.304  18.180  0.00  0.00    +0.000 A 
ATOM      8  N   UNL     1       2.819   4.514  18.802  0.00  0.00    +0.000 NA
ATOM      9  C   UNL     1       1.831   5.144  19.445  0.00  0.00    +0.000 A 
ATOM     10  N   UNL     1       1.650   6.466  19.505  0.00  0.00    +0.000 NA
ATOM     11  C   UNL     1       2.547   7.244  18.875  0.00  0.00    +0.000 A 
ATOM     12  N   UNL     1       2.341   8.641  18.829  0.00  0.00    +0.000 N 
ATOM     13  C   UNL     1       3.649   6.694  18.223  0.00  0.00    +0.000 A 
ATOM     14  C   UNL     1       4.665   7.536  17.510  0.00  0.00    +0.000 C 
ATOM     15  H   UNL     1       6.820   8.467  18.733  0.00  0.00    +0.000 HD
ATOM     16  H   UNL     1       3.133   9.157  19.190  0.00  0.00    +0.000 HD
ENDROOT
BRANCH  12  17
ATOM     17  C   UNL     1       1.133   9.372  18.908  0.00  0.00    +0.000 A 
ATOM     18  C   UNL     1       0.249   9.336  17.816  0.00  0.00    +0.000 A 
ATOM     19  C   UNL     1      -1.029   9.901  17.898  0.00  0.00    +0.000 A 
ATOM     20  C   UNL     1      -1.450  10.505  19.079  0.00  0.00    +0.000 A 
ATOM     21  C   UNL     1      -0.585  10.548  20.168  0.00  0.00    +0.000 A 
ATOM     22 BR   UNL     1      -1.152  11.342  21.788  0.00  0.00    +0.000 Br
ATOM     23  C   UNL     1       0.689   9.982  20.087  0.00  0.00    +0.000 A 
ENDBRANCH  12  17
BRANCH   3  24
ATOM     24  N   UNL     1       8.517   9.115  17.836  0.00  0.00    +0.000 NA
ATOM     25  C   UNL     1       8.604  10.130  18.635  0.00  0.00    +0.000 C 
BRANCH  25  26
ATOM     26  C   UNL     1       9.845  10.918  18.746  0.00  0.00    +0.000 A 
ATOM     27  C   UNL     1      10.438  11.128  19.994  0.00  0.00    +0.000 A 
ATOM     28  C   UNL     1      11.608  11.883  20.087  0.00  0.00    +0.000 A 
ATOM     29  C   UNL     1      12.182  12.421  18.938  0.00  0.00    +0.000 A 
ATOM     30  C   UNL     1      11.589  12.210  17.689  0.00  0.00    +0.000 A 
ATOM     31  C   UNL     1      10.417  11.458  17.591  0.00  0.00    +0.000 A 
ENDBRANCH  25  26
ENDBRANCH   3  24
TORSDOF 3
ENDMDL
MODEL 4
REMARK VINA RESULT:      -7.8      5.033      7.732
REMARK  Name = 
REMARK  3 active torsions:
REMARK  status: ('A' for Active; 'I' for Inactive)
REMARK    1  A    between atoms: N_3  and  N_4
REMARK    2  A    between atoms: C_5  and  C_6
REMARK    3  A    between atoms: N_20  and  C_21
REMARK                            x       y       z     vdW  Elec       q    Type
REMARK                         _______ _______ _______ _____ _____    ______ ____
ROOT
ATOM      1  O   UNL     1       1.062   8.384  21.622  0.00  0.00    +0.000 OA
ATOM      2  C   UNL     1       1.445   8.063  20.500  0.00  0.00    +0.000 C 
ATOM      3  N   UNL     1       1.405   8.902  19.393  0.00  0.00    +0.000 N 
ATOM      4  N   UNL     1       1.942   6.793  20.219  0.00  0.00    +0.000 N 
ATOM      5  C   UNL     1       1.884   5.767  21.253  0.00  0.00    +0.000 C 
ATOM      6  C   UNL     1       1.362   4.465  20.654  0.00  0.00    +0.000 C 
ATOM      7  C   UNL     1       2.001   4.138  19.327  0.00  0.00    +0.000 A 
ATOM      8  N   UNL     1       1.825   2.878  18.884  0.00  0.00    +0.000 NA
ATOM      9  C   UNL     1       2.382   2.589  17.704  0.00  0.00    +0.000 A 
ATOM     10  N   UNL     1       3.104   3.424  16.951  0.00  0.00    +0.000 NA
ATOM     11  C   UNL     1       3.278   4.676  17.406  0.00  0.00    +0.000 A 
ATOM     12  N   UNL     1       4.115   5.563  16.692  0.00  0.00    +0.000 N 
ATOM     13  C   UNL     1       2.691   5.101  18.597  0.00  0.00    +0.000 A 
ATOM     14  C   UNL     1       2.871   6.491  19.131  0.00  0.00    +0.000 C 
ATOM     15  H   UNL     1       1.212   8.456  18.507  0.00  0.00    +0.000 HD
ATOM     16  H   UNL     1       3.642   6.422  16.448  0.00  0.00    +0.000 HD
ENDROOT
BRANCH  12  17
ATOM     17  C   UNL     1       5.198   5.273  15.829  0.00  0.00    +0.000 A 
ATOM     18  C   UNL     1       6.507   5.494  16.290  0.00  0.00    +0.000 A 
ATOM     19  C   UNL     1       7.618   5.075  15.549  0.00  0.00    +0.000 A 
ATOM     20  C   UNL     1       7.438   4.419  14.335  0.00  0.00    +0.000 A 
ATOM     21  C   UNL     1       6.149   4.194  13.866  0.00  0.00    +0.000 A 
ATOM     22 BR   UNL     1       5.889   3.279  12.230  0.00  0.00    +0.000 Br
ATOM     23  C   UNL     1       5.040   4.609  14.607  0.00  0.00    +0.000 A 
ENDBRANCH  12  17
BRANCH   3  24
ATOM     24  N   UNL     1       0.969  10.186  19.532  0.00  0.00    +0.000 NA
ATOM     25  C   UNL     1       1.584  11.063  18.804  0.00  0.00    +0.000 C 
BRANCH  25  26
ATOM     26  C   UNL     1       1.199  12.486  18.823  0.00  0.00    +0.000 A 
ATOM     27  C   UNL     1      -0.134  12.853  19.020  0.00  0.00    +0.000 A 
ATOM     28  C   UNL     1      -0.487  14.203  19.028  0.00  0.00    +0.000 A 
ATOM     29  C   UNL     1       0.490  15.179  18.842  0.00  0.00    +0.000 A 
ATOM     30  C   UNL     1       1.824  14.811  18.645  0.00  0.00    +0.000 A 
ATOM     31  C   UNL     1       2.182  13.461  18.634  0.00  0.00    +0.000 A 
ENDBRANCH  25  26
ENDBRANCH   3  24
TORSDOF 3
ENDMDL
MODEL 5
REMARK VINA RESULT:      -7.4      4.980      8.328
REMARK  Name = 
REMARK  3 active torsions:
REMARK  status: ('A' for Active; 'I' for Inactive)
REMARK    1  A    between atoms: N_3  and  N_4
REMARK    2  A    between atoms: C_5  and  C_6
REMARK    3  A    between atoms: N_20  and  C_21
REMARK                            x       y       z     vdW  Elec       q    Type
REMARK                         _______ _______ _______ _____ _____    ______ ____
ROOT
ATOM      1  O   UNL     1       1.119   8.053  21.906  0.00  0.00    +0.000 OA
ATOM      2  C   UNL     1       1.501   7.806  20.765  0.00  0.00    +0.000 C 
ATOM      3  N   UNL     1       1.507   8.730  19.727  0.00  0.00    +0.000 N 
ATOM      4  N   UNL     1       1.947   6.542  20.388  0.00  0.00    +0.000 N 
ATOM      5  C   UNL     1       1.836   5.441  21.338  0.00  0.00    +0.000 C 
ATOM      6  C   UNL     1       1.267   4.214  20.634  0.00  0.00    +0.000 C 
ATOM      7  C   UNL     1       1.906   3.965  19.291  0.00  0.00    +0.000 A 
ATOM      8  N   UNL     1       1.683   2.752  18.748  0.00  0.00    +0.000 NA
ATOM      9  C   UNL     1       2.240   2.533  17.553  0.00  0.00    +0.000 A 
ATOM     10  N   UNL     1       3.003   3.394  16.873  0.00  0.00    +0.000 NA
ATOM     11  C   UNL     1       3.225   4.598  17.427  0.00  0.00    +0.000 A 
ATOM     12  N   UNL     1       4.105   5.503  16.791  0.00  0.00    +0.000 N 
ATOM     13  C   UNL     1       2.643   4.953  18.643  0.00  0.00    +0.000 A 
ATOM     14  C   UNL     1       2.875   6.288  19.287  0.00  0.00    +0.000 C 
ATOM     15  H   UNL     1       1.305   8.364  18.807  0.00  0.00    +0.000 HD
ATOM     16  H   UNL     1       3.671   6.398  16.613  0.00  0.00    +0.000 HD
ENDROOT
BRANCH  12  17
ATOM     17  C   UNL     1       5.184   5.236  15.916  0.00  0.00    +0.000 A 
ATOM     18  C   UNL     1       6.495   5.450  16.376  0.00  0.00    +0.000 A 
ATOM     19  C   UNL     1       7.603   5.052  15.619  0.00  0.00    +0.000 A 
ATOM     20  C   UNL     1       7.419   4.424  14.391  0.00  0.00    +0.000 A 
ATOM     21  C   UNL     1       6.128   4.206  13.924  0.00  0.00    +0.000 A 
ATOM     22 BR   UNL     1       5.861   3.329  12.268  0.00  0.00    +0.000 Br
ATOM     23  C   UNL     1       5.022   4.601  14.680  0.00  0.00    +0.000 A 
ENDBRANCH  12  17
BRANCH   3  24
ATOM     24  N   UNL     1       1.123  10.017  19.964  0.00  0.00    +0.000 NA
ATOM     25  C   UNL     1       0.015  10.378  19.400  0.00  0.00    +0.000 C 
BRANCH  25  26
ATOM     26  C   UNL     1      -0.543  11.729  19.593  0.00  0.00    +0.000 A 
ATOM     27  C   UNL     1      -0.036  12.811  18.869  0.00  0.00    +0.000 A 
ATOM     28  C   UNL     1      -0.566  14.086  19.068  0.00  0.00    +0.000 A 
ATOM     29  C   UNL     1      -1.599  14.276  19.982  0.00  0.00    +0.000 A 
ATOM     30  C   UNL     1      -2.106  13.193  20.706  0.00  0.00    +0.000 A 
ATOM     31  C   UNL     1      -1.578  11.915  20.514  0.00  0.00    +0.000 A 
ENDBRANCH  25  26
ENDBRANCH   3  24
TORSDOF 3
ENDMDL
MODEL 6
REMARK VINA RESULT:      -7.1      4.859      7.682
REMARK  Name = 
REMARK  3 active torsions:
REMARK  status: ('A' for Active; 'I' for Inactive)
REMARK    1  A    between atoms: N_3  and  N_4
REMARK    2  A    between atoms: C_5  and  C_6
REMARK    3  A    between atoms: N_20  and  C_21
REMARK                            x       y       z     vdW  Elec       q    Type
REMARK                         _______ _______ _______ _____ _____    ______ ____
ROOT
ATOM      1  O   UNL     1       0.713   9.603  21.188  0.00  0.00    +0.000 OA
ATOM      2  C   UNL     1       1.159   9.130  20.146  0.00  0.00    +0.000 C 
ATOM      3  N   UNL     1       1.188   9.807  18.933  0.00  0.00    +0.000 N 
ATOM      4  N   UNL     1       1.666   7.835  20.074  0.00  0.00    +0.000 N 
ATOM      5  C   UNL     1       1.542   6.963  21.236  0.00  0.00    +0.000 C 
ATOM      6  C   UNL     1       1.051   5.589  20.794  0.00  0.00    +0.000 C 
ATOM      7  C   UNL     1       1.766   5.083  19.566  0.00  0.00    +0.000 A 
ATOM      8  N   UNL     1       1.610   3.772  19.293  0.00  0.00    +0.000 NA
ATOM      9  C   UNL     1       2.234   3.324  18.200  0.00  0.00    +0.000 A 
ATOM     10  N   UNL     1       3.002   4.048  17.381  0.00  0.00    +0.000 NA
ATOM     11  C   UNL     1       3.156   5.352  17.667  0.00  0.00    +0.000 A 
ATOM     12  N   UNL     1       4.037   6.134  16.886  0.00  0.00    +0.000 N 
ATOM     13  C   UNL     1       2.502   5.937  18.750  0.00  0.00    +0.000 A 
ATOM     14  C   UNL     1       2.656   7.389  19.095  0.00  0.00    +0.000 C 
ATOM     15  H   UNL     1       1.045   9.241  18.107  0.00  0.00    +0.000 HD
ATOM     16  H   UNL     1       3.583   6.950  16.498  0.00  0.00    +0.000 HD
ENDROOT
BRANCH  12  17
ATOM     17  C   UNL     1       5.167   5.731  16.138  0.00  0.00    +0.000 A 
ATOM     18  C   UNL     1       6.442   5.866  16.713  0.00  0.00    +0.000 A 
ATOM     19  C   UNL     1       7.579   5.337  16.091  0.00  0.00    +0.000 A 
ATOM     20  C   UNL     1       7.459   4.654  14.885  0.00  0.00    +0.000 A 
ATOM     21  C   UNL     1       6.204   4.512  14.304  0.00  0.00    +0.000 A 
ATOM     22 BR   UNL     1       6.021   3.564  12.677  0.00  0.00    +0.000 Br
ATOM     23  C   UNL     1       5.069   5.039  14.925  0.00  0.00    +0.000 A 
ENDBRANCH  12  17
BRANCH   3  24
ATOM     24  N   UNL     1       0.750  11.097  18.866  0.00  0.00    +0.000 NA
ATOM     25  C   UNL     1       1.679  11.998  18.868  0.00  0.00    +0.000 C 
BRANCH  25  26
ATOM     26  C   UNL     1       1.359  13.434  18.767  0.00  0.00    +0.000 A 
ATOM     27  C   UNL     1       2.379  14.373  18.595  0.00  0.00    +0.000 A 
ATOM     28  C   UNL     1       2.063  15.730  18.509  0.00  0.00    +0.000 A 
ATOM     29  C   UNL     1       0.736  16.143  18.593  0.00  0.00    +0.000 A 
ATOM     30  C   UNL     1      -0.284  15.202  18.765  0.00  0.00    +0.000 A 
ATOM     31  C   UNL     1       0.026  13.843  18.854  0.00  0.00    +0.000 A 
ENDBRANCH  25  26
ENDBRANCH   3  24
TORSDOF 3
ENDMDL
MODEL 7
REMARK VINA RESULT:      -7.0      5.449      9.041
REMARK  Name = 
REMARK  3 active torsions:
REMARK  status: ('A' for Active; 'I' for Inactive)
REMARK    1  A    between atoms: N_3  and  N_4
REMARK    2  A    between atoms: C_5  and  C_6
REMARK    3  A    between atoms: N_20  and  C_21
REMARK                            x       y       z     vdW  Elec       q    Type
REMARK                         _______ _______ _______ _____ _____    ______ ____
ROOT
ATOM      1  O   UNL     1      -0.748   8.538  21.726  0.00  0.00    +0.000 OA
ATOM      2  C   UNL     1       0.039   9.439  21.447  0.00  0.00    +0.000 C 
ATOM      3  N   UNL     1       1.354   9.229  21.047  0.00  0.00    +0.000 N 
ATOM      4  N   UNL     1      -0.309  10.784  21.531  0.00  0.00    +0.000 N 
ATOM      5  C   UNL     1      -1.604  11.144  22.096  0.00  0.00    +0.000 C 
ATOM      6  C   UNL     1      -1.430  12.288  23.089  0.00  0.00    +0.000 C 
ATOM      7  C   UNL     1      -0.525  13.377  22.568  0.00  0.00    +0.000 A 
ATOM      8  N   UNL     1      -0.559  14.543  23.243  0.00  0.00    +0.000 NA
ATOM      9  C   UNL     1       0.249  15.506  22.790  0.00  0.00    +0.000 A 
ATOM     10  N   UNL     1       1.058  15.417  21.730  0.00  0.00    +0.000 NA
ATOM     11  C   UNL     1       1.079  14.252  21.061  0.00  0.00    +0.000 A 
ATOM     12  N   UNL     1       1.844  14.146  19.877  0.00  0.00    +0.000 N 
ATOM     13  C   UNL     1       0.320  13.162  21.483  0.00  0.00    +0.000 A 
ATOM     14  C   UNL     1       0.320  11.851  20.755  0.00  0.00    +0.000 C 
ATOM     15  H   UNL     1       2.025   9.918  21.355  0.00  0.00    +0.000 HD
ATOM     16  H   UNL     1       2.501  13.379  19.915  0.00  0.00    +0.000 HD
ENDROOT
BRANCH  12  17
ATOM     17  C   UNL     1       2.240  15.159  18.973  0.00  0.00    +0.000 A 
ATOM     18  C   UNL     1       3.396  14.960  18.199  0.00  0.00    +0.000 A 
ATOM     19  C   UNL     1       3.746  15.847  17.175  0.00  0.00    +0.000 A 
ATOM     20  C   UNL     1       2.938  16.946  16.899  0.00  0.00    +0.000 A 
ATOM     21  C   UNL     1       1.791  17.156  17.656  0.00  0.00    +0.000 A 
ATOM     22 BR   UNL     1       0.669  18.631  17.276  0.00  0.00    +0.000 Br
ATOM     23  C   UNL     1       1.441  16.269  18.677  0.00  0.00    +0.000 A 
ENDBRANCH  12  17
BRANCH   3  24
ATOM     24  N   UNL     1       1.820   7.956  20.892  0.00  0.00    +0.000 NA
ATOM     25  C   UNL     1       1.953   7.560  19.667  0.00  0.00    +0.000 C 
BRANCH  25  26
ATOM     26  C   UNL     1       2.477   6.220  19.344  0.00  0.00    +0.000 A 
ATOM     27  C   UNL     1       3.233   6.019  18.186  0.00  0.00    +0.000 A 
ATOM     28  C   UNL     1       3.716   4.744  17.887  0.00  0.00    +0.000 A 
ATOM     29  C   UNL     1       3.447   3.679  18.743  0.00  0.00    +0.000 A 
ATOM     30  C   UNL     1       2.691   3.881  19.902  0.00  0.00    +0.000 A 
ATOM     31  C   UNL     1       2.203   5.154  20.205  0.00  0.00    +0.000 A 
ENDBRANCH  25  26
ENDBRANCH   3  24
TORSDOF 3
ENDMDL
MODEL 8
REMARK VINA RESULT:      -7.0      5.112      8.885
REMARK  Name = 
REMARK  3 active torsions:
REMARK  status: ('A' for Active; 'I' for Inactive)
REMARK    1  A    between atoms: N_3  and  N_4
REMARK    2  A    between atoms: C_5  and  C_6
REMARK    3  A    between atoms: N_20  and  C_21
REMARK                            x       y       z     vdW  Elec       q    Type
REMARK                         _______ _______ _______ _____ _____    ______ ____
ROOT
ATOM      1  O   UNL     1      -0.640   9.508  17.459  0.00  0.00    +0.000 OA
ATOM      2  C   UNL     1       0.229  10.058  18.130  0.00  0.00    +0.000 C 
ATOM      3  N   UNL     1       1.493   9.526  18.354  0.00  0.00    +0.000 N 
ATOM      4  N   UNL     1       0.018  11.280  18.763  0.00  0.00    +0.000 N 
ATOM      5  C   UNL     1      -1.318  11.864  18.744  0.00  0.00    +0.000 C 
ATOM      6  C   UNL     1      -1.681  12.356  20.141  0.00  0.00    +0.000 C 
ATOM      7  C   UNL     1      -0.556  13.112  20.802  0.00  0.00    +0.000 A 
ATOM      8  N   UNL     1      -0.891  13.829  21.893  0.00  0.00    +0.000 NA
ATOM      9  C   UNL     1       0.106  14.492  22.487  0.00  0.00    +0.000 A 
ATOM     10  N   UNL     1       1.380  14.519  22.084  0.00  0.00    +0.000 NA
ATOM     11  C   UNL     1       1.701  13.806  20.992  0.00  0.00    +0.000 A 
ATOM     12  N   UNL     1       3.014  13.884  20.474  0.00  0.00    +0.000 N 
ATOM     13  C   UNL     1       0.751  13.030  20.330  0.00  0.00    +0.000 A 
ATOM     14  C   UNL     1       1.079  12.226  19.106  0.00  0.00    +0.000 C 
ATOM     15  H   UNL     1       1.898   9.715  19.261  0.00  0.00    +0.000 HD
ATOM     16  H   UNL     1       3.445  12.973  20.387  0.00  0.00    +0.000 HD
ENDROOT
BRANCH  12  17
ATOM     17  C   UNL     1       3.961  14.927  20.589  0.00  0.00    +0.000 A 
ATOM     18  C   UNL     1       3.764  16.103  19.845  0.00  0.00    +0.000 A 
ATOM     19  C   UNL     1       4.573  17.229  20.040  0.00  0.00    +0.000 A 
ATOM     20  C   UNL     1       5.590  17.201  20.990  0.00  0.00    +0.000 A 
ATOM     21  C   UNL     1       5.796  16.044  21.733  0.00  0.00    +0.000 A 
ATOM     22 BR   UNL     1       7.157  15.999  23.047  0.00  0.00    +0.000 Br
ATOM     23  C   UNL     1       4.987  14.922  21.541  0.00  0.00    +0.000 A 
ENDBRANCH  12  17
BRANCH   3  24
ATOM     24  N   UNL     1       1.846   8.347  17.767  0.00  0.00    +0.000 NA
ATOM     25  C   UNL     1       2.568   7.558  18.497  0.00  0.00    +0.000 C 
BRANCH  25  26
ATOM     26  C   UNL     1       2.996   6.235  18.009  0.00  0.00    +0.000 A 
ATOM     27  C   UNL     1       4.275   6.062  17.473  0.00  0.00    +0.000 A 
ATOM     28  C   UNL     1       4.666   4.806  17.006  0.00  0.00    +0.000 A 
ATOM     29  C   UNL     1       3.783   3.731  17.077  0.00  0.00    +0.000 A 
ATOM     30  C   UNL     1       2.504   3.905  17.614  0.00  0.00    +0.000 A 
ATOM     31  C   UNL     1       2.107   5.159  18.081  0.00  0.00    +0.000 A 
ENDBRANCH  25  26
ENDBRANCH   3  24
TORSDOF 3
ENDMDL
MODEL 9
REMARK VINA RESULT:      -7.0      4.450      6.626
REMARK  Name = 
REMARK  3 active torsions:
REMARK  status: ('A' for Active; 'I' for Inactive)
REMARK    1  A    between atoms: N_3  and  N_4
REMARK    2  A    between atoms: C_5  and  C_6
REMARK    3  A    between atoms: N_20  and  C_21
REMARK                            x       y       z     vdW  Elec       q    Type
REMARK                         _______ _______ _______ _____ _____    ______ ____
ROOT
ATOM      1  O   UNL     1       2.851   6.352  20.366  0.00  0.00    +0.000 OA
ATOM      2  C   UNL     1       2.255   7.220  19.734  0.00  0.00    +0.000 C 
ATOM      3  N   UNL     1       2.370   7.402  18.361  0.00  0.00    +0.000 N 
ATOM      4  N   UNL     1       1.412   8.142  20.349  0.00  0.00    +0.000 N 
ATOM      5  C   UNL     1       1.334   8.165  21.805  0.00  0.00    +0.000 C 
ATOM      6  C   UNL     1       1.415   9.605  22.299  0.00  0.00    +0.000 C 
ATOM      7  C   UNL     1       0.546  10.544  21.499  0.00  0.00    +0.000 A 
ATOM      8  N   UNL     1       0.328  11.755  22.049  0.00  0.00    +0.000 NA
ATOM      9  C   UNL     1      -0.433  12.592  21.338  0.00  0.00    +0.000 A 
ATOM     10  N   UNL     1      -1.002  12.326  20.158  0.00  0.00    +0.000 NA
ATOM     11  C   UNL     1      -0.784  11.113  19.623  0.00  0.00    +0.000 A 
ATOM     12  N   UNL     1      -1.445  10.753  18.427  0.00  0.00    +0.000 N 
ATOM     13  C   UNL     1       0.043  10.184  20.252  0.00  0.00    +0.000 A 
ATOM     14  C   UNL     1       0.304   8.821  19.681  0.00  0.00    +0.000 C 
ATOM     15  H   UNL     1       2.324   8.357  18.035  0.00  0.00    +0.000 HD
ATOM     16  H   UNL     1      -0.799  10.460  17.707  0.00  0.00    +0.000 HD
ENDROOT
BRANCH  12  17
ATOM     17  C   UNL     1      -2.667  11.231  17.901  0.00  0.00    +0.000 A 
ATOM     18  C   UNL     1      -2.927  11.057  16.531  0.00  0.00    +0.000 A 
ATOM     19  C   UNL     1      -4.180  11.360  15.986  0.00  0.00    +0.000 A 
ATOM     20  C   UNL     1      -5.201  11.833  16.805  0.00  0.00    +0.000 A 
ATOM     21  C   UNL     1      -4.958  12.010  18.163  0.00  0.00    +0.000 A 
ATOM     22 BR   UNL     1      -6.343  12.629  19.293  0.00  0.00    +0.000 Br
ATOM     23  C   UNL     1      -3.708  11.707  18.707  0.00  0.00    +0.000 A 
ENDBRANCH  12  17
BRANCH   3  24
ATOM     24  N   UNL     1       3.141   6.549  17.627  0.00  0.00    +0.000 NA
ATOM     25  C   UNL     1       4.382   6.895  17.497  0.00  0.00    +0.000 C 
BRANCH  25  26
ATOM     26  C   UNL     1       5.342   6.055  16.759  0.00  0.00    +0.000 A 
ATOM     27  C   UNL     1       5.231   5.908  15.374  0.00  0.00    +0.000 A 
ATOM     28  C   UNL     1       6.141   5.103  14.688  0.00  0.00    +0.000 A 
ATOM     29  C   UNL     1       7.157   4.452  15.384  0.00  0.00    +0.000 A 
ATOM     30  C   UNL     1       7.268   4.599  16.770  0.00  0.00    +0.000 A 
ATOM     31  C   UNL     1       6.359   5.402  17.462  0.00  0.00    +0.000 A 
ENDBRANCH  25  26
ENDBRANCH   3  24
TORSDOF 3
ENDMDL
