MODEL 1
REMARK VINA RESULT:      -9.5      0.000      0.000
REMARK  Name = 
REMARK  6 active torsions:
REMARK  status: ('A' for Active; 'I' for Inactive)
REMARK    1  A    between atoms: C_6  and  N_7
REMARK    2  A    between atoms: C_12  and  O_13
REMARK    3  A    between atoms: C_15  and  C_16
REMARK    4  A    between atoms: N_18  and  C_19
REMARK    5  A    between atoms: C_23  and  O_24
REMARK    6  A    between atoms: O_24  and  C_25
REMARK                            x       y       z     vdW  Elec       q    Type
REMARK                         _______ _______ _______ _____ _____    ______ ____
ROOT
ATOM      1  N   UNL     1       1.084   6.849  20.385  0.00  0.00    +0.000 N 
ATOM      2  C   UNL     1       2.184   6.156  19.938  0.00  0.00    +0.000 C 
ATOM      3  O   UNL     1       3.205   6.685  19.503  0.00  0.00    +0.000 OA
ATOM      4  N   UNL     1       2.102   4.778  19.981  0.00  0.00    +0.000 N 
ATOM      5  C   UNL     1       1.092   3.932  20.608  0.00  0.00    +0.000 C 
ATOM      6  C   UNL     1       1.864   2.680  21.029  0.00  0.00    +0.000 C 
ATOM      7  C   UNL     1       2.962   2.559  19.984  0.00  0.00    +0.000 C 
ATOM      8  C   UNL     1       3.322   4.014  19.677  0.00  0.00    +0.000 C 
ATOM      9  H   UNL     1       0.405   6.384  20.966  0.00  0.00    +0.000 HD
ENDROOT
BRANCH   1  15
ATOM     10  N   UNL     1       2.489  11.235  17.905  0.00  0.00    +0.000 N 
ATOM     11  C   UNL     1       1.329  11.417  18.608  0.00  0.00    +0.000 C 
ATOM     12  O   UNL     1       0.633  12.418  18.577  0.00  0.00    +0.000 OA
ATOM     13  N   UNL     1       1.045  10.332  19.461  0.00  0.00    +0.000 N 
ATOM     14  C   UNL     1       1.379   9.009  19.235  0.00  0.00    +0.000 A 
ATOM     15  C   UNL     1       0.952   8.232  20.278  0.00  0.00    +0.000 A 
ATOM     16  C   UNL     1       0.333   9.107  21.223  0.00  0.00    +0.000 A 
ATOM     17  C   UNL     1      -0.245   8.924  22.498  0.00  0.00    +0.000 A 
ATOM     18  C   UNL     1      -0.714  10.032  23.215  0.00  0.00    +0.000 A 
ATOM     19  C   UNL     1      -0.630  11.311  22.675  0.00  0.00    +0.000 A 
ATOM     20  C   UNL     1      -0.088  11.516  21.407  0.00  0.00    +0.000 A 
ATOM     21  C   UNL     1       0.392  10.402  20.694  0.00  0.00    +0.000 A 
ATOM     22  H   UNL     1       2.831  12.033  17.387  0.00  0.00    +0.000 HD
ATOM     23  H   UNL     1       3.177  10.549  18.194  0.00  0.00    +0.000 HD
ENDBRANCH   1  15
BRANCH   8  24
ATOM     24  C   UNL     1       3.812   4.144  18.225  0.00  0.00    +0.000 C 
ATOM     25  O   UNL     1       3.000   4.034  17.308  0.00  0.00    +0.000 OA
ATOM     26  N   UNL     1       5.139   4.542  18.102  0.00  0.00    +0.000 N 
ATOM     27  H   UNL     1       5.686   4.533  18.954  0.00  0.00    +0.000 HD
BRANCH  26  28
ATOM     28  C   UNL     1       5.845   4.719  16.889  0.00  0.00    +0.000 A 
ATOM     29  C   UNL     1       6.527   5.899  16.578  0.00  0.00    +0.000 A 
ATOM     30  C   UNL     1       7.092   6.085  15.319  0.00  0.00    +0.000 A 
ATOM     31  C   UNL     1       7.007   5.077  14.369  0.00  0.00    +0.000 A 
ATOM     32  C   UNL     1       6.402   3.857  14.681  0.00  0.00    +0.000 A 
ATOM     33  C   UNL     1       5.812   3.681  15.939  0.00  0.00    +0.000 A 
BRANCH  32  34
ATOM     34  O   UNL     1       6.366   2.980  13.641  0.00  0.00    +0.000 OA
BRANCH  34  35
ATOM     35  C   UNL     1       5.766   3.357  12.414  0.00  0.00    +0.000 C 
ATOM     36  F   UNL     1       6.544   4.137  11.634  0.00  0.00    +0.000 F 
ATOM     37  F   UNL     1       5.434   2.246  11.722  0.00  0.00    +0.000 F 
ATOM     38  F   UNL     1       4.630   4.039  12.684  0.00  0.00    +0.000 F 
ENDBRANCH  34  35
ENDBRANCH  32  34
ENDBRANCH  26  28
ENDBRANCH   8  24
BRANCH   6  39
ATOM     39  O   UNL     1       2.436   2.854  22.324  0.00  0.00    +0.000 OA
ATOM     40  H   UNL     1       1.950   2.302  22.961  0.00  0.00    +0.000 HD
ENDBRANCH   6  39
TORSDOF 6
ENDMDL
MODEL 2
REMARK VINA RESULT:      -9.4      5.248      9.561
REMARK  Name = 
REMARK  6 active torsions:
REMARK  status: ('A' for Active; 'I' for Inactive)
REMARK    1  A    between atoms: C_6  and  N_7
REMARK    2  A    between atoms: C_12  and  O_13
REMARK    3  A    between atoms: C_15  and  C_16
REMARK    4  A    between atoms: N_18  and  C_19
REMARK    5  A    between atoms: C_23  and  O_24
REMARK    6  A    between atoms: O_24  and  C_25
REMARK                            x       y       z     vdW  Elec       q    Type
REMARK                         _______ _______ _______ _____ _____    ______ ____
ROOT
ATOM      1  N   UNL     1       2.259   7.361  20.007  0.00  0.00    +0.000 N 
ATOM      2  C   UNL     1       1.394   8.393  19.727  0.00  0.00    +0.000 C 
ATOM      3  O   UNL     1       0.927   8.622  18.613  0.00  0.00    +0.000 OA
ATOM      4  N   UNL     1       1.056   9.216  20.784  0.00  0.00    +0.000 N 
ATOM      5  C   UNL     1       1.329   9.049  22.208  0.00  0.00    +0.000 C 
ATOM      6  C   UNL     1       0.137   9.720  22.896  0.00  0.00    +0.000 C 
ATOM      7  C   UNL     1      -0.265  10.828  21.934  0.00  0.00    +0.000 C 
ATOM      8  C   UNL     1       0.002  10.216  20.557  0.00  0.00    +0.000 C 
ATOM      9  H   UNL     1       2.391   7.067  20.961  0.00  0.00    +0.000 HD
ENDROOT
BRANCH   1  15
ATOM     10  N   UNL     1       5.156   6.968  15.669  0.00  0.00    +0.000 N 
ATOM     11  C   UNL     1       5.044   5.758  16.298  0.00  0.00    +0.000 C 
ATOM     12  O   UNL     1       5.632   4.738  15.979  0.00  0.00    +0.000 OA
ATOM     13  N   UNL     1       4.093   5.781  17.337  0.00  0.00    +0.000 N 
ATOM     14  C   UNL     1       3.777   6.871  18.128  0.00  0.00    +0.000 A 
ATOM     15  C   UNL     1       2.805   6.531  19.030  0.00  0.00    +0.000 A 
ATOM     16  C   UNL     1       2.473   5.163  18.789  0.00  0.00    +0.000 A 
ATOM     17  C   UNL     1       1.530   4.269  19.341  0.00  0.00    +0.000 A 
ATOM     18  C   UNL     1       1.407   2.976  18.817  0.00  0.00    +0.000 A 
ATOM     19  C   UNL     1       2.218   2.558  17.768  0.00  0.00    +0.000 A 
ATOM     20  C   UNL     1       3.176   3.411  17.223  0.00  0.00    +0.000 A 
ATOM     21  C   UNL     1       3.289   4.714  17.743  0.00  0.00    +0.000 A 
ATOM     22  H   UNL     1       5.708   6.986  14.822  0.00  0.00    +0.000 HD
ATOM     23  H   UNL     1       4.436   7.676  15.761  0.00  0.00    +0.000 HD
ENDBRANCH   1  15
BRANCH   8  24
ATOM     24  C   UNL     1       0.373  11.318  19.551  0.00  0.00    +0.000 C 
ATOM     25  O   UNL     1      -0.186  11.341  18.456  0.00  0.00    +0.000 OA
ATOM     26  N   UNL     1       1.217  12.300  20.061  0.00  0.00    +0.000 N 
ATOM     27  H   UNL     1       1.634  12.101  20.961  0.00  0.00    +0.000 HD
BRANCH  26  28
ATOM     28  C   UNL     1       1.725  13.411  19.348  0.00  0.00    +0.000 A 
ATOM     29  C   UNL     1       2.874  13.337  18.555  0.00  0.00    +0.000 A 
ATOM     30  C   UNL     1       3.420  14.482  17.982  0.00  0.00    +0.000 A 
ATOM     31  C   UNL     1       2.801  15.710  18.172  0.00  0.00    +0.000 A 
ATOM     32  C   UNL     1       1.607  15.799  18.892  0.00  0.00    +0.000 A 
ATOM     33  C   UNL     1       1.074  14.650  19.489  0.00  0.00    +0.000 A 
BRANCH  32  34
ATOM     34  O   UNL     1       1.137  17.070  19.020  0.00  0.00    +0.000 OA
BRANCH  34  35
ATOM     35  C   UNL     1       0.249  17.600  18.053  0.00  0.00    +0.000 C 
ATOM     36  F   UNL     1       0.855  18.067  16.942  0.00  0.00    +0.000 F 
ATOM     37  F   UNL     1      -0.639  16.648  17.695  0.00  0.00    +0.000 F 
ATOM     38  F   UNL     1      -0.436  18.622  18.615  0.00  0.00    +0.000 F 
ENDBRANCH  34  35
ENDBRANCH  32  34
ENDBRANCH  26  28
ENDBRANCH   8  24
BRANCH   6  39
ATOM     39  O   UNL     1      -0.936   8.794  23.053  0.00  0.00    +0.000 OA
ATOM     40  H   UNL     1      -0.639   7.913  22.765  0.00  0.00    +0.000 HD
ENDBRANCH   6  39
TORSDOF 6
ENDMDL
MODEL 3
REMARK VINA RESULT:      -9.1      0.860      1.062
REMARK  Name = 
REMARK  6 active torsions:
REMARK  status: ('A' for Active; 'I' for Inactive)
REMARK    1  A    between atoms: C_6  and  N_7
REMARK    2  A    between atoms: C_12  and  O_13
REMARK    3  A    between atoms: C_15  and  C_16
REMARK    4  A    between atoms: N_18  and  C_19
REMARK    5  A    between atoms: C_23  and  O_24
REMARK    6  A    between atoms: O_24  and  C_25
REMARK                            x       y       z     vdW  Elec       q    Type
REMARK                         _______ _______ _______ _____ _____    ______ ____
ROOT
ATOM      1  N   UNL     1       0.995   6.836  20.151  0.00  0.00    +0.000 N 
ATOM      2  C   UNL     1       2.199   6.173  20.168  0.00  0.00    +0.000 C 
ATOM      3  O   UNL     1       3.293   6.726  20.270  0.00  0.00    +0.000 OA
ATOM      4  N   UNL     1       2.146   4.798  20.048  0.00  0.00    +0.000 N 
ATOM      5  C   UNL     1       0.988   3.911  20.094  0.00  0.00    +0.000 C 
ATOM      6  C   UNL     1       1.536   2.615  20.695  0.00  0.00    +0.000 C 
ATOM      7  C   UNL     1       2.982   2.577  20.227  0.00  0.00    +0.000 C 
ATOM      8  C   UNL     1       3.397   4.049  20.238  0.00  0.00    +0.000 C 
ATOM      9  H   UNL     1       0.145   6.329  20.334  0.00  0.00    +0.000 HD
ENDROOT
BRANCH   1  15
ATOM     10  N   UNL     1       2.416  11.327  17.877  0.00  0.00    +0.000 N 
ATOM     11  C   UNL     1       1.275  11.489  18.615  0.00  0.00    +0.000 C 
ATOM     12  O   UNL     1       0.595  12.501  18.654  0.00  0.00    +0.000 OA
ATOM     13  N   UNL     1       0.993  10.364  19.416  0.00  0.00    +0.000 N 
ATOM     14  C   UNL     1       1.300   9.050  19.112  0.00  0.00    +0.000 A 
ATOM     15  C   UNL     1       0.884   8.225  20.122  0.00  0.00    +0.000 A 
ATOM     16  C   UNL     1       0.301   9.057  21.126  0.00  0.00    +0.000 A 
ATOM     17  C   UNL     1      -0.252   8.814  22.403  0.00  0.00    +0.000 A 
ATOM     18  C   UNL     1      -0.686   9.890  23.189  0.00  0.00    +0.000 A 
ATOM     19  C   UNL     1      -0.593  11.194  22.716  0.00  0.00    +0.000 A 
ATOM     20  C   UNL     1      -0.077  11.459  21.448  0.00  0.00    +0.000 A 
ATOM     21  C   UNL     1       0.369  10.378  20.665  0.00  0.00    +0.000 A 
ATOM     22  H   UNL     1       2.759  12.147  17.394  0.00  0.00    +0.000 HD
ATOM     23  H   UNL     1       3.099  10.617  18.113  0.00  0.00    +0.000 HD
ENDBRANCH   1  15
BRANCH   8  24
ATOM     24  C   UNL     1       4.466   4.307  19.162  0.00  0.00    +0.000 C 
ATOM     25  O   UNL     1       5.643   4.056  19.416  0.00  0.00    +0.000 OA
ATOM     26  N   UNL     1       3.952   4.662  17.918  0.00  0.00    +0.000 N 
ATOM     27  H   UNL     1       2.965   4.884  17.893  0.00  0.00    +0.000 HD
BRANCH  26  28
ATOM     28  C   UNL     1       4.710   4.971  16.764  0.00  0.00    +0.000 A 
ATOM     29  C   UNL     1       4.973   6.284  16.365  0.00  0.00    +0.000 A 
ATOM     30  C   UNL     1       5.603   6.548  15.151  0.00  0.00    +0.000 A 
ATOM     31  C   UNL     1       6.004   5.495  14.340  0.00  0.00    +0.000 A 
ATOM     32  C   UNL     1       5.826   4.173  14.753  0.00  0.00    +0.000 A 
ATOM     33  C   UNL     1       5.169   3.910  15.962  0.00  0.00    +0.000 A 
BRANCH  32  34
ATOM     34  O   UNL     1       6.239   3.252  13.841  0.00  0.00    +0.000 OA
BRANCH  34  35
ATOM     35  C   UNL     1       5.716   3.272  12.524  0.00  0.00    +0.000 C 
ATOM     36  F   UNL     1       5.625   2.056  11.946  0.00  0.00    +0.000 F 
ATOM     37  F   UNL     1       4.489   3.836  12.542  0.00  0.00    +0.000 F 
ATOM     38  F   UNL     1       6.520   4.041  11.755  0.00  0.00    +0.000 F 
ENDBRANCH  34  35
ENDBRANCH  32  34
ENDBRANCH  26  28
ENDBRANCH   8  24
BRANCH   6  39
ATOM     39  O   UNL     1       1.483   2.661  22.120  0.00  0.00    +0.000 OA
ATOM     40  H   UNL     1       2.187   3.252  22.443  0.00  0.00    +0.000 HD
ENDBRANCH   6  39
TORSDOF 6
ENDMDL
MODEL 4
REMARK VINA RESULT:      -9.1      4.592      8.852
REMARK  Name = 
REMARK  6 active torsions:
REMARK  status: ('A' for Active; 'I' for Inactive)
REMARK    1  A    between atoms: C_6  and  N_7
REMARK    2  A    between atoms: C_12  and  O_13
REMARK    3  A    between atoms: C_15  and  C_16
REMARK    4  A    between atoms: N_18  and  C_19
REMARK    5  A    between atoms: C_23  and  O_24
REMARK    6  A    between atoms: O_24  and  C_25
REMARK                            x       y       z     vdW  Elec       q    Type
REMARK                         _______ _______ _______ _____ _____    ______ ____
ROOT
ATOM      1  N   UNL     1       2.246   7.372  20.043  0.00  0.00    +0.000 N 
ATOM      2  C   UNL     1       1.424   8.441  19.775  0.00  0.00    +0.000 C 
ATOM      3  O   UNL     1       1.000   8.724  18.656  0.00  0.00    +0.000 OA
ATOM      4  N   UNL     1       1.080   9.238  20.850  0.00  0.00    +0.000 N 
ATOM      5  C   UNL     1       1.303   9.012  22.275  0.00  0.00    +0.000 C 
ATOM      6  C   UNL     1       0.114   9.699  22.950  0.00  0.00    +0.000 C 
ATOM      7  C   UNL     1      -0.221  10.852  22.018  0.00  0.00    +0.000 C 
ATOM      8  C   UNL     1       0.068  10.280  20.628  0.00  0.00    +0.000 C 
ATOM      9  H   UNL     1       2.338   7.040  20.990  0.00  0.00    +0.000 HD
ENDROOT
BRANCH   1  15
ATOM     10  N   UNL     1       5.126   7.055  15.689  0.00  0.00    +0.000 N 
ATOM     11  C   UNL     1       5.028   5.836  16.303  0.00  0.00    +0.000 C 
ATOM     12  O   UNL     1       5.623   4.825  15.969  0.00  0.00    +0.000 OA
ATOM     13  N   UNL     1       4.081   5.839  17.347  0.00  0.00    +0.000 N 
ATOM     14  C   UNL     1       3.759   6.917  18.152  0.00  0.00    +0.000 A 
ATOM     15  C   UNL     1       2.794   6.558  19.055  0.00  0.00    +0.000 A 
ATOM     16  C   UNL     1       2.473   5.190  18.798  0.00  0.00    +0.000 A 
ATOM     17  C   UNL     1       1.539   4.282  19.344  0.00  0.00    +0.000 A 
ATOM     18  C   UNL     1       1.425   2.993  18.805  0.00  0.00    +0.000 A 
ATOM     19  C   UNL     1       2.235   2.595  17.747  0.00  0.00    +0.000 A 
ATOM     20  C   UNL     1       3.183   3.463  17.208  0.00  0.00    +0.000 A 
ATOM     21  C   UNL     1       3.288   4.760  17.744  0.00  0.00    +0.000 A 
ATOM     22  H   UNL     1       5.674   7.087  14.839  0.00  0.00    +0.000 HD
ATOM     23  H   UNL     1       4.401   7.755  15.792  0.00  0.00    +0.000 HD
ENDBRANCH   1  15
BRANCH   8  24
ATOM     24  C   UNL     1       0.506  11.404  19.673  0.00  0.00    +0.000 C 
ATOM     25  O   UNL     1       0.080  11.408  18.520  0.00  0.00    +0.000 OA
ATOM     26  N   UNL     1       1.239  12.418  20.281  0.00  0.00    +0.000 N 
ATOM     27  H   UNL     1       1.555  12.233  21.224  0.00  0.00    +0.000 HD
BRANCH  26  28
ATOM     28  C   UNL     1       1.778  13.555  19.634  0.00  0.00    +0.000 A 
ATOM     29  C   UNL     1       1.052  14.735  19.451  0.00  0.00    +0.000 A 
ATOM     30  C   UNL     1       1.569  15.780  18.690  0.00  0.00    +0.000 A 
ATOM     31  C   UNL     1       2.835  15.666  18.132  0.00  0.00    +0.000 A 
ATOM     32  C   UNL     1       3.614  14.531  18.367  0.00  0.00    +0.000 A 
ATOM     33  C   UNL     1       3.082  13.470  19.111  0.00  0.00    +0.000 A 
BRANCH  32  34
ATOM     34  O   UNL     1       4.816  14.548  17.729  0.00  0.00    +0.000 OA
BRANCH  34  35
ATOM     35  C   UNL     1       5.981  14.967  18.418  0.00  0.00    +0.000 C 
ATOM     36  F   UNL     1       5.948  14.744  19.748  0.00  0.00    +0.000 F 
ATOM     37  F   UNL     1       7.056  14.336  17.899  0.00  0.00    +0.000 F 
ATOM     38  F   UNL     1       6.139  16.296  18.222  0.00  0.00    +0.000 F 
ENDBRANCH  34  35
ENDBRANCH  32  34
ENDBRANCH  26  28
ENDBRANCH   8  24
BRANCH   6  39
ATOM     39  O   UNL     1      -0.994   8.805  23.042  0.00  0.00    +0.000 OA
ATOM     40  H   UNL     1      -1.799   9.319  23.235  0.00  0.00    +0.000 HD
ENDBRANCH   6  39
TORSDOF 6
ENDMDL
MODEL 5
REMARK VINA RESULT:      -8.8      1.470      2.512
REMARK  Name = 
REMARK  6 active torsions:
REMARK  status: ('A' for Active; 'I' for Inactive)
REMARK    1  A    between atoms: C_6  and  N_7
REMARK    2  A    between atoms: C_12  and  O_13
REMARK    3  A    between atoms: C_15  and  C_16
REMARK    4  A    between atoms: N_18  and  C_19
REMARK    5  A    between atoms: C_23  and  O_24
REMARK    6  A    between atoms: O_24  and  C_25
REMARK                            x       y       z     vdW  Elec       q    Type
REMARK                         _______ _______ _______ _____ _____    ______ ____
ROOT
ATOM      1  N   UNL     1       0.826   6.694  20.567  0.00  0.00    +0.000 N 
ATOM      2  C   UNL     1       2.039   6.050  20.514  0.00  0.00    +0.000 C 
ATOM      3  O   UNL     1       3.125   6.607  20.659  0.00  0.00    +0.000 OA
ATOM      4  N   UNL     1       2.005   4.690  20.270  0.00  0.00    +0.000 N 
ATOM      5  C   UNL     1       0.859   3.786  20.243  0.00  0.00    +0.000 C 
ATOM      6  C   UNL     1       1.431   2.449  20.719  0.00  0.00    +0.000 C 
ATOM      7  C   UNL     1       2.873   2.475  20.239  0.00  0.00    +0.000 C 
ATOM      8  C   UNL     1       3.268   3.946  20.382  0.00  0.00    +0.000 C 
ATOM      9  H   UNL     1      -0.016   6.159  20.708  0.00  0.00    +0.000 HD
ENDROOT
BRANCH   1  15
ATOM     10  N   UNL     1      -1.422  10.748  22.990  0.00  0.00    +0.000 N 
ATOM     11  C   UNL     1      -0.304  11.142  22.305  0.00  0.00    +0.000 C 
ATOM     12  O   UNL     1       0.191  12.256  22.341  0.00  0.00    +0.000 OA
ATOM     13  N   UNL     1       0.193  10.126  21.465  0.00  0.00    +0.000 N 
ATOM     14  C   UNL     1       0.109   8.765  21.695  0.00  0.00    +0.000 A 
ATOM     15  C   UNL     1       0.694   8.077  20.665  0.00  0.00    +0.000 A 
ATOM     16  C   UNL     1       1.155   9.049  19.725  0.00  0.00    +0.000 A 
ATOM     17  C   UNL     1       1.780   8.972  18.461  0.00  0.00    +0.000 A 
ATOM     18  C   UNL     1       2.046  10.146  17.744  0.00  0.00    +0.000 A 
ATOM     19  C   UNL     1       1.713  11.388  18.273  0.00  0.00    +0.000 A 
ATOM     20  C   UNL     1       1.120  11.493  19.531  0.00  0.00    +0.000 A 
ATOM     21  C   UNL     1       0.844  10.312  20.243  0.00  0.00    +0.000 A 
ATOM     22  H   UNL     1      -1.917  11.470  23.496  0.00  0.00    +0.000 HD
ATOM     23  H   UNL     1      -1.964   9.944  22.694  0.00  0.00    +0.000 HD
ENDBRANCH   1  15
BRANCH   8  24
ATOM     24  C   UNL     1       4.324   4.317  19.327  0.00  0.00    +0.000 C 
ATOM     25  O   UNL     1       5.515   4.226  19.616  0.00  0.00    +0.000 OA
ATOM     26  N   UNL     1       3.804   4.576  18.062  0.00  0.00    +0.000 N 
ATOM     27  H   UNL     1       2.797   4.667  18.007  0.00  0.00    +0.000 HD
BRANCH  26  28
ATOM     28  C   UNL     1       4.546   4.956  16.920  0.00  0.00    +0.000 A 
ATOM     29  C   UNL     1       4.690   6.288  16.522  0.00  0.00    +0.000 A 
ATOM     30  C   UNL     1       5.311   6.610  15.318  0.00  0.00    +0.000 A 
ATOM     31  C   UNL     1       5.824   5.600  14.516  0.00  0.00    +0.000 A 
ATOM     32  C   UNL     1       5.766   4.267  14.929  0.00  0.00    +0.000 A 
ATOM     33  C   UNL     1       5.118   3.943  16.127  0.00  0.00    +0.000 A 
BRANCH  32  34
ATOM     34  O   UNL     1       6.280   3.389  14.024  0.00  0.00    +0.000 OA
BRANCH  34  35
ATOM     35  C   UNL     1       5.834   3.411  12.680  0.00  0.00    +0.000 C 
ATOM     36  F   UNL     1       5.853   2.208  12.071  0.00  0.00    +0.000 F 
ATOM     37  F   UNL     1       4.576   3.900  12.637  0.00  0.00    +0.000 F 
ATOM     38  F   UNL     1       6.633   4.247  11.977  0.00  0.00    +0.000 F 
ENDBRANCH  34  35
ENDBRANCH  32  34
ENDBRANCH  26  28
ENDBRANCH   8  24
BRANCH   6  39
ATOM     39  O   UNL     1       1.389   2.364  22.142  0.00  0.00    +0.000 OA
ATOM     40  H   UNL     1       1.690   1.479  22.415  0.00  0.00    +0.000 HD
ENDBRANCH   6  39
TORSDOF 6
ENDMDL
MODEL 6
REMARK VINA RESULT:      -8.8      5.489      9.748
REMARK  Name = 
REMARK  6 active torsions:
REMARK  status: ('A' for Active; 'I' for Inactive)
REMARK    1  A    between atoms: C_6  and  N_7
REMARK    2  A    between atoms: C_12  and  O_13
REMARK    3  A    between atoms: C_15  and  C_16
REMARK    4  A    between atoms: N_18  and  C_19
REMARK    5  A    between atoms: C_23  and  O_24
REMARK    6  A    between atoms: O_24  and  C_25
REMARK                            x       y       z     vdW  Elec       q    Type
REMARK                         _______ _______ _______ _____ _____    ______ ____
ROOT
ATOM      1  N   UNL     1       2.289   7.296  20.038  0.00  0.00    +0.000 N 
ATOM      2  C   UNL     1       1.425   8.328  19.756  0.00  0.00    +0.000 C 
ATOM      3  O   UNL     1       0.957   8.554  18.641  0.00  0.00    +0.000 OA
ATOM      4  N   UNL     1       1.089   9.155  20.810  0.00  0.00    +0.000 N 
ATOM      5  C   UNL     1       1.364   8.993  22.234  0.00  0.00    +0.000 C 
ATOM      6  C   UNL     1       0.174   9.668  22.921  0.00  0.00    +0.000 C 
ATOM      7  C   UNL     1      -0.227  10.773  21.957  0.00  0.00    +0.000 C 
ATOM      8  C   UNL     1       0.036  10.156  20.582  0.00  0.00    +0.000 C 
ATOM      9  H   UNL     1       2.421   7.005  20.993  0.00  0.00    +0.000 HD
ENDROOT
BRANCH   1  15
ATOM     10  N   UNL     1       5.206   6.880  15.716  0.00  0.00    +0.000 N 
ATOM     11  C   UNL     1       5.079   5.670  16.343  0.00  0.00    +0.000 C 
ATOM     12  O   UNL     1       5.659   4.645  16.026  0.00  0.00    +0.000 OA
ATOM     13  N   UNL     1       4.122   5.701  17.377  0.00  0.00    +0.000 N 
ATOM     14  C   UNL     1       3.813   6.794  18.167  0.00  0.00    +0.000 A 
ATOM     15  C   UNL     1       2.832   6.462  19.063  0.00  0.00    +0.000 A 
ATOM     16  C   UNL     1       2.488   5.097  18.818  0.00  0.00    +0.000 A 
ATOM     17  C   UNL     1       1.533   4.212  19.365  0.00  0.00    +0.000 A 
ATOM     18  C   UNL     1       1.401   2.920  18.839  0.00  0.00    +0.000 A 
ATOM     19  C   UNL     1       2.214   2.496  17.793  0.00  0.00    +0.000 A 
ATOM     20  C   UNL     1       3.183   3.341  17.254  0.00  0.00    +0.000 A 
ATOM     21  C   UNL     1       3.306   4.641  17.777  0.00  0.00    +0.000 A 
ATOM     22  H   UNL     1       5.763   6.893  14.872  0.00  0.00    +0.000 HD
ATOM     23  H   UNL     1       4.492   7.595  15.804  0.00  0.00    +0.000 HD
ENDBRANCH   1  15
BRANCH   8  24
ATOM     24  C   UNL     1       0.408  11.254  19.571  0.00  0.00    +0.000 C 
ATOM     25  O   UNL     1      -0.117  11.245  18.458  0.00  0.00    +0.000 OA
ATOM     26  N   UNL     1       1.206  12.267  20.093  0.00  0.00    +0.000 N 
ATOM     27  H   UNL     1       1.600  12.093  21.009  0.00  0.00    +0.000 HD
BRANCH  26  28
ATOM     28  C   UNL     1       1.706  13.382  19.380  0.00  0.00    +0.000 A 
ATOM     29  C   UNL     1       2.972  13.394  18.789  0.00  0.00    +0.000 A 
ATOM     30  C   UNL     1       3.481  14.557  18.217  0.00  0.00    +0.000 A 
ATOM     31  C   UNL     1       2.711  15.712  18.202  0.00  0.00    +0.000 A 
ATOM     32  C   UNL     1       1.411  15.705  18.713  0.00  0.00    +0.000 A 
ATOM     33  C   UNL     1       0.911  14.542  19.311  0.00  0.00    +0.000 A 
BRANCH  32  34
ATOM     34  O   UNL     1       0.794  16.916  18.658  0.00  0.00    +0.000 OA
BRANCH  34  35
ATOM     35  C   UNL     1       0.810  17.774  19.785  0.00  0.00    +0.000 C 
ATOM     36  F   UNL     1       0.713  17.135  20.969  0.00  0.00    +0.000 F 
ATOM     37  F   UNL     1       1.950  18.499  19.776  0.00  0.00    +0.000 F 
ATOM     38  F   UNL     1      -0.232  18.631  19.687  0.00  0.00    +0.000 F 
ENDBRANCH  34  35
ENDBRANCH  32  34
ENDBRANCH  26  28
ENDBRANCH   8  24
BRANCH   6  39
ATOM     39  O   UNL     1      -0.901   8.744  23.084  0.00  0.00    +0.000 OA
ATOM     40  H   UNL     1      -1.695   9.104  22.649  0.00  0.00    +0.000 HD
ENDBRANCH   6  39
TORSDOF 6
ENDMDL
MODEL 7
REMARK VINA RESULT:      -8.8      7.434      9.863
REMARK  Name = 
REMARK  6 active torsions:
REMARK  status: ('A' for Active; 'I' for Inactive)
REMARK    1  A    between atoms: C_6  and  N_7
REMARK    2  A    between atoms: C_12  and  O_13
REMARK    3  A    between atoms: C_15  and  C_16
REMARK    4  A    between atoms: N_18  and  C_19
REMARK    5  A    between atoms: C_23  and  O_24
REMARK    6  A    between atoms: O_24  and  C_25
REMARK                            x       y       z     vdW  Elec       q    Type
REMARK                         _______ _______ _______ _____ _____    ______ ____
ROOT
ATOM      1  N   UNL     1      -1.541  12.229  23.252  0.00  0.00    +0.000 N 
ATOM      2  C   UNL     1      -0.851  12.083  22.072  0.00  0.00    +0.000 C 
ATOM      3  O   UNL     1      -0.678  12.986  21.256  0.00  0.00    +0.000 OA
ATOM      4  N   UNL     1      -0.341  10.827  21.808  0.00  0.00    +0.000 N 
ATOM      5  C   UNL     1      -0.258   9.662  22.683  0.00  0.00    +0.000 C 
ATOM      6  C   UNL     1       1.004   8.934  22.214  0.00  0.00    +0.000 C 
ATOM      7  C   UNL     1       1.079   9.251  20.729  0.00  0.00    +0.000 C 
ATOM      8  C   UNL     1       0.547  10.684  20.645  0.00  0.00    +0.000 C 
ATOM      9  H   UNL     1      -1.421  11.549  23.986  0.00  0.00    +0.000 HD
ENDROOT
BRANCH   1  15
ATOM     10  N   UNL     1      -1.624  16.639  26.063  0.00  0.00    +0.000 N 
ATOM     11  C   UNL     1      -2.528  16.692  25.037  0.00  0.00    +0.000 C 
ATOM     12  O   UNL     1      -3.186  17.670  24.724  0.00  0.00    +0.000 OA
ATOM     13  N   UNL     1      -2.690  15.445  24.403  0.00  0.00    +0.000 N 
ATOM     14  C   UNL     1      -1.719  14.469  24.264  0.00  0.00    +0.000 A 
ATOM     15  C   UNL     1      -2.233  13.387  23.600  0.00  0.00    +0.000 A 
ATOM     16  C   UNL     1      -3.602  13.682  23.319  0.00  0.00    +0.000 A 
ATOM     17  C   UNL     1      -4.657  12.962  22.717  0.00  0.00    +0.000 A 
ATOM     18  C   UNL     1      -5.938  13.527  22.656  0.00  0.00    +0.000 A 
ATOM     19  C   UNL     1      -6.176  14.797  23.171  0.00  0.00    +0.000 A 
ATOM     20  C   UNL     1      -5.146  15.539  23.746  0.00  0.00    +0.000 A 
ATOM     21  C   UNL     1      -3.863  14.965  23.816  0.00  0.00    +0.000 A 
ATOM     22  H   UNL     1      -1.567  17.457  26.656  0.00  0.00    +0.000 HD
ATOM     23  H   UNL     1      -1.349  15.755  26.476  0.00  0.00    +0.000 HD
ENDBRANCH   1  15
BRANCH   8  24
ATOM     24  C   UNL     1      -0.136  10.917  19.287  0.00  0.00    +0.000 C 
ATOM     25  O   UNL     1       0.515  11.408  18.366  0.00  0.00    +0.000 OA
ATOM     26  N   UNL     1      -1.418  10.385  19.192  0.00  0.00    +0.000 N 
ATOM     27  H   UNL     1      -1.830  10.065  20.059  0.00  0.00    +0.000 HD
BRANCH  26  28
ATOM     28  C   UNL     1      -2.273  10.472  18.068  0.00  0.00    +0.000 A 
ATOM     29  C   UNL     1      -1.978   9.861  16.847  0.00  0.00    +0.000 A 
ATOM     30  C   UNL     1      -2.774  10.084  15.727  0.00  0.00    +0.000 A 
ATOM     31  C   UNL     1      -3.894  10.897  15.828  0.00  0.00    +0.000 A 
ATOM     32  C   UNL     1      -4.257  11.455  17.056  0.00  0.00    +0.000 A 
ATOM     33  C   UNL     1      -3.440  11.251  18.175  0.00  0.00    +0.000 A 
BRANCH  32  34
ATOM     34  O   UNL     1      -5.357  12.254  16.993  0.00  0.00    +0.000 OA
BRANCH  34  35
ATOM     35  C   UNL     1      -6.460  12.014  17.849  0.00  0.00    +0.000 C 
ATOM     36  F   UNL     1      -6.769  10.709  18.002  0.00  0.00    +0.000 F 
ATOM     37  F   UNL     1      -6.203  12.544  19.064  0.00  0.00    +0.000 F 
ATOM     38  F   UNL     1      -7.544  12.642  17.338  0.00  0.00    +0.000 F 
ENDBRANCH  34  35
ENDBRANCH  32  34
ENDBRANCH  26  28
ENDBRANCH   8  24
BRANCH   6  39
ATOM     39  O   UNL     1       2.155   9.444  22.884  0.00  0.00    +0.000 OA
ATOM     40  H   UNL     1       2.724   8.699  23.148  0.00  0.00    +0.000 HD
ENDBRANCH   6  39
TORSDOF 6
ENDMDL
MODEL 8
REMARK VINA RESULT:      -8.7      4.830      8.949
REMARK  Name = 
REMARK  6 active torsions:
REMARK  status: ('A' for Active; 'I' for Inactive)
REMARK    1  A    between atoms: C_6  and  N_7
REMARK    2  A    between atoms: C_12  and  O_13
REMARK    3  A    between atoms: C_15  and  C_16
REMARK    4  A    between atoms: N_18  and  C_19
REMARK    5  A    between atoms: C_23  and  O_24
REMARK    6  A    between atoms: O_24  and  C_25
REMARK                            x       y       z     vdW  Elec       q    Type
REMARK                         _______ _______ _______ _____ _____    ______ ____
ROOT
ATOM      1  N   UNL     1       1.404   9.052  18.490  0.00  0.00    +0.000 N 
ATOM      2  C   UNL     1       1.688  10.373  18.234  0.00  0.00    +0.000 C 
ATOM      3  O   UNL     1       2.744  10.772  17.747  0.00  0.00    +0.000 OA
ATOM      4  N   UNL     1       0.708  11.288  18.567  0.00  0.00    +0.000 N 
ATOM      5  C   UNL     1      -0.671  11.054  18.981  0.00  0.00    +0.000 C 
ATOM      6  C   UNL     1      -1.430  12.273  18.450  0.00  0.00    +0.000 C 
ATOM      7  C   UNL     1      -0.402  13.392  18.492  0.00  0.00    +0.000 C 
ATOM      8  C   UNL     1       0.909  12.682  18.145  0.00  0.00    +0.000 C 
ATOM      9  H   UNL     1       0.449   8.766  18.632  0.00  0.00    +0.000 HD
ENDROOT
BRANCH   1  15
ATOM     10  N   UNL     1       5.063   6.811  15.499  0.00  0.00    +0.000 N 
ATOM     11  C   UNL     1       5.175   6.404  16.801  0.00  0.00    +0.000 C 
ATOM     12  O   UNL     1       6.072   5.710  17.251  0.00  0.00    +0.000 OA
ATOM     13  N   UNL     1       4.075   6.809  17.583  0.00  0.00    +0.000 N 
ATOM     14  C   UNL     1       3.326   7.957  17.402  0.00  0.00    +0.000 A 
ATOM     15  C   UNL     1       2.334   8.024  18.343  0.00  0.00    +0.000 A 
ATOM     16  C   UNL     1       2.446   6.851  19.151  0.00  0.00    +0.000 A 
ATOM     17  C   UNL     1       1.700   6.327  20.229  0.00  0.00    +0.000 A 
ATOM     18  C   UNL     1       2.042   5.081  20.770  0.00  0.00    +0.000 A 
ATOM     19  C   UNL     1       3.120   4.362  20.265  0.00  0.00    +0.000 A 
ATOM     20  C   UNL     1       3.890   4.870  19.219  0.00  0.00    +0.000 A 
ATOM     21  C   UNL     1       3.537   6.117  18.670  0.00  0.00    +0.000 A 
ATOM     22  H   UNL     1       5.739   6.430  14.849  0.00  0.00    +0.000 HD
ATOM     23  H   UNL     1       4.172   7.101  15.114  0.00  0.00    +0.000 HD
ENDBRANCH   1  15
BRANCH   8  24
ATOM     24  C   UNL     1       2.092  13.392  18.826  0.00  0.00    +0.000 C 
ATOM     25  O   UNL     1       2.300  13.195  20.022  0.00  0.00    +0.000 OA
ATOM     26  N   UNL     1       2.924  14.085  17.952  0.00  0.00    +0.000 N 
ATOM     27  H   UNL     1       2.578  14.199  17.008  0.00  0.00    +0.000 HD
BRANCH  26  28
ATOM     28  C   UNL     1       4.067  14.837  18.313  0.00  0.00    +0.000 A 
ATOM     29  C   UNL     1       3.988  16.023  19.047  0.00  0.00    +0.000 A 
ATOM     30  C   UNL     1       5.120  16.805  19.263  0.00  0.00    +0.000 A 
ATOM     31  C   UNL     1       6.350  16.387  18.772  0.00  0.00    +0.000 A 
ATOM     32  C   UNL     1       6.470  15.166  18.106  0.00  0.00    +0.000 A 
ATOM     33  C   UNL     1       5.326  14.394  17.867  0.00  0.00    +0.000 A 
BRANCH  32  34
ATOM     34  O   UNL     1       7.728  14.907  17.657  0.00  0.00    +0.000 OA
BRANCH  34  35
ATOM     35  C   UNL     1       8.332  13.652  17.917  0.00  0.00    +0.000 C 
ATOM     36  F   UNL     1       8.288  13.274  19.211  0.00  0.00    +0.000 F 
ATOM     37  F   UNL     1       7.729  12.704  17.167  0.00  0.00    +0.000 F 
ATOM     38  F   UNL     1       9.631  13.717  17.546  0.00  0.00    +0.000 F 
ENDBRANCH  34  35
ENDBRANCH  32  34
ENDBRANCH  26  28
ENDBRANCH   8  24
BRANCH   6  39
ATOM     39  O   UNL     1      -1.858  12.050  17.107  0.00  0.00    +0.000 OA
ATOM     40  H   UNL     1      -2.584  12.666  16.901  0.00  0.00    +0.000 HD
ENDBRANCH   6  39
TORSDOF 6
ENDMDL
MODEL 9
REMARK VINA RESULT:      -8.7      7.383      9.807
REMARK  Name = 
REMARK  6 active torsions:
REMARK  status: ('A' for Active; 'I' for Inactive)
REMARK    1  A    between atoms: C_6  and  N_7
REMARK    2  A    between atoms: C_12  and  O_13
REMARK    3  A    between atoms: C_15  and  C_16
REMARK    4  A    between atoms: N_18  and  C_19
REMARK    5  A    between atoms: C_23  and  O_24
REMARK    6  A    between atoms: O_24  and  C_25
REMARK                            x       y       z     vdW  Elec       q    Type
REMARK                         _______ _______ _______ _____ _____    ______ ____
ROOT
ATOM      1  N   UNL     1      -2.053  11.774  23.057  0.00  0.00    +0.000 N 
ATOM      2  C   UNL     1      -1.259  11.730  21.935  0.00  0.00    +0.000 C 
ATOM      3  O   UNL     1      -1.142  12.654  21.133  0.00  0.00    +0.000 OA
ATOM      4  N   UNL     1      -0.569  10.553  21.715  0.00  0.00    +0.000 N 
ATOM      5  C   UNL     1      -0.404   9.401  22.596  0.00  0.00    +0.000 C 
ATOM      6  C   UNL     1       0.975   8.848  22.231  0.00  0.00    +0.000 C 
ATOM      7  C   UNL     1       1.126   9.185  20.755  0.00  0.00    +0.000 C 
ATOM      8  C   UNL     1       0.419  10.536  20.627  0.00  0.00    +0.000 C 
ATOM      9  H   UNL     1      -1.903  11.109  23.799  0.00  0.00    +0.000 HD
ENDROOT
BRANCH   1  15
ATOM     10  N   UNL     1      -6.719  13.999  22.262  0.00  0.00    +0.000 N 
ATOM     11  C   UNL     1      -6.132  14.479  23.401  0.00  0.00    +0.000 C 
ATOM     12  O   UNL     1      -6.658  15.231  24.205  0.00  0.00    +0.000 OA
ATOM     13  N   UNL     1      -4.789  14.072  23.523  0.00  0.00    +0.000 N 
ATOM     14  C   UNL     1      -4.252  12.886  23.056  0.00  0.00    +0.000 A 
ATOM     15  C   UNL     1      -2.915  12.829  23.346  0.00  0.00    +0.000 A 
ATOM     16  C   UNL     1      -2.582  14.047  24.014  0.00  0.00    +0.000 A 
ATOM     17  C   UNL     1      -1.380  14.597  24.510  0.00  0.00    +0.000 A 
ATOM     18  C   UNL     1      -1.381  15.883  25.065  0.00  0.00    +0.000 A 
ATOM     19  C   UNL     1      -2.559  16.617  25.148  0.00  0.00    +0.000 A 
ATOM     20  C   UNL     1      -3.765  16.086  24.691  0.00  0.00    +0.000 A 
ATOM     21  C   UNL     1      -3.759  14.798  24.123  0.00  0.00    +0.000 A 
ATOM     22  H   UNL     1      -7.631  14.372  22.034  0.00  0.00    +0.000 HD
ATOM     23  H   UNL     1      -6.161  13.653  21.489  0.00  0.00    +0.000 HD
ENDBRANCH   1  15
BRANCH   8  24
ATOM     24  C   UNL     1      -0.180  10.689  19.218  0.00  0.00    +0.000 C 
ATOM     25  O   UNL     1       0.567  10.945  18.275  0.00  0.00    +0.000 OA
ATOM     26  N   UNL     1      -1.528  10.356  19.129  0.00  0.00    +0.000 N 
ATOM     27  H   UNL     1      -2.010  10.223  20.009  0.00  0.00    +0.000 HD
BRANCH  26  28
ATOM     28  C   UNL     1      -2.326  10.424  17.963  0.00  0.00    +0.000 A 
ATOM     29  C   UNL     1      -1.993   9.758  16.781  0.00  0.00    +0.000 A 
ATOM     30  C   UNL     1      -2.728   9.960  15.616  0.00  0.00    +0.000 A 
ATOM     31  C   UNL     1      -3.827  10.809  15.633  0.00  0.00    +0.000 A 
ATOM     32  C   UNL     1      -4.230  11.424  16.821  0.00  0.00    +0.000 A 
ATOM     33  C   UNL     1      -3.473  11.240  17.985  0.00  0.00    +0.000 A 
BRANCH  32  34
ATOM     34  O   UNL     1      -5.300  12.251  16.675  0.00  0.00    +0.000 OA
BRANCH  34  35
ATOM     35  C   UNL     1      -6.362  12.211  17.612  0.00  0.00    +0.000 C 
ATOM     36  F   UNL     1      -6.081  12.799  18.793  0.00  0.00    +0.000 F 
ATOM     37  F   UNL     1      -7.450  12.808  17.078  0.00  0.00    +0.000 F 
ATOM     38  F   UNL     1      -6.672  10.916  17.854  0.00  0.00    +0.000 F 
ENDBRANCH  34  35
ENDBRANCH  32  34
ENDBRANCH  26  28
ENDBRANCH   8  24
BRANCH   6  39
ATOM     39  O   UNL     1       1.993   9.500  22.988  0.00  0.00    +0.000 OA
ATOM     40  H   UNL     1       2.799   9.565  22.445  0.00  0.00    +0.000 HD
ENDBRANCH   6  39
TORSDOF 6
ENDMDL
