MODEL 1
REMARK VINA RESULT:      -8.1      0.000      0.000
REMARK  Name = 
REMARK  11 active torsions:
REMARK  status: ('A' for Active; 'I' for Inactive)
REMARK    1  A    between atoms: C_1  and  O_2
REMARK    2  A    between atoms: O_2  and  C_3
REMARK    3  A    between atoms: C_6  and  C_7
REMARK    4  A    between atoms: C_9  and  C_10
REMARK    5  A    between atoms: C_10  and  C_11
REMARK    6  A    between atoms: C_11  and  C_12
REMARK    7  A    between atoms: C_12  and  C_13
REMARK    8  A    between atoms: C_13  and  N_14
REMARK    9  A    between atoms: N_17  and  C_18
REMARK   10  A    between atoms: C_28  and  O_29
REMARK   11  A    between atoms: O_29  and  C_30
REMARK                            x       y       z     vdW  Elec       q    Type
REMARK                         _______ _______ _______ _____ _____    ______ ____
ROOT
ATOM      1  C   UNL     1       8.480   7.966  18.489  0.00  0.00    +0.000 C 
ENDROOT
BRANCH   1   4
ATOM      2  C   UNL     1       5.774   5.924  17.283  0.00  0.00    +0.000 A 
ATOM      3  C   UNL     1       6.434   6.508  18.335  0.00  0.00    +0.000 A 
ATOM      4  C   UNL     1       7.508   7.120  17.758  0.00  0.00    +0.000 A 
ATOM      5  O   UNL     1       7.489   6.896  16.464  0.00  0.00    +0.000 OA
ATOM      6  N   UNL     1       6.443   6.187  16.140  0.00  0.00    +0.000 NA
BRANCH   2  10
ATOM      7  C   UNL     1       2.146   3.676  17.677  0.00  0.00    +0.000 A 
ATOM      8  C   UNL     1       3.325   3.067  17.254  0.00  0.00    +0.000 A 
ATOM      9  C   UNL     1       4.490   3.810  17.121  0.00  0.00    +0.000 A 
ATOM     10  C   UNL     1       4.500   5.189  17.397  0.00  0.00    +0.000 A 
ATOM     11  C   UNL     1       3.312   5.826  17.805  0.00  0.00    +0.000 A 
ATOM     12  C   UNL     1       2.140   5.059  17.949  0.00  0.00    +0.000 A 
BRANCH   7  14
ATOM     13  C   UNL     1       0.575   2.403  19.023  0.00  0.00    +0.000 C 
ATOM     14  O   UNL     1       1.048   2.893  17.827  0.00  0.00    +0.000 OA
ENDBRANCH   7  14
BRANCH  11  15
ATOM     15  O   UNL     1       3.346   7.154  18.107  0.00  0.00    +0.000 OA
ATOM     16  C   UNL     1       2.261   8.003  18.153  0.00  0.00    +0.000 C 
ENDBRANCH  11  15
ENDBRANCH   2  10
ENDBRANCH   1   4
BRANCH   1  17
ATOM     17  C   UNL     1       8.534   9.402  17.974  0.00  0.00    +0.000 C 
BRANCH  17  18
ATOM     18  C   UNL     1       8.956  10.272  19.156  0.00  0.00    +0.000 C 
BRANCH  18  19
ATOM     19  C   UNL     1      10.342  10.895  19.028  0.00  0.00    +0.000 C 
BRANCH  19  20
ATOM     20  N   UNL     1      10.432  11.757  17.820  0.00  0.00    +0.000 NA
ATOM     21  C   UNL     1       9.308  12.711  17.741  0.00  0.00    +0.000 C 
ATOM     22  C   UNL     1       9.473  13.869  18.742  0.00  0.00    +0.000 C 
ATOM     23  N   UNL     1      10.768  14.499  18.508  0.00  0.00    +0.000 N 
ATOM     24  C   UNL     1      11.922  13.614  18.579  0.00  0.00    +0.000 C 
ATOM     25  C   UNL     1      11.723  12.461  17.592  0.00  0.00    +0.000 C 
BRANCH  23  26
ATOM     26  C   UNL     1      10.859  15.884  18.127  0.00  0.00    +0.000 A 
ATOM     27  C   UNL     1      12.096  16.433  17.727  0.00  0.00    +0.000 A 
ATOM     28  C   UNL     1      12.209  17.782  17.390  0.00  0.00    +0.000 A 
ATOM     29  C   UNL     1      11.093  18.614  17.454  0.00  0.00    +0.000 A 
ATOM     30  C   UNL     1       9.857  18.093  17.837  0.00  0.00    +0.000 A 
ATOM     31  C   UNL     1       9.733  16.737  18.165  0.00  0.00    +0.000 A 
ENDBRANCH  23  26
ENDBRANCH  19  20
ENDBRANCH  18  19
ENDBRANCH  17  18
ENDBRANCH   1  17
TORSDOF 9
ENDMDL
MODEL 2
REMARK VINA RESULT:      -7.7      7.114      9.759
REMARK  Name = 
REMARK  11 active torsions:
REMARK  status: ('A' for Active; 'I' for Inactive)
REMARK    1  A    between atoms: C_1  and  O_2
REMARK    2  A    between atoms: O_2  and  C_3
REMARK    3  A    between atoms: C_6  and  C_7
REMARK    4  A    between atoms: C_9  and  C_10
REMARK    5  A    between atoms: C_10  and  C_11
REMARK    6  A    between atoms: C_11  and  C_12
REMARK    7  A    between atoms: C_12  and  C_13
REMARK    8  A    between atoms: C_13  and  N_14
REMARK    9  A    between atoms: N_17  and  C_18
REMARK   10  A    between atoms: C_28  and  O_29
REMARK   11  A    between atoms: O_29  and  C_30
REMARK                            x       y       z     vdW  Elec       q    Type
REMARK                         _______ _______ _______ _____ _____    ______ ____
ROOT
ATOM      1  C   UNL     1       1.428   4.867  20.030  0.00  0.00    +0.000 C 
ENDROOT
BRANCH   1   4
ATOM      2  C   UNL     1       4.377   4.120  18.109  0.00  0.00    +0.000 A 
ATOM      3  C   UNL     1       3.220   4.842  18.263  0.00  0.00    +0.000 A 
ATOM      4  C   UNL     1       2.661   4.338  19.402  0.00  0.00    +0.000 A 
ATOM      5  O   UNL     1       3.426   3.379  19.871  0.00  0.00    +0.000 OA
ATOM      6  N   UNL     1       4.483   3.231  19.121  0.00  0.00    +0.000 NA
BRANCH   2  10
ATOM      7  C   UNL     1       7.158   4.852  14.931  0.00  0.00    +0.000 A 
ATOM      8  C   UNL     1       5.823   4.558  14.663  0.00  0.00    +0.000 A 
ATOM      9  C   UNL     1       4.936   4.312  15.702  0.00  0.00    +0.000 A 
ATOM     10  C   UNL     1       5.369   4.343  17.040  0.00  0.00    +0.000 A 
ATOM     11  C   UNL     1       6.720   4.618  17.329  0.00  0.00    +0.000 A 
ATOM     12  C   UNL     1       7.607   4.878  16.267  0.00  0.00    +0.000 A 
BRANCH   7  14
ATOM     13  C   UNL     1       7.568   5.228  12.567  0.00  0.00    +0.000 C 
ATOM     14  O   UNL     1       7.970   5.122  13.878  0.00  0.00    +0.000 OA
ENDBRANCH   7  14
BRANCH  11  15
ATOM     15  O   UNL     1       7.114   4.684  18.631  0.00  0.00    +0.000 OA
ATOM     16  C   UNL     1       7.538   5.816  19.293  0.00  0.00    +0.000 C 
ENDBRANCH  11  15
ENDBRANCH   2  10
ENDBRANCH   1   4
BRANCH   1  17
ATOM     17  C   UNL     1       1.699   5.978  21.042  0.00  0.00    +0.000 C 
BRANCH  17  18
ATOM     18  C   UNL     1       1.773   7.280  20.246  0.00  0.00    +0.000 C 
BRANCH  18  19
ATOM     19  C   UNL     1       1.497   8.541  21.059  0.00  0.00    +0.000 C 
BRANCH  19  20
ATOM     20  N   UNL     1       0.082   8.973  20.917  0.00  0.00    +0.000 NA
ATOM     21  C   UNL     1      -0.660   8.850  22.188  0.00  0.00    +0.000 C 
ATOM     22  C   UNL     1      -0.281   9.967  23.178  0.00  0.00    +0.000 C 
ATOM     23  N   UNL     1      -0.488  11.254  22.522  0.00  0.00    +0.000 N 
ATOM     24  C   UNL     1       0.223  11.444  21.266  0.00  0.00    +0.000 C 
ATOM     25  C   UNL     1      -0.154  10.310  20.309  0.00  0.00    +0.000 C 
BRANCH  23  26
ATOM     26  C   UNL     1      -1.423  12.210  23.052  0.00  0.00    +0.000 A 
ATOM     27  C   UNL     1      -2.732  11.810  23.398  0.00  0.00    +0.000 A 
ATOM     28  C   UNL     1      -3.662  12.731  23.879  0.00  0.00    +0.000 A 
ATOM     29  C   UNL     1      -3.312  14.073  24.015  0.00  0.00    +0.000 A 
ATOM     30  C   UNL     1      -2.022  14.492  23.689  0.00  0.00    +0.000 A 
ATOM     31  C   UNL     1      -1.078  13.570  23.218  0.00  0.00    +0.000 A 
ENDBRANCH  23  26
ENDBRANCH  19  20
ENDBRANCH  18  19
ENDBRANCH  17  18
ENDBRANCH   1  17
TORSDOF 9
ENDMDL
MODEL 3
REMARK VINA RESULT:      -7.7      6.737     10.542
REMARK  Name = 
REMARK  11 active torsions:
REMARK  status: ('A' for Active; 'I' for Inactive)
REMARK    1  A    between atoms: C_1  and  O_2
REMARK    2  A    between atoms: O_2  and  C_3
REMARK    3  A    between atoms: C_6  and  C_7
REMARK    4  A    between atoms: C_9  and  C_10
REMARK    5  A    between atoms: C_10  and  C_11
REMARK    6  A    between atoms: C_11  and  C_12
REMARK    7  A    between atoms: C_12  and  C_13
REMARK    8  A    between atoms: C_13  and  N_14
REMARK    9  A    between atoms: N_17  and  C_18
REMARK   10  A    between atoms: C_28  and  O_29
REMARK   11  A    between atoms: O_29  and  C_30
REMARK                            x       y       z     vdW  Elec       q    Type
REMARK                         _______ _______ _______ _____ _____    ______ ____
ROOT
ATOM      1  C   UNL     1       2.475   6.527  20.159  0.00  0.00    +0.000 C 
ENDROOT
BRANCH   1   4
ATOM      2  C   UNL     1       1.351   9.601  18.666  0.00  0.00    +0.000 A 
ATOM      3  C   UNL     1       1.474   8.804  19.776  0.00  0.00    +0.000 A 
ATOM      4  C   UNL     1       2.057   7.664  19.306  0.00  0.00    +0.000 A 
ATOM      5  O   UNL     1       2.245   7.777  18.011  0.00  0.00    +0.000 OA
ATOM      6  N   UNL     1       1.843   8.945  17.592  0.00  0.00    +0.000 NA
BRANCH   2  10
ATOM      7  C   UNL     1      -0.060  13.648  18.614  0.00  0.00    +0.000 A 
ATOM      8  C   UNL     1       1.291  13.361  18.795  0.00  0.00    +0.000 A 
ATOM      9  C   UNL     1       1.732  12.046  18.820  0.00  0.00    +0.000 A 
ATOM     10  C   UNL     1       0.825  10.980  18.677  0.00  0.00    +0.000 A 
ATOM     11  C   UNL     1      -0.548  11.250  18.515  0.00  0.00    +0.000 A 
ATOM     12  C   UNL     1      -0.981  12.589  18.479  0.00  0.00    +0.000 A 
BRANCH   7  14
ATOM     13  C   UNL     1       0.290  16.007  19.074  0.00  0.00    +0.000 C 
ATOM     14  O   UNL     1      -0.429  14.953  18.559  0.00  0.00    +0.000 OA
ENDBRANCH   7  14
BRANCH  11  15
ATOM     15  O   UNL     1      -1.408  10.208  18.339  0.00  0.00    +0.000 OA
ATOM     16  C   UNL     1      -2.025   9.858  17.157  0.00  0.00    +0.000 C 
ENDBRANCH  11  15
ENDBRANCH   2  10
ENDBRANCH   1   4
BRANCH   1  17
ATOM     17  C   UNL     1       1.324   5.591  20.520  0.00  0.00    +0.000 C 
BRANCH  17  18
ATOM     18  C   UNL     1       1.957   4.263  20.931  0.00  0.00    +0.000 C 
BRANCH  18  19
ATOM     19  C   UNL     1       1.365   3.035  20.247  0.00  0.00    +0.000 C 
BRANCH  19  20
ATOM     20  N   UNL     1       2.406   2.284  19.498  0.00  0.00    +0.000 NA
ATOM     21  C   UNL     1       2.221   2.399  18.037  0.00  0.00    +0.000 C 
ATOM     22  C   UNL     1       2.654   3.781  17.516  0.00  0.00    +0.000 C 
ATOM     23  N   UNL     1       4.032   4.020  17.933  0.00  0.00    +0.000 N 
ATOM     24  C   UNL     1       4.282   3.930  19.364  0.00  0.00    +0.000 C 
ATOM     25  C   UNL     1       3.823   2.557  19.861  0.00  0.00    +0.000 C 
BRANCH  23  26
ATOM     26  C   UNL     1       5.074   4.222  16.962  0.00  0.00    +0.000 A 
ATOM     27  C   UNL     1       6.398   4.478  17.379  0.00  0.00    +0.000 A 
ATOM     28  C   UNL     1       7.412   4.713  16.452  0.00  0.00    +0.000 A 
ATOM     29  C   UNL     1       7.128   4.707  15.088  0.00  0.00    +0.000 A 
ATOM     30  C   UNL     1       5.829   4.447  14.649  0.00  0.00    +0.000 A 
ATOM     31  C   UNL     1       4.807   4.198  15.574  0.00  0.00    +0.000 A 
ENDBRANCH  23  26
ENDBRANCH  19  20
ENDBRANCH  18  19
ENDBRANCH  17  18
ENDBRANCH   1  17
TORSDOF 9
ENDMDL
MODEL 4
REMARK VINA RESULT:      -7.6      3.055     11.821
REMARK  Name = 
REMARK  11 active torsions:
REMARK  status: ('A' for Active; 'I' for Inactive)
REMARK    1  A    between atoms: C_1  and  O_2
REMARK    2  A    between atoms: O_2  and  C_3
REMARK    3  A    between atoms: C_6  and  C_7
REMARK    4  A    between atoms: C_9  and  C_10
REMARK    5  A    between atoms: C_10  and  C_11
REMARK    6  A    between atoms: C_11  and  C_12
REMARK    7  A    between atoms: C_12  and  C_13
REMARK    8  A    between atoms: C_13  and  N_14
REMARK    9  A    between atoms: N_17  and  C_18
REMARK   10  A    between atoms: C_28  and  O_29
REMARK   11  A    between atoms: O_29  and  C_30
REMARK                            x       y       z     vdW  Elec       q    Type
REMARK                         _______ _______ _______ _____ _____    ______ ____
ROOT
ATOM      1  C   UNL     1       8.713   8.994  18.321  0.00  0.00    +0.000 C 
ENDROOT
BRANCH   1   4
ATOM      2  C   UNL     1       9.862  12.352  18.907  0.00  0.00    +0.000 A 
ATOM      3  C   UNL     1       9.649  11.313  18.037  0.00  0.00    +0.000 A 
ATOM      4  C   UNL     1       9.174  10.307  18.828  0.00  0.00    +0.000 A 
ATOM      5  O   UNL     1       9.128  10.722  20.073  0.00  0.00    +0.000 OA
ATOM      6  N   UNL     1       9.523  11.962  20.155  0.00  0.00    +0.000 NA
BRANCH   2  10
ATOM      7  C   UNL     1      11.283  16.197  17.651  0.00  0.00    +0.000 A 
ATOM      8  C   UNL     1      12.155  15.120  17.794  0.00  0.00    +0.000 A 
ATOM      9  C   UNL     1      11.683  13.884  18.212  0.00  0.00    +0.000 A 
ATOM     10  C   UNL     1      10.321  13.697  18.511  0.00  0.00    +0.000 A 
ATOM     11  C   UNL     1       9.427  14.780  18.393  0.00  0.00    +0.000 A 
ATOM     12  C   UNL     1       9.916  16.026  17.956  0.00  0.00    +0.000 A 
BRANCH   7  14
ATOM     13  C   UNL     1      11.209  18.606  17.358  0.00  0.00    +0.000 C 
ATOM     14  O   UNL     1      11.793  17.371  17.202  0.00  0.00    +0.000 OA
ENDBRANCH   7  14
BRANCH  11  15
ATOM     15  O   UNL     1       8.105  14.573  18.648  0.00  0.00    +0.000 OA
ATOM     16  C   UNL     1       7.083  14.635  17.724  0.00  0.00    +0.000 C 
ENDBRANCH  11  15
ENDBRANCH   2  10
ENDBRANCH   1   4
BRANCH   1  17
ATOM     17  C   UNL     1       7.311   9.041  17.718  0.00  0.00    +0.000 C 
BRANCH  17  18
ATOM     18  C   UNL     1       7.187   7.817  16.812  0.00  0.00    +0.000 C 
BRANCH  18  19
ATOM     19  C   UNL     1       7.400   6.480  17.513  0.00  0.00    +0.000 C 
BRANCH  19  20
ATOM     20  N   UNL     1       6.460   5.450  17.000  0.00  0.00    +0.000 NA
ATOM     21  C   UNL     1       6.343   4.303  17.925  0.00  0.00    +0.000 C 
ATOM     22  C   UNL     1       5.495   4.654  19.161  0.00  0.00    +0.000 C 
ATOM     23  N   UNL     1       4.200   5.148  18.706  0.00  0.00    +0.000 N 
ATOM     24  C   UNL     1       4.242   6.284  17.797  0.00  0.00    +0.000 C 
ATOM     25  C   UNL     1       5.109   5.919  16.589  0.00  0.00    +0.000 C 
BRANCH  23  26
ATOM     26  C   UNL     1       2.982   4.469  19.064  0.00  0.00    +0.000 A 
ATOM     27  C   UNL     1       2.360   4.730  20.304  0.00  0.00    +0.000 A 
ATOM     28  C   UNL     1       1.200   4.055  20.682  0.00  0.00    +0.000 A 
ATOM     29  C   UNL     1       0.641   3.098  19.838  0.00  0.00    +0.000 A 
ATOM     30  C   UNL     1       1.231   2.829  18.603  0.00  0.00    +0.000 A 
ATOM     31  C   UNL     1       2.389   3.512  18.210  0.00  0.00    +0.000 A 
ENDBRANCH  23  26
ENDBRANCH  19  20
ENDBRANCH  18  19
ENDBRANCH  17  18
ENDBRANCH   1  17
TORSDOF 9
ENDMDL
MODEL 5
REMARK VINA RESULT:      -7.5      7.004      9.719
REMARK  Name = 
REMARK  11 active torsions:
REMARK  status: ('A' for Active; 'I' for Inactive)
REMARK    1  A    between atoms: C_1  and  O_2
REMARK    2  A    between atoms: O_2  and  C_3
REMARK    3  A    between atoms: C_6  and  C_7
REMARK    4  A    between atoms: C_9  and  C_10
REMARK    5  A    between atoms: C_10  and  C_11
REMARK    6  A    between atoms: C_11  and  C_12
REMARK    7  A    between atoms: C_12  and  C_13
REMARK    8  A    between atoms: C_13  and  N_14
REMARK    9  A    between atoms: N_17  and  C_18
REMARK   10  A    between atoms: C_28  and  O_29
REMARK   11  A    between atoms: O_29  and  C_30
REMARK                            x       y       z     vdW  Elec       q    Type
REMARK                         _______ _______ _______ _____ _____    ______ ____
ROOT
ATOM      1  C   UNL     1       1.853   5.116  20.771  0.00  0.00    +0.000 C 
ENDROOT
BRANCH   1   4
ATOM      2  C   UNL     1       4.128   4.177  18.148  0.00  0.00    +0.000 A 
ATOM      3  C   UNL     1       3.496   5.161  18.865  0.00  0.00    +0.000 A 
ATOM      4  C   UNL     1       2.682   4.479  19.721  0.00  0.00    +0.000 A 
ATOM      5  O   UNL     1       2.815   3.190  19.509  0.00  0.00    +0.000 OA
ATOM      6  N   UNL     1       3.695   2.971  18.573  0.00  0.00    +0.000 NA
BRANCH   2  10
ATOM      7  C   UNL     1       7.043   4.960  15.103  0.00  0.00    +0.000 A 
ATOM      8  C   UNL     1       5.734   4.615  14.773  0.00  0.00    +0.000 A 
ATOM      9  C   UNL     1       4.804   4.354  15.769  0.00  0.00    +0.000 A 
ATOM     10  C   UNL     1       5.166   4.420  17.126  0.00  0.00    +0.000 A 
ATOM     11  C   UNL     1       6.490   4.746  17.479  0.00  0.00    +0.000 A 
ATOM     12  C   UNL     1       7.421   5.021  16.460  0.00  0.00    +0.000 A 
BRANCH   7  14
ATOM     13  C   UNL     1       7.656   5.013  12.754  0.00  0.00    +0.000 C 
ATOM     14  O   UNL     1       7.898   5.243  14.089  0.00  0.00    +0.000 OA
ENDBRANCH   7  14
BRANCH  11  15
ATOM     15  O   UNL     1       6.815   4.844  18.799  0.00  0.00    +0.000 OA
ATOM     16  C   UNL     1       7.760   5.689  19.339  0.00  0.00    +0.000 C 
ENDBRANCH  11  15
ENDBRANCH   2  10
ENDBRANCH   1   4
BRANCH   1  17
ATOM     17  C   UNL     1       2.195   6.587  20.996  0.00  0.00    +0.000 C 
BRANCH  17  18
ATOM     18  C   UNL     1       0.864   7.330  21.106  0.00  0.00    +0.000 C 
BRANCH  18  19
ATOM     19  C   UNL     1       0.833   8.689  20.413  0.00  0.00    +0.000 C 
BRANCH  19  20
ATOM     20  N   UNL     1       1.191   9.780  21.357  0.00  0.00    +0.000 NA
ATOM     21  C   UNL     1       0.834  11.109  20.821  0.00  0.00    +0.000 C 
ATOM     22  C   UNL     1      -0.683  11.363  20.893  0.00  0.00    +0.000 C 
ATOM     23  N   UNL     1      -1.116  11.174  22.274  0.00  0.00    +0.000 N 
ATOM     24  C   UNL     1      -0.803   9.880  22.862  0.00  0.00    +0.000 C 
ATOM     25  C   UNL     1       0.706   9.642  22.757  0.00  0.00    +0.000 C 
BRANCH  23  26
ATOM     26  C   UNL     1      -1.716  12.253  23.013  0.00  0.00    +0.000 A 
ATOM     27  C   UNL     1      -3.044  12.144  23.481  0.00  0.00    +0.000 A 
ATOM     28  C   UNL     1      -3.653  13.193  24.168  0.00  0.00    +0.000 A 
ATOM     29  C   UNL     1      -2.957  14.378  24.395  0.00  0.00    +0.000 A 
ATOM     30  C   UNL     1      -1.640  14.507  23.952  0.00  0.00    +0.000 A 
ATOM     31  C   UNL     1      -1.017  13.453  23.273  0.00  0.00    +0.000 A 
ENDBRANCH  23  26
ENDBRANCH  19  20
ENDBRANCH  18  19
ENDBRANCH  17  18
ENDBRANCH   1  17
TORSDOF 9
ENDMDL
MODEL 6
REMARK VINA RESULT:      -7.3      1.586      2.148
REMARK  Name = 
REMARK  11 active torsions:
REMARK  status: ('A' for Active; 'I' for Inactive)
REMARK    1  A    between atoms: C_1  and  O_2
REMARK    2  A    between atoms: O_2  and  C_3
REMARK    3  A    between atoms: C_6  and  C_7
REMARK    4  A    between atoms: C_9  and  C_10
REMARK    5  A    between atoms: C_10  and  C_11
REMARK    6  A    between atoms: C_11  and  C_12
REMARK    7  A    between atoms: C_12  and  C_13
REMARK    8  A    between atoms: C_13  and  N_14
REMARK    9  A    between atoms: N_17  and  C_18
REMARK   10  A    between atoms: C_28  and  O_29
REMARK   11  A    between atoms: O_29  and  C_30
REMARK                            x       y       z     vdW  Elec       q    Type
REMARK                         _______ _______ _______ _____ _____    ______ ____
ROOT
ATOM      1  C   UNL     1       8.218   8.346  17.295  0.00  0.00    +0.000 C 
ENDROOT
BRANCH   1   4
ATOM      2  C   UNL     1       5.999   5.677  18.241  0.00  0.00    +0.000 A 
ATOM      3  C   UNL     1       6.213   6.848  17.559  0.00  0.00    +0.000 A 
ATOM      4  C   UNL     1       7.497   7.186  17.871  0.00  0.00    +0.000 A 
ATOM      5  O   UNL     1       7.994   6.288  18.690  0.00  0.00    +0.000 OA
ATOM      6  N   UNL     1       7.119   5.350  18.924  0.00  0.00    +0.000 NA
BRANCH   2  10
ATOM      7  C   UNL     1       2.331   3.462  18.122  0.00  0.00    +0.000 A 
ATOM      8  C   UNL     1       2.788   4.030  19.309  0.00  0.00    +0.000 A 
ATOM      9  C   UNL     1       3.983   4.736  19.335  0.00  0.00    +0.000 A 
ATOM     10  C   UNL     1       4.760   4.879  18.171  0.00  0.00    +0.000 A 
ATOM     11  C   UNL     1       4.324   4.293  16.966  0.00  0.00    +0.000 A 
ATOM     12  C   UNL     1       3.104   3.591  16.950  0.00  0.00    +0.000 A 
BRANCH   7  14
ATOM     13  C   UNL     1       0.591   2.193  19.245  0.00  0.00    +0.000 C 
ATOM     14  O   UNL     1       1.137   2.818  18.148  0.00  0.00    +0.000 OA
ENDBRANCH   7  14
BRANCH  11  15
ATOM     15  O   UNL     1       5.067   4.474  15.839  0.00  0.00    +0.000 OA
ATOM     16  C   UNL     1       6.098   3.666  15.410  0.00  0.00    +0.000 C 
ENDBRANCH  11  15
ENDBRANCH   2  10
ENDBRANCH   1   4
BRANCH   1  17
ATOM     17  C   UNL     1       8.009   9.636  18.084  0.00  0.00    +0.000 C 
BRANCH  17  18
ATOM     18  C   UNL     1       9.124   9.694  19.126  0.00  0.00    +0.000 C 
BRANCH  18  19
ATOM     19  C   UNL     1       9.216  11.010  19.891  0.00  0.00    +0.000 C 
BRANCH  19  20
ATOM     20  N   UNL     1      10.533  11.665  19.675  0.00  0.00    +0.000 NA
ATOM     21  C   UNL     1      10.657  12.211  18.308  0.00  0.00    +0.000 C 
ATOM     22  C   UNL     1       9.837  13.502  18.135  0.00  0.00    +0.000 C 
ATOM     23  N   UNL     1      10.250  14.451  19.164  0.00  0.00    +0.000 N 
ATOM     24  C   UNL     1      10.144  13.979  20.537  0.00  0.00    +0.000 C 
ATOM     25  C   UNL     1      10.948  12.684  20.677  0.00  0.00    +0.000 C 
BRANCH  23  26
ATOM     26  C   UNL     1      10.820  15.724  18.809  0.00  0.00    +0.000 A 
ATOM     27  C   UNL     1      10.472  16.345  17.590  0.00  0.00    +0.000 A 
ATOM     28  C   UNL     1      11.042  17.561  17.214  0.00  0.00    +0.000 A 
ATOM     29  C   UNL     1      11.979  18.179  18.039  0.00  0.00    +0.000 A 
ATOM     30  C   UNL     1      12.333  17.590  19.254  0.00  0.00    +0.000 A 
ATOM     31  C   UNL     1      11.755  16.375  19.645  0.00  0.00    +0.000 A 
ENDBRANCH  23  26
ENDBRANCH  19  20
ENDBRANCH  18  19
ENDBRANCH  17  18
ENDBRANCH   1  17
TORSDOF 9
ENDMDL
MODEL 7
REMARK VINA RESULT:      -7.3      6.458     10.634
REMARK  Name = 
REMARK  11 active torsions:
REMARK  status: ('A' for Active; 'I' for Inactive)
REMARK    1  A    between atoms: C_1  and  O_2
REMARK    2  A    between atoms: O_2  and  C_3
REMARK    3  A    between atoms: C_6  and  C_7
REMARK    4  A    between atoms: C_9  and  C_10
REMARK    5  A    between atoms: C_10  and  C_11
REMARK    6  A    between atoms: C_11  and  C_12
REMARK    7  A    between atoms: C_12  and  C_13
REMARK    8  A    between atoms: C_13  and  N_14
REMARK    9  A    between atoms: N_17  and  C_18
REMARK   10  A    between atoms: C_28  and  O_29
REMARK   11  A    between atoms: O_29  and  C_30
REMARK                            x       y       z     vdW  Elec       q    Type
REMARK                         _______ _______ _______ _____ _____    ______ ____
ROOT
ATOM      1  C   UNL     1       2.406   6.400  19.892  0.00  0.00    +0.000 C 
ENDROOT
BRANCH   1   4
ATOM      2  C   UNL     1       0.904   9.642  20.307  0.00  0.00    +0.000 A 
ATOM      3  C   UNL     1       1.241   8.421  20.835  0.00  0.00    +0.000 A 
ATOM      4  C   UNL     1       1.801   7.748  19.789  0.00  0.00    +0.000 A 
ATOM      5  O   UNL     1       1.779   8.513  18.721  0.00  0.00    +0.000 OA
ATOM      6  N   UNL     1       1.256   9.674  19.003  0.00  0.00    +0.000 NA
BRANCH   2  10
ATOM      7  C   UNL     1      -0.792  12.793  22.667  0.00  0.00    +0.000 A 
ATOM      8  C   UNL     1      -1.173  11.467  22.860  0.00  0.00    +0.000 A 
ATOM      9  C   UNL     1      -0.623  10.458  22.082  0.00  0.00    +0.000 A 
ATOM     10  C   UNL     1       0.316  10.755  21.077  0.00  0.00    +0.000 A 
ATOM     11  C   UNL     1       0.697  12.093  20.853  0.00  0.00    +0.000 A 
ATOM     12  C   UNL     1       0.142  13.106  21.658  0.00  0.00    +0.000 A 
BRANCH   7  14
ATOM     13  C   UNL     1      -2.657  13.803  23.850  0.00  0.00    +0.000 C 
ATOM     14  O   UNL     1      -1.333  13.732  23.484  0.00  0.00    +0.000 OA
ENDBRANCH   7  14
BRANCH  11  15
ATOM     15  O   UNL     1       1.637  12.360  19.904  0.00  0.00    +0.000 OA
ATOM     16  C   UNL     1       2.526  13.414  19.918  0.00  0.00    +0.000 C 
ENDBRANCH  11  15
ENDBRANCH   2  10
ENDBRANCH   1   4
BRANCH   1  17
ATOM     17  C   UNL     1       1.656   5.476  20.848  0.00  0.00    +0.000 C 
BRANCH  17  18
ATOM     18  C   UNL     1       2.471   4.187  20.936  0.00  0.00    +0.000 C 
BRANCH  18  19
ATOM     19  C   UNL     1       1.968   3.052  20.049  0.00  0.00    +0.000 C 
BRANCH  19  20
ATOM     20  N   UNL     1       3.096   2.363  19.369  0.00  0.00    +0.000 NA
ATOM     21  C   UNL     1       2.844   2.190  17.924  0.00  0.00    +0.000 C 
ATOM     22  C   UNL     1       3.015   3.514  17.156  0.00  0.00    +0.000 C 
ATOM     23  N   UNL     1       4.345   4.042  17.439  0.00  0.00    +0.000 N 
ATOM     24  C   UNL     1       4.657   4.244  18.847  0.00  0.00    +0.000 C 
ATOM     25  C   UNL     1       4.457   2.921  19.592  0.00  0.00    +0.000 C 
BRANCH  23  26
ATOM     26  C   UNL     1       5.302   4.240  16.383  0.00  0.00    +0.000 A 
ATOM     27  C   UNL     1       6.579   4.770  16.669  0.00  0.00    +0.000 A 
ATOM     28  C   UNL     1       7.506   5.003  15.654  0.00  0.00    +0.000 A 
ATOM     29  C   UNL     1       7.177   4.721  14.329  0.00  0.00    +0.000 A 
ATOM     30  C   UNL     1       5.925   4.187  14.021  0.00  0.00    +0.000 A 
ATOM     31  C   UNL     1       4.994   3.939  15.038  0.00  0.00    +0.000 A 
ENDBRANCH  23  26
ENDBRANCH  19  20
ENDBRANCH  18  19
ENDBRANCH  17  18
ENDBRANCH   1  17
TORSDOF 9
ENDMDL
MODEL 8
REMARK VINA RESULT:      -7.3      6.791     10.003
REMARK  Name = 
REMARK  11 active torsions:
REMARK  status: ('A' for Active; 'I' for Inactive)
REMARK    1  A    between atoms: C_1  and  O_2
REMARK    2  A    between atoms: O_2  and  C_3
REMARK    3  A    between atoms: C_6  and  C_7
REMARK    4  A    between atoms: C_9  and  C_10
REMARK    5  A    between atoms: C_10  and  C_11
REMARK    6  A    between atoms: C_11  and  C_12
REMARK    7  A    between atoms: C_12  and  C_13
REMARK    8  A    between atoms: C_13  and  N_14
REMARK    9  A    between atoms: N_17  and  C_18
REMARK   10  A    between atoms: C_28  and  O_29
REMARK   11  A    between atoms: O_29  and  C_30
REMARK                            x       y       z     vdW  Elec       q    Type
REMARK                         _______ _______ _______ _____ _____    ______ ____
ROOT
ATOM      1  C   UNL     1       2.284   6.390  18.400  0.00  0.00    +0.000 C 
ENDROOT
BRANCH   1   4
ATOM      2  C   UNL     1       1.354   9.864  18.476  0.00  0.00    +0.000 A 
ATOM      3  C   UNL     1       1.188   8.588  18.951  0.00  0.00    +0.000 A 
ATOM      4  C   UNL     1       2.042   7.837  18.196  0.00  0.00    +0.000 A 
ATOM      5  O   UNL     1       2.650   8.614  17.330  0.00  0.00    +0.000 OA
ATOM      6  N   UNL     1       2.269   9.852  17.482  0.00  0.00    +0.000 NA
BRANCH   2  10
ATOM      7  C   UNL     1      -0.476  13.410  20.041  0.00  0.00    +0.000 A 
ATOM      8  C   UNL     1       0.848  13.096  20.336  0.00  0.00    +0.000 A 
ATOM      9  C   UNL     1       1.425  11.940  19.830  0.00  0.00    +0.000 A 
ATOM     10  C   UNL     1       0.682  11.058  19.025  0.00  0.00    +0.000 A 
ATOM     11  C   UNL     1      -0.666  11.348  18.734  0.00  0.00    +0.000 A 
ATOM     12  C   UNL     1      -1.235  12.531  19.242  0.00  0.00    +0.000 A 
BRANCH   7  14
ATOM     13  C   UNL     1      -1.382  14.784  21.827  0.00  0.00    +0.000 C 
ATOM     14  O   UNL     1      -0.975  14.574  20.530  0.00  0.00    +0.000 OA
ENDBRANCH   7  14
BRANCH  11  15
ATOM     15  O   UNL     1      -1.360  10.504  17.920  0.00  0.00    +0.000 OA
ATOM     16  C   UNL     1      -2.371  10.863  17.055  0.00  0.00    +0.000 C 
ENDBRANCH  11  15
ENDBRANCH   2  10
ENDBRANCH   1   4
BRANCH   1  17
ATOM     17  C   UNL     1       2.592   6.031  19.852  0.00  0.00    +0.000 C 
BRANCH  17  18
ATOM     18  C   UNL     1       3.690   4.969  19.813  0.00  0.00    +0.000 C 
BRANCH  18  19
ATOM     19  C   UNL     1       5.014   5.442  19.223  0.00  0.00    +0.000 C 
BRANCH  19  20
ATOM     20  N   UNL     1       5.680   4.354  18.460  0.00  0.00    +0.000 NA
ATOM     21  C   UNL     1       4.781   3.762  17.449  0.00  0.00    +0.000 C 
ATOM     22  C   UNL     1       4.605   4.689  16.232  0.00  0.00    +0.000 C 
ATOM     23  N   UNL     1       5.927   5.005  15.699  0.00  0.00    +0.000 N 
ATOM     24  C   UNL     1       6.862   5.599  16.643  0.00  0.00    +0.000 C 
ATOM     25  C   UNL     1       7.001   4.671  17.852  0.00  0.00    +0.000 C 
BRANCH  23  26
ATOM     26  C   UNL     1       6.287   4.642  14.354  0.00  0.00    +0.000 A 
ATOM     27  C   UNL     1       5.513   3.703  13.638  0.00  0.00    +0.000 A 
ATOM     28  C   UNL     1       5.869   3.312  12.348  0.00  0.00    +0.000 A 
ATOM     29  C   UNL     1       7.008   3.842  11.746  0.00  0.00    +0.000 A 
ATOM     30  C   UNL     1       7.784   4.779  12.428  0.00  0.00    +0.000 A 
ATOM     31  C   UNL     1       7.427   5.185  13.720  0.00  0.00    +0.000 A 
ENDBRANCH  23  26
ENDBRANCH  19  20
ENDBRANCH  18  19
ENDBRANCH  17  18
ENDBRANCH   1  17
TORSDOF 9
ENDMDL
MODEL 9
REMARK VINA RESULT:      -7.2      5.598      7.806
REMARK  Name = 
REMARK  11 active torsions:
REMARK  status: ('A' for Active; 'I' for Inactive)
REMARK    1  A    between atoms: C_1  and  O_2
REMARK    2  A    between atoms: O_2  and  C_3
REMARK    3  A    between atoms: C_6  and  C_7
REMARK    4  A    between atoms: C_9  and  C_10
REMARK    5  A    between atoms: C_10  and  C_11
REMARK    6  A    between atoms: C_11  and  C_12
REMARK    7  A    between atoms: C_12  and  C_13
REMARK    8  A    between atoms: C_13  and  N_14
REMARK    9  A    between atoms: N_17  and  C_18
REMARK   10  A    between atoms: C_28  and  O_29
REMARK   11  A    between atoms: O_29  and  C_30
REMARK                            x       y       z     vdW  Elec       q    Type
REMARK                         _______ _______ _______ _____ _____    ______ ____
ROOT
ATOM      1  C   UNL     1       1.072   9.018  20.364  0.00  0.00    +0.000 C 
ENDROOT
BRANCH   1   4
ATOM      2  C   UNL     1       2.882   6.316  18.827  0.00  0.00    +0.000 A 
ATOM      3  C   UNL     1       2.344   7.575  18.741  0.00  0.00    +0.000 A 
ATOM      4  C   UNL     1       1.728   7.757  19.945  0.00  0.00    +0.000 A 
ATOM      5  O   UNL     1       1.880   6.677  20.676  0.00  0.00    +0.000 OA
ATOM      6  N   UNL     1       2.588   5.789  20.035  0.00  0.00    +0.000 NA
BRANCH   2  10
ATOM      7  C   UNL     1       5.393   4.573  15.821  0.00  0.00    +0.000 A 
ATOM      8  C   UNL     1       5.343   5.953  16.002  0.00  0.00    +0.000 A 
ATOM      9  C   UNL     1       4.517   6.504  16.972  0.00  0.00    +0.000 A 
ATOM     10  C   UNL     1       3.709   5.684  17.780  0.00  0.00    +0.000 A 
ATOM     11  C   UNL     1       3.730   4.287  17.597  0.00  0.00    +0.000 A 
ATOM     12  C   UNL     1       4.582   3.740  16.618  0.00  0.00    +0.000 A 
BRANCH   7  14
ATOM     13  C   UNL     1       6.978   4.849  14.002  0.00  0.00    +0.000 C 
ATOM     14  O   UNL     1       6.248   4.088  14.885  0.00  0.00    +0.000 OA
ENDBRANCH   7  14
BRANCH  11  15
ATOM     15  O   UNL     1       2.972   3.504  18.413  0.00  0.00    +0.000 OA
ATOM     16  C   UNL     1       1.791   2.882  18.070  0.00  0.00    +0.000 C 
ENDBRANCH  11  15
ENDBRANCH   2  10
ENDBRANCH   1   4
BRANCH   1  17
ATOM     17  C   UNL     1       0.418   8.926  21.740  0.00  0.00    +0.000 C 
BRANCH  17  18
ATOM     18  C   UNL     1      -0.294  10.258  21.972  0.00  0.00    +0.000 C 
BRANCH  18  19
ATOM     19  C   UNL     1      -0.924  10.870  20.725  0.00  0.00    +0.000 C 
BRANCH  19  20
ATOM     20  N   UNL     1      -0.910  12.355  20.792  0.00  0.00    +0.000 NA
ATOM     21  C   UNL     1       0.366  12.868  21.331  0.00  0.00    +0.000 C 
ATOM     22  C   UNL     1       1.502  12.770  20.296  0.00  0.00    +0.000 C 
ATOM     23  N   UNL     1       1.080  13.463  19.083  0.00  0.00    +0.000 N 
ATOM     24  C   UNL     1      -0.168  13.000  18.493  0.00  0.00    +0.000 C 
ATOM     25  C   UNL     1      -1.275  13.086  19.548  0.00  0.00    +0.000 C 
BRANCH  23  26
ATOM     26  C   UNL     1       1.814  14.597  18.586  0.00  0.00    +0.000 A 
ATOM     27  C   UNL     1       1.248  15.889  18.634  0.00  0.00    +0.000 A 
ATOM     28  C   UNL     1       1.931  16.993  18.124  0.00  0.00    +0.000 A 
ATOM     29  C   UNL     1       3.188  16.832  17.547  0.00  0.00    +0.000 A 
ATOM     30  C   UNL     1       3.774  15.567  17.496  0.00  0.00    +0.000 A 
ATOM     31  C   UNL     1       3.100  14.455  18.018  0.00  0.00    +0.000 A 
ENDBRANCH  23  26
ENDBRANCH  19  20
ENDBRANCH  18  19
ENDBRANCH  17  18
ENDBRANCH   1  17
TORSDOF 9
ENDMDL
