MODEL 1
REMARK VINA RESULT:     -10.0      0.000      0.000
REMARK  Name = 
REMARK  3 active torsions:
REMARK  status: ('A' for Active; 'I' for Inactive)
REMARK    1  A    between atoms: C_2  and  C_3
REMARK    2  A    between atoms: C_7  and  N_8
REMARK    3  A    between atoms: C_13  and  C_14
REMARK                            x       y       z     vdW  Elec       q    Type
REMARK                         _______ _______ _______ _____ _____    ______ ____
ROOT
ATOM      1  C   UNL     1       0.162  11.630  19.250  0.00  0.00    +0.000 A 
ATOM      2  C   UNL     1       0.139  10.782  20.342  0.00  0.00    +0.000 A 
ATOM      3  C   UNL     1       0.858   9.613  20.021  0.00  0.00    +0.000 A 
ATOM      4  C   UNL     1       1.196   8.467  20.759  0.00  0.00    +0.000 A 
ATOM      5  C   UNL     1       1.830   7.394  20.128  0.00  0.00    +0.000 A 
ATOM      6  C   UNL     1       2.209   7.550  18.789  0.00  0.00    +0.000 A 
ATOM      7  C   UNL     1       1.912   8.694  18.032  0.00  0.00    +0.000 A 
ATOM      8  C   UNL     1       1.222   9.711  18.687  0.00  0.00    +0.000 A 
ATOM      9  N   UNL     1       0.767  10.928  18.229  0.00  0.00    +0.000 N 
ATOM     10  H   UNL     1       0.870  11.274  17.284  0.00  0.00    +0.000 HD
ENDROOT
BRANCH   1  12
ATOM     11  O   UNL     1      -1.611  13.134  19.110  0.00  0.00    +0.000 OA
ATOM     12  C   UNL     1      -0.397  12.951  19.081  0.00  0.00    +0.000 C 
ATOM     13  N   UNL     1       0.492  14.008  18.924  0.00  0.00    +0.000 N 
ATOM     14  C   UNL     1       0.038  15.382  19.120  0.00  0.00    +0.000 C 
ATOM     15  C   UNL     1       0.932  16.096  20.141  0.00  0.00    +0.000 C 
ATOM     16  N   UNL     1       2.331  15.747  19.973  0.00  0.00    +0.000 N 
ATOM     17  C   UNL     1       3.407  16.312  20.591  0.00  0.00    +0.000 A 
ATOM     18  C   UNL     1       4.484  15.568  20.166  0.00  0.00    +0.000 A 
ATOM     19  N   UNL     1       4.085  14.575  19.307  0.00  0.00    +0.000 NA
ATOM     20  C   UNL     1       2.780  14.703  19.199  0.00  0.00    +0.000 A 
ATOM     21  C   UNL     1       1.845  13.894  18.368  0.00  0.00    +0.000 C 
ENDBRANCH   1  12
BRANCH   5  22
ATOM     22  N   UNL     1       2.060   6.225  20.878  0.00  0.00    +0.000 N 
ATOM     23  C   UNL     1       2.764   5.080  20.496  0.00  0.00    +0.000 A 
ATOM     24  N   UNL     1       2.365   3.928  21.050  0.00  0.00    +0.000 NA
ATOM     25  C   UNL     1       2.962   2.806  20.607  0.00  0.00    +0.000 A 
ATOM     26  C   UNL     1       3.939   2.794  19.643  0.00  0.00    +0.000 A 
ATOM     27  C   UNL     1       4.314   4.021  19.137  0.00  0.00    +0.000 A 
ATOM     28  N   UNL     1       3.730   5.155  19.576  0.00  0.00    +0.000 NA
ATOM     29  H   UNL     1       1.280   5.917  21.444  0.00  0.00    +0.000 HD
BRANCH  27  30
ATOM     30  C   UNL     1       5.330   4.185  18.075  0.00  0.00    +0.000 A 
ATOM     31  C   UNL     1       5.023   4.038  16.715  0.00  0.00    +0.000 A 
ATOM     32  C   UNL     1       6.026   4.169  15.758  0.00  0.00    +0.000 A 
ATOM     33  C   UNL     1       7.313   4.452  16.169  0.00  0.00    +0.000 A 
ATOM     34  C   UNL     1       7.547   4.594  17.528  0.00  0.00    +0.000 A 
ATOM     35  N   UNL     1       6.596   4.468  18.480  0.00  0.00    +0.000 NA
ENDBRANCH  27  30
ENDBRANCH   5  22
TORSDOF 3
ENDMDL
MODEL 2
REMARK VINA RESULT:      -9.7      2.252      3.327
REMARK  Name = 
REMARK  3 active torsions:
REMARK  status: ('A' for Active; 'I' for Inactive)
REMARK    1  A    between atoms: C_2  and  C_3
REMARK    2  A    between atoms: C_7  and  N_8
REMARK    3  A    between atoms: C_13  and  C_14
REMARK                            x       y       z     vdW  Elec       q    Type
REMARK                         _______ _______ _______ _____ _____    ______ ____
ROOT
ATOM      1  C   UNL     1       0.155  11.628  19.445  0.00  0.00    +0.000 A 
ATOM      2  C   UNL     1       0.113  10.728  20.493  0.00  0.00    +0.000 A 
ATOM      3  C   UNL     1       0.854   9.584  20.137  0.00  0.00    +0.000 A 
ATOM      4  C   UNL     1       1.186   8.406  20.827  0.00  0.00    +0.000 A 
ATOM      5  C   UNL     1       1.850   7.372  20.163  0.00  0.00    +0.000 A 
ATOM      6  C   UNL     1       2.265   7.598  18.844  0.00  0.00    +0.000 A 
ATOM      7  C   UNL     1       1.975   8.774  18.136  0.00  0.00    +0.000 A 
ATOM      8  C   UNL     1       1.254   9.751  18.820  0.00  0.00    +0.000 A 
ATOM      9  N   UNL     1       0.797  10.983  18.408  0.00  0.00    +0.000 N 
ATOM     10  H   UNL     1       0.922  11.376  17.484  0.00  0.00    +0.000 HD
ENDROOT
BRANCH   1  12
ATOM     11  O   UNL     1      -0.343  13.577  18.271  0.00  0.00    +0.000 OA
ATOM     12  C   UNL     1      -0.415  12.950  19.324  0.00  0.00    +0.000 C 
ATOM     13  N   UNL     1      -1.080  13.464  20.432  0.00  0.00    +0.000 N 
ATOM     14  C   UNL     1      -1.984  14.601  20.280  0.00  0.00    +0.000 C 
ATOM     15  C   UNL     1      -3.361  14.265  20.865  0.00  0.00    +0.000 C 
ATOM     16  N   UNL     1      -3.256  13.504  22.097  0.00  0.00    +0.000 N 
ATOM     17  C   UNL     1      -4.259  13.180  22.960  0.00  0.00    +0.000 A 
ATOM     18  C   UNL     1      -3.662  12.378  23.906  0.00  0.00    +0.000 A 
ATOM     19  N   UNL     1      -2.326  12.215  23.636  0.00  0.00    +0.000 NA
ATOM     20  C   UNL     1      -2.099  12.909  22.540  0.00  0.00    +0.000 A 
ATOM     21  C   UNL     1      -0.804  13.094  21.825  0.00  0.00    +0.000 C 
ENDBRANCH   1  12
BRANCH   5  22
ATOM     22  N   UNL     1       2.074   6.170  20.861  0.00  0.00    +0.000 N 
ATOM     23  C   UNL     1       2.749   5.030  20.420  0.00  0.00    +0.000 A 
ATOM     24  N   UNL     1       2.340   3.864  20.936  0.00  0.00    +0.000 NA
ATOM     25  C   UNL     1       2.907   2.750  20.437  0.00  0.00    +0.000 A 
ATOM     26  C   UNL     1       3.865   2.759  19.453  0.00  0.00    +0.000 A 
ATOM     27  C   UNL     1       4.252   3.998  18.988  0.00  0.00    +0.000 A 
ATOM     28  N   UNL     1       3.697   5.124  19.483  0.00  0.00    +0.000 NA
ATOM     29  H   UNL     1       1.301   5.854  21.431  0.00  0.00    +0.000 HD
BRANCH  27  30
ATOM     30  C   UNL     1       5.249   4.186  17.912  0.00  0.00    +0.000 A 
ATOM     31  C   UNL     1       4.918   4.070  16.555  0.00  0.00    +0.000 A 
ATOM     32  C   UNL     1       5.903   4.223  15.584  0.00  0.00    +0.000 A 
ATOM     33  C   UNL     1       7.198   4.497  15.979  0.00  0.00    +0.000 A 
ATOM     34  C   UNL     1       7.456   4.608  17.336  0.00  0.00    +0.000 A 
ATOM     35  N   UNL     1       6.522   4.460  18.302  0.00  0.00    +0.000 NA
ENDBRANCH  27  30
ENDBRANCH   5  22
TORSDOF 3
ENDMDL
MODEL 3
REMARK VINA RESULT:      -9.6      2.406      9.790
REMARK  Name = 
REMARK  3 active torsions:
REMARK  status: ('A' for Active; 'I' for Inactive)
REMARK    1  A    between atoms: C_2  and  C_3
REMARK    2  A    between atoms: C_7  and  N_8
REMARK    3  A    between atoms: C_13  and  C_14
REMARK                            x       y       z     vdW  Elec       q    Type
REMARK                         _______ _______ _______ _____ _____    ______ ____
ROOT
ATOM      1  C   UNL     1       3.142   6.960  18.132  0.00  0.00    +0.000 A 
ATOM      2  C   UNL     1       2.807   8.045  17.343  0.00  0.00    +0.000 A 
ATOM      3  C   UNL     1       2.055   8.951  18.116  0.00  0.00    +0.000 A 
ATOM      4  C   UNL     1       1.514  10.219  17.846  0.00  0.00    +0.000 A 
ATOM      5  C   UNL     1       0.696  10.844  18.790  0.00  0.00    +0.000 A 
ATOM      6  C   UNL     1       0.534  10.222  20.034  0.00  0.00    +0.000 A 
ATOM      7  C   UNL     1       1.085   8.970  20.346  0.00  0.00    +0.000 A 
ATOM      8  C   UNL     1       1.840   8.356  19.350  0.00  0.00    +0.000 A 
ATOM      9  N   UNL     1       2.483   7.137  19.331  0.00  0.00    +0.000 N 
ATOM     10  H   UNL     1       2.489   6.466  20.088  0.00  0.00    +0.000 HD
ENDROOT
BRANCH   1  12
ATOM     11  O   UNL     1       4.970   5.871  17.188  0.00  0.00    +0.000 OA
ATOM     12  C   UNL     1       3.923   5.785  17.823  0.00  0.00    +0.000 C 
ATOM     13  N   UNL     1       3.465   4.565  18.306  0.00  0.00    +0.000 N 
ATOM     14  C   UNL     1       4.363   3.415  18.360  0.00  0.00    +0.000 C 
ATOM     15  C   UNL     1       4.386   2.827  19.776  0.00  0.00    +0.000 C 
ATOM     16  N   UNL     1       3.067   2.823  20.384  0.00  0.00    +0.000 N 
ATOM     17  C   UNL     1       2.695   2.233  21.554  0.00  0.00    +0.000 A 
ATOM     18  C   UNL     1       1.380   2.601  21.728  0.00  0.00    +0.000 A 
ATOM     19  N   UNL     1       0.952   3.393  20.692  0.00  0.00    +0.000 NA
ATOM     20  C   UNL     1       1.986   3.511  19.886  0.00  0.00    +0.000 A 
ATOM     21  C   UNL     1       2.061   4.248  18.593  0.00  0.00    +0.000 C 
ENDBRANCH   1  12
BRANCH   5  22
ATOM     22  N   UNL     1       0.092  12.066  18.439  0.00  0.00    +0.000 N 
ATOM     23  C   UNL     1       0.601  13.357  18.598  0.00  0.00    +0.000 A 
ATOM     24  N   UNL     1      -0.300  14.331  18.781  0.00  0.00    +0.000 NA
ATOM     25  C   UNL     1       0.183  15.559  19.045  0.00  0.00    +0.000 A 
ATOM     26  C   UNL     1       1.523  15.849  19.128  0.00  0.00    +0.000 A 
ATOM     27  C   UNL     1       2.390  14.800  18.905  0.00  0.00    +0.000 A 
ATOM     28  N   UNL     1       1.921  13.565  18.632  0.00  0.00    +0.000 NA
ATOM     29  H   UNL     1      -0.904  12.119  18.610  0.00  0.00    +0.000 HD
BRANCH  27  30
ATOM     30  C   UNL     1       3.861  14.932  18.983  0.00  0.00    +0.000 A 
ATOM     31  C   UNL     1       4.678  14.895  17.845  0.00  0.00    +0.000 A 
ATOM     32  C   UNL     1       6.061  14.989  17.979  0.00  0.00    +0.000 A 
ATOM     33  C   UNL     1       6.605  15.128  19.241  0.00  0.00    +0.000 A 
ATOM     34  C   UNL     1       5.740  15.168  20.323  0.00  0.00    +0.000 A 
ATOM     35  N   UNL     1       4.395  15.074  20.225  0.00  0.00    +0.000 NA
ENDBRANCH  27  30
ENDBRANCH   5  22
TORSDOF 3
ENDMDL
MODEL 4
REMARK VINA RESULT:      -9.6      2.284      9.887
REMARK  Name = 
REMARK  3 active torsions:
REMARK  status: ('A' for Active; 'I' for Inactive)
REMARK    1  A    between atoms: C_2  and  C_3
REMARK    2  A    between atoms: C_7  and  N_8
REMARK    3  A    between atoms: C_13  and  C_14
REMARK                            x       y       z     vdW  Elec       q    Type
REMARK                         _______ _______ _______ _____ _____    ______ ____
ROOT
ATOM      1  C   UNL     1       2.613   7.530  18.424  0.00  0.00    +0.000 A 
ATOM      2  C   UNL     1       1.957   8.560  17.775  0.00  0.00    +0.000 A 
ATOM      3  C   UNL     1       1.288   9.345  18.736  0.00  0.00    +0.000 A 
ATOM      4  C   UNL     1       0.529  10.523  18.646  0.00  0.00    +0.000 A 
ATOM      5  C   UNL     1      -0.125  11.019  19.777  0.00  0.00    +0.000 A 
ATOM      6  C   UNL     1       0.096  10.372  21.000  0.00  0.00    +0.000 A 
ATOM      7  C   UNL     1       0.872   9.210  21.128  0.00  0.00    +0.000 A 
ATOM      8  C   UNL     1       1.451   8.717  19.961  0.00  0.00    +0.000 A 
ATOM      9  N   UNL     1       2.234   7.604  19.748  0.00  0.00    +0.000 N 
ATOM     10  H   UNL     1       2.509   6.936  20.456  0.00  0.00    +0.000 HD
ENDROOT
BRANCH   1  12
ATOM     11  O   UNL     1       4.418   6.741  17.180  0.00  0.00    +0.000 OA
ATOM     12  C   UNL     1       3.456   6.481  17.897  0.00  0.00    +0.000 C 
ATOM     13  N   UNL     1       3.158   5.174  18.266  0.00  0.00    +0.000 N 
ATOM     14  C   UNL     1       4.153   4.120  18.091  0.00  0.00    +0.000 C 
ATOM     15  C   UNL     1       4.379   3.378  19.414  0.00  0.00    +0.000 C 
ATOM     16  N   UNL     1       3.138   3.175  20.140  0.00  0.00    +0.000 N 
ATOM     17  C   UNL     1       2.945   2.420  21.258  0.00  0.00    +0.000 A 
ATOM     18  C   UNL     1       1.629   2.634  21.602  0.00  0.00    +0.000 A 
ATOM     19  N   UNL     1       1.026   3.494  20.718  0.00  0.00    +0.000 NA
ATOM     20  C   UNL     1       1.954   3.805  19.838  0.00  0.00    +0.000 A 
ATOM     21  C   UNL     1       1.826   4.689  18.645  0.00  0.00    +0.000 C 
ENDBRANCH   1  12
BRANCH   5  22
ATOM     22  N   UNL     1      -0.957  12.144  19.623  0.00  0.00    +0.000 N 
ATOM     23  C   UNL     1      -0.595  13.493  19.637  0.00  0.00    +0.000 A 
ATOM     24  N   UNL     1      -1.524  14.350  20.077  0.00  0.00    +0.000 NA
ATOM     25  C   UNL     1      -1.149  15.638  20.199  0.00  0.00    +0.000 A 
ATOM     26  C   UNL     1       0.109  16.096  19.895  0.00  0.00    +0.000 A 
ATOM     27  C   UNL     1       1.004  15.158  19.425  0.00  0.00    +0.000 A 
ATOM     28  N   UNL     1       0.641  13.866  19.290  0.00  0.00    +0.000 NA
ATOM     29  H   UNL     1      -1.860  12.076  20.073  0.00  0.00    +0.000 HD
BRANCH  27  30
ATOM     30  C   UNL     1       2.406  15.477  19.078  0.00  0.00    +0.000 A 
ATOM     31  C   UNL     1       3.132  14.735  18.136  0.00  0.00    +0.000 A 
ATOM     32  C   UNL     1       4.461  15.057  17.872  0.00  0.00    +0.000 A 
ATOM     33  C   UNL     1       5.041  16.116  18.543  0.00  0.00    +0.000 A 
ATOM     34  C   UNL     1       4.264  16.814  19.455  0.00  0.00    +0.000 A 
ATOM     35  N   UNL     1       2.975  16.522  19.735  0.00  0.00    +0.000 NA
ENDBRANCH  27  30
ENDBRANCH   5  22
TORSDOF 3
ENDMDL
MODEL 5
REMARK VINA RESULT:      -9.4      3.824      5.784
REMARK  Name = 
REMARK  3 active torsions:
REMARK  status: ('A' for Active; 'I' for Inactive)
REMARK    1  A    between atoms: C_2  and  C_3
REMARK    2  A    between atoms: C_7  and  N_8
REMARK    3  A    between atoms: C_13  and  C_14
REMARK                            x       y       z     vdW  Elec       q    Type
REMARK                         _______ _______ _______ _____ _____    ______ ____
ROOT
ATOM      1  C   UNL     1      -0.871  12.617  22.514  0.00  0.00    +0.000 A 
ATOM      2  C   UNL     1      -0.303  12.725  21.258  0.00  0.00    +0.000 A 
ATOM      3  C   UNL     1       0.110  11.445  20.837  0.00  0.00    +0.000 A 
ATOM      4  C   UNL     1       0.684  10.970  19.647  0.00  0.00    +0.000 A 
ATOM      5  C   UNL     1       1.104   9.640  19.558  0.00  0.00    +0.000 A 
ATOM      6  C   UNL     1       0.831   8.791  20.638  0.00  0.00    +0.000 A 
ATOM      7  C   UNL     1       0.232   9.228  21.829  0.00  0.00    +0.000 A 
ATOM      8  C   UNL     1      -0.111  10.577  21.895  0.00  0.00    +0.000 A 
ATOM      9  N   UNL     1      -0.680  11.310  22.913  0.00  0.00    +0.000 N 
ATOM     10  H   UNL     1      -0.938  10.950  23.822  0.00  0.00    +0.000 HD
ENDROOT
BRANCH   1  12
ATOM     11  O   UNL     1      -0.774  14.435  23.967  0.00  0.00    +0.000 OA
ATOM     12  C   UNL     1      -1.468  13.624  23.359  0.00  0.00    +0.000 C 
ATOM     13  N   UNL     1      -2.856  13.664  23.426  0.00  0.00    +0.000 N 
ATOM     14  C   UNL     1      -3.531  14.852  23.942  0.00  0.00    +0.000 C 
ATOM     15  C   UNL     1      -4.567  15.356  22.930  0.00  0.00    +0.000 C 
ATOM     16  N   UNL     1      -5.278  14.263  22.292  0.00  0.00    +0.000 N 
ATOM     17  C   UNL     1      -6.364  14.346  21.473  0.00  0.00    +0.000 A 
ATOM     18  C   UNL     1      -6.593  13.052  21.063  0.00  0.00    +0.000 A 
ATOM     19  N   UNL     1      -5.676  12.194  21.617  0.00  0.00    +0.000 NA
ATOM     20  C   UNL     1      -4.892  12.945  22.362  0.00  0.00    +0.000 A 
ATOM     21  C   UNL     1      -3.742  12.515  23.207  0.00  0.00    +0.000 C 
ENDBRANCH   1  12
BRANCH   5  22
ATOM     22  N   UNL     1       1.767   9.231  18.385  0.00  0.00    +0.000 N 
ATOM     23  C   UNL     1       2.435   8.027  18.148  0.00  0.00    +0.000 A 
ATOM     24  N   UNL     1       3.456   8.078  17.283  0.00  0.00    +0.000 NA
ATOM     25  C   UNL     1       4.175   6.950  17.130  0.00  0.00    +0.000 A 
ATOM     26  C   UNL     1       3.911   5.782  17.802  0.00  0.00    +0.000 A 
ATOM     27  C   UNL     1       2.830   5.801  18.659  0.00  0.00    +0.000 A 
ATOM     28  N   UNL     1       2.095   6.921  18.816  0.00  0.00    +0.000 NA
ATOM     29  H   UNL     1       2.287   9.956  17.909  0.00  0.00    +0.000 HD
BRANCH  27  30
ATOM     30  C   UNL     1       2.425   4.639  19.479  0.00  0.00    +0.000 A 
ATOM     31  C   UNL     1       2.326   4.706  20.875  0.00  0.00    +0.000 A 
ATOM     32  C   UNL     1       1.973   3.572  21.602  0.00  0.00    +0.000 A 
ATOM     33  C   UNL     1       1.717   2.395  20.927  0.00  0.00    +0.000 A 
ATOM     34  C   UNL     1       1.824   2.399  19.545  0.00  0.00    +0.000 A 
ATOM     35  N   UNL     1       2.169   3.482  18.813  0.00  0.00    +0.000 NA
ENDBRANCH  27  30
ENDBRANCH   5  22
TORSDOF 3
ENDMDL
MODEL 6
REMARK VINA RESULT:      -9.3      1.016      1.142
REMARK  Name = 
REMARK  3 active torsions:
REMARK  status: ('A' for Active; 'I' for Inactive)
REMARK    1  A    between atoms: C_2  and  C_3
REMARK    2  A    between atoms: C_7  and  N_8
REMARK    3  A    between atoms: C_13  and  C_14
REMARK                            x       y       z     vdW  Elec       q    Type
REMARK                         _______ _______ _______ _____ _____    ______ ____
ROOT
ATOM      1  C   UNL     1      -0.247  11.707  19.589  0.00  0.00    +0.000 A 
ATOM      2  C   UNL     1      -0.083  10.780  20.602  0.00  0.00    +0.000 A 
ATOM      3  C   UNL     1       0.719   9.725  20.123  0.00  0.00    +0.000 A 
ATOM      4  C   UNL     1       1.238   8.569  20.727  0.00  0.00    +0.000 A 
ATOM      5  C   UNL     1       1.919   7.624  19.956  0.00  0.00    +0.000 A 
ATOM      6  C   UNL     1       2.158   7.924  18.609  0.00  0.00    +0.000 A 
ATOM      7  C   UNL     1       1.678   9.084  17.982  0.00  0.00    +0.000 A 
ATOM      8  C   UNL     1       0.949   9.965  18.777  0.00  0.00    +0.000 A 
ATOM      9  N   UNL     1       0.332  11.157  18.465  0.00  0.00    +0.000 N 
ATOM     10  H   UNL     1       0.313  11.585  17.548  0.00  0.00    +0.000 HD
ENDROOT
BRANCH   1  12
ATOM     11  O   UNL     1      -2.174  13.011  19.681  0.00  0.00    +0.000 OA
ATOM     12  C   UNL     1      -0.951  12.968  19.582  0.00  0.00    +0.000 C 
ATOM     13  N   UNL     1      -0.189  14.128  19.500  0.00  0.00    +0.000 N 
ATOM     14  C   UNL     1      -0.775  15.416  19.856  0.00  0.00    +0.000 C 
ATOM     15  C   UNL     1       0.090  16.121  20.908  0.00  0.00    +0.000 C 
ATOM     16  N   UNL     1       1.508  15.948  20.646  0.00  0.00    +0.000 N 
ATOM     17  C   UNL     1       2.549  16.565  21.274  0.00  0.00    +0.000 A 
ATOM     18  C   UNL     1       3.675  15.991  20.730  0.00  0.00    +0.000 A 
ATOM     19  N   UNL     1       3.339  15.049  19.790  0.00  0.00    +0.000 NA
ATOM     20  C   UNL     1       2.023  15.042  19.750  0.00  0.00    +0.000 A 
ATOM     21  C   UNL     1       1.138  14.220  18.878  0.00  0.00    +0.000 C 
ENDBRANCH   1  12
BRANCH   5  22
ATOM     22  N   UNL     1       2.335   6.432  20.580  0.00  0.00    +0.000 N 
ATOM     23  C   UNL     1       2.940   5.318  19.994  0.00  0.00    +0.000 A 
ATOM     24  N   UNL     1       2.698   4.137  20.578  0.00  0.00    +0.000 NA
ATOM     25  C   UNL     1       3.184   3.045  19.959  0.00  0.00    +0.000 A 
ATOM     26  C   UNL     1       3.903   3.090  18.790  0.00  0.00    +0.000 A 
ATOM     27  C   UNL     1       4.132   4.343  18.261  0.00  0.00    +0.000 A 
ATOM     28  N   UNL     1       3.657   5.447  18.873  0.00  0.00    +0.000 NA
ATOM     29  H   UNL     1       1.717   6.087  21.303  0.00  0.00    +0.000 HD
BRANCH  27  30
ATOM     30  C   UNL     1       4.862   4.568  16.995  0.00  0.00    +0.000 A 
ATOM     31  C   UNL     1       4.914   5.822  16.373  0.00  0.00    +0.000 A 
ATOM     32  C   UNL     1       5.587   5.971  15.163  0.00  0.00    +0.000 A 
ATOM     33  C   UNL     1       6.204   4.872  14.599  0.00  0.00    +0.000 A 
ATOM     34  C   UNL     1       6.123   3.662  15.271  0.00  0.00    +0.000 A 
ATOM     35  N   UNL     1       5.473   3.486  16.443  0.00  0.00    +0.000 NA
ENDBRANCH  27  30
ENDBRANCH   5  22
TORSDOF 3
ENDMDL
MODEL 7
REMARK VINA RESULT:      -9.2      2.219      9.413
REMARK  Name = 
REMARK  3 active torsions:
REMARK  status: ('A' for Active; 'I' for Inactive)
REMARK    1  A    between atoms: C_2  and  C_3
REMARK    2  A    between atoms: C_7  and  N_8
REMARK    3  A    between atoms: C_13  and  C_14
REMARK                            x       y       z     vdW  Elec       q    Type
REMARK                         _______ _______ _______ _____ _____    ______ ____
ROOT
ATOM      1  C   UNL     1       2.372   6.541  19.844  0.00  0.00    +0.000 A 
ATOM      2  C   UNL     1       2.080   7.347  18.759  0.00  0.00    +0.000 A 
ATOM      3  C   UNL     1       1.586   8.579  19.230  0.00  0.00    +0.000 A 
ATOM      4  C   UNL     1       1.195   9.762  18.583  0.00  0.00    +0.000 A 
ATOM      5  C   UNL     1       0.623  10.803  19.318  0.00  0.00    +0.000 A 
ATOM      6  C   UNL     1       0.562  10.668  20.711  0.00  0.00    +0.000 A 
ATOM      7  C   UNL     1       0.972   9.511  21.391  0.00  0.00    +0.000 A 
ATOM      8  C   UNL     1       1.476   8.474  20.608  0.00  0.00    +0.000 A 
ATOM      9  N   UNL     1       1.931   7.223  20.959  0.00  0.00    +0.000 N 
ATOM     10  H   UNL     1       1.955   6.850  21.900  0.00  0.00    +0.000 HD
ENDROOT
BRANCH   1  12
ATOM     11  O   UNL     1       2.453   4.355  20.643  0.00  0.00    +0.000 OA
ATOM     12  C   UNL     1       2.926   5.208  19.897  0.00  0.00    +0.000 C 
ATOM     13  N   UNL     1       3.985   4.920  19.044  0.00  0.00    +0.000 N 
ATOM     14  C   UNL     1       4.347   3.533  18.769  0.00  0.00    +0.000 C 
ATOM     15  C   UNL     1       4.374   3.280  17.257  0.00  0.00    +0.000 C 
ATOM     16  N   UNL     1       4.945   4.400  16.531  0.00  0.00    +0.000 N 
ATOM     17  C   UNL     1       5.269   4.452  15.208  0.00  0.00    +0.000 A 
ATOM     18  C   UNL     1       5.679   5.750  14.999  0.00  0.00    +0.000 A 
ATOM     19  N   UNL     1       5.613   6.477  16.161  0.00  0.00    +0.000 NA
ATOM     20  C   UNL     1       5.172   5.641  17.078  0.00  0.00    +0.000 A 
ATOM     21  C   UNL     1       4.940   5.907  18.526  0.00  0.00    +0.000 C 
ENDBRANCH   1  12
BRANCH   5  22
ATOM     22  N   UNL     1       0.152  11.930  18.618  0.00  0.00    +0.000 N 
ATOM     23  C   UNL     1       0.701  13.214  18.580  0.00  0.00    +0.000 A 
ATOM     24  N   UNL     1      -0.162  14.221  18.397  0.00  0.00    +0.000 NA
ATOM     25  C   UNL     1       0.341  15.468  18.469  0.00  0.00    +0.000 A 
ATOM     26  C   UNL     1       1.664  15.742  18.711  0.00  0.00    +0.000 A 
ATOM     27  C   UNL     1       2.496  14.653  18.866  0.00  0.00    +0.000 A 
ATOM     28  N   UNL     1       2.008  13.397  18.789  0.00  0.00    +0.000 NA
ATOM     29  H   UNL     1      -0.854  12.038  18.605  0.00  0.00    +0.000 HD
BRANCH  27  30
ATOM     30  C   UNL     1       3.940  14.770  19.159  0.00  0.00    +0.000 A 
ATOM     31  C   UNL     1       4.430  14.925  20.463  0.00  0.00    +0.000 A 
ATOM     32  C   UNL     1       5.798  15.066  20.680  0.00  0.00    +0.000 A 
ATOM     33  C   UNL     1       6.655  15.041  19.597  0.00  0.00    +0.000 A 
ATOM     34  C   UNL     1       6.106  14.873  18.335  0.00  0.00    +0.000 A 
ATOM     35  N   UNL     1       4.784  14.740  18.093  0.00  0.00    +0.000 NA
ENDBRANCH  27  30
ENDBRANCH   5  22
TORSDOF 3
ENDMDL
MODEL 8
REMARK VINA RESULT:      -9.2      2.245      9.589
REMARK  Name = 
REMARK  3 active torsions:
REMARK  status: ('A' for Active; 'I' for Inactive)
REMARK    1  A    between atoms: C_2  and  C_3
REMARK    2  A    between atoms: C_7  and  N_8
REMARK    3  A    between atoms: C_13  and  C_14
REMARK                            x       y       z     vdW  Elec       q    Type
REMARK                         _______ _______ _______ _____ _____    ______ ____
ROOT
ATOM      1  C   UNL     1       2.440   6.264  19.724  0.00  0.00    +0.000 A 
ATOM      2  C   UNL     1       2.332   7.149  18.667  0.00  0.00    +0.000 A 
ATOM      3  C   UNL     1       1.824   8.371  19.150  0.00  0.00    +0.000 A 
ATOM      4  C   UNL     1       1.570   9.609  18.538  0.00  0.00    +0.000 A 
ATOM      5  C   UNL     1       0.941  10.628  19.259  0.00  0.00    +0.000 A 
ATOM      6  C   UNL     1       0.683  10.408  20.618  0.00  0.00    +0.000 A 
ATOM      7  C   UNL     1       0.951   9.193  21.266  0.00  0.00    +0.000 A 
ATOM      8  C   UNL     1       1.520   8.185  20.490  0.00  0.00    +0.000 A 
ATOM      9  N   UNL     1       1.875   6.894  20.813  0.00  0.00    +0.000 N 
ATOM     10  H   UNL     1       1.755   6.463  21.721  0.00  0.00    +0.000 HD
ENDROOT
BRANCH   1  12
ATOM     11  O   UNL     1       2.380   4.051  20.447  0.00  0.00    +0.000 OA
ATOM     12  C   UNL     1       2.931   4.906  19.760  0.00  0.00    +0.000 C 
ATOM     13  N   UNL     1       4.024   4.599  18.958  0.00  0.00    +0.000 N 
ATOM     14  C   UNL     1       4.341   3.206  18.655  0.00  0.00    +0.000 C 
ATOM     15  C   UNL     1       4.443   3.003  17.138  0.00  0.00    +0.000 C 
ATOM     16  N   UNL     1       5.104   4.119  16.486  0.00  0.00    +0.000 N 
ATOM     17  C   UNL     1       5.506   4.201  15.186  0.00  0.00    +0.000 A 
ATOM     18  C   UNL     1       5.983   5.484  15.047  0.00  0.00    +0.000 A 
ATOM     19  N   UNL     1       5.882   6.174  16.229  0.00  0.00    +0.000 NA
ATOM     20  C   UNL     1       5.353   5.329  17.089  0.00  0.00    +0.000 A 
ATOM     21  C   UNL     1       5.050   5.557  18.530  0.00  0.00    +0.000 C 
ENDBRANCH   1  12
BRANCH   5  22
ATOM     22  N   UNL     1       0.613  11.816  18.580  0.00  0.00    +0.000 N 
ATOM     23  C   UNL     1       1.039  13.116  18.863  0.00  0.00    +0.000 A 
ATOM     24  N   UNL     1       0.193  14.101  18.535  0.00  0.00    +0.000 NA
ATOM     25  C   UNL     1       0.544  15.347  18.903  0.00  0.00    +0.000 A 
ATOM     26  C   UNL     1       1.704  15.644  19.576  0.00  0.00    +0.000 A 
ATOM     27  C   UNL     1       2.536  14.581  19.858  0.00  0.00    +0.000 A 
ATOM     28  N   UNL     1       2.201  13.327  19.489  0.00  0.00    +0.000 NA
ATOM     29  H   UNL     1      -0.346  11.882  18.265  0.00  0.00    +0.000 HD
BRANCH  27  30
ATOM     30  C   UNL     1       3.808  14.720  20.600  0.00  0.00    +0.000 A 
ATOM     31  C   UNL     1       4.926  15.364  20.054  0.00  0.00    +0.000 A 
ATOM     32  C   UNL     1       6.111  15.437  20.783  0.00  0.00    +0.000 A 
ATOM     33  C   UNL     1       6.158  14.876  22.044  0.00  0.00    +0.000 A 
ATOM     34  C   UNL     1       5.013  14.263  22.528  0.00  0.00    +0.000 A 
ATOM     35  N   UNL     1       3.852  14.172  21.843  0.00  0.00    +0.000 NA
ENDBRANCH  27  30
ENDBRANCH   5  22
TORSDOF 3
ENDMDL
MODEL 9
REMARK VINA RESULT:      -9.2      3.738     10.450
REMARK  Name = 
REMARK  3 active torsions:
REMARK  status: ('A' for Active; 'I' for Inactive)
REMARK    1  A    between atoms: C_2  and  C_3
REMARK    2  A    between atoms: C_7  and  N_8
REMARK    3  A    between atoms: C_13  and  C_14
REMARK                            x       y       z     vdW  Elec       q    Type
REMARK                         _______ _______ _______ _____ _____    ______ ____
ROOT
ATOM      1  C   UNL     1       2.408   7.632  18.560  0.00  0.00    +0.000 A 
ATOM      2  C   UNL     1       2.220   7.849  19.912  0.00  0.00    +0.000 A 
ATOM      3  C   UNL     1       1.383   8.971  20.078  0.00  0.00    +0.000 A 
ATOM      4  C   UNL     1       0.831   9.592  21.210  0.00  0.00    +0.000 A 
ATOM      5  C   UNL     1       0.117  10.785  21.072  0.00  0.00    +0.000 A 
ATOM      6  C   UNL     1      -0.117  11.265  19.777  0.00  0.00    +0.000 A 
ATOM      7  C   UNL     1       0.396  10.652  18.624  0.00  0.00    +0.000 A 
ATOM      8  C   UNL     1       1.155   9.500  18.817  0.00  0.00    +0.000 A 
ATOM      9  N   UNL     1       1.807   8.692  17.912  0.00  0.00    +0.000 N 
ATOM     10  H   UNL     1       1.836   8.836  16.911  0.00  0.00    +0.000 HD
ENDROOT
BRANCH   1  12
ATOM     11  O   UNL     1       4.008   6.886  17.041  0.00  0.00    +0.000 OA
ATOM     12  C   UNL     1       3.151   6.602  17.873  0.00  0.00    +0.000 C 
ATOM     13  N   UNL     1       2.886   5.282  18.220  0.00  0.00    +0.000 N 
ATOM     14  C   UNL     1       3.829   4.227  17.859  0.00  0.00    +0.000 C 
ATOM     15  C   UNL     1       4.224   3.420  19.102  0.00  0.00    +0.000 C 
ATOM     16  N   UNL     1       3.093   3.196  19.984  0.00  0.00    +0.000 N 
ATOM     17  C   UNL     1       3.045   2.390  21.082  0.00  0.00    +0.000 A 
ATOM     18  C   UNL     1       1.793   2.601  21.616  0.00  0.00    +0.000 A 
ATOM     19  N   UNL     1       1.088   3.508  20.866  0.00  0.00    +0.000 NA
ATOM     20  C   UNL     1       1.890   3.852  19.880  0.00  0.00    +0.000 A 
ATOM     21  C   UNL     1       1.611   4.793  18.758  0.00  0.00    +0.000 C 
ENDBRANCH   1  12
BRANCH   5  22
ATOM     22  N   UNL     1      -0.332  11.429  22.241  0.00  0.00    +0.000 N 
ATOM     23  C   UNL     1      -1.507  12.161  22.424  0.00  0.00    +0.000 A 
ATOM     24  N   UNL     1      -1.456  13.144  23.332  0.00  0.00    +0.000 NA
ATOM     25  C   UNL     1      -2.547  13.927  23.438  0.00  0.00    +0.000 A 
ATOM     26  C   UNL     1      -3.679  13.760  22.679  0.00  0.00    +0.000 A 
ATOM     27  C   UNL     1      -3.666  12.713  21.782  0.00  0.00    +0.000 A 
ATOM     28  N   UNL     1      -2.583  11.915  21.670  0.00  0.00    +0.000 NA
ATOM     29  H   UNL     1       0.388  11.884  22.785  0.00  0.00    +0.000 HD
BRANCH  27  30
ATOM     30  C   UNL     1      -4.790  12.411  20.871  0.00  0.00    +0.000 A 
ATOM     31  C   UNL     1      -4.650  12.431  19.477  0.00  0.00    +0.000 A 
ATOM     32  C   UNL     1      -5.751  12.173  18.663  0.00  0.00    +0.000 A 
ATOM     33  C   UNL     1      -6.968  11.890  19.252  0.00  0.00    +0.000 A 
ATOM     34  C   UNL     1      -7.035  11.876  20.636  0.00  0.00    +0.000 A 
ATOM     35  N   UNL     1      -5.987  12.128  21.451  0.00  0.00    +0.000 NA
ENDBRANCH  27  30
ENDBRANCH   5  22
TORSDOF 3
ENDMDL
