MODEL 1
REMARK VINA RESULT:      -6.1      0.000      0.000
REMARK  Name = 
REMARK  2 active torsions:
REMARK  status: ('A' for Active; 'I' for Inactive)
REMARK    1  A    between atoms: C_2  and  C_3
REMARK    2  A    between atoms: C_6  and  C_7
REMARK                            x       y       z     vdW  Elec       q    Type
REMARK                         _______ _______ _______ _____ _____    ______ ____
ROOT
ATOM      1  C   UNL     1       6.223   4.169  14.099  0.00  0.00    +0.000 A 
ATOM      2  C   UNL     1       7.165   4.932  14.761  0.00  0.00    +0.000 A 
ATOM      3  S   UNL     1       6.611   5.340  16.322  0.00  0.00    +0.000 S 
ATOM      4  C   UNL     1       5.159   4.451  16.044  0.00  0.00    +0.000 A 
ATOM      5  N   UNL     1       5.079   3.902  14.845  0.00  0.00    +0.000 NA
ENDROOT
BRANCH   4   6
ATOM      6  C   UNL     1       4.104   4.371  17.070  0.00  0.00    +0.000 A 
ATOM      7  C   UNL     1       3.632   3.110  17.477  0.00  0.00    +0.000 A 
ATOM      8  C   UNL     1       2.620   2.995  18.438  0.00  0.00    +0.000 A 
ATOM      9  C   UNL     1       2.076   4.141  19.013  0.00  0.00    +0.000 A 
ATOM     10 CL   UNL     1       0.829   4.003  20.188  0.00  0.00    +0.000 Cl
ATOM     11  C   UNL     1       2.539   5.398  18.640  0.00  0.00    +0.000 A 
ATOM     12  C   UNL     1       3.549   5.512  17.677  0.00  0.00    +0.000 A 
ENDBRANCH   4   6
BRANCH   1  14
ATOM     13 CL   UNL     1       4.729   3.430  11.995  0.00  0.00    +0.000 Cl
ATOM     14  C   UNL     1       6.343   3.611  12.722  0.00  0.00    +0.000 C 
ENDBRANCH   1  14
TORSDOF 2
ENDMDL
MODEL 2
REMARK VINA RESULT:      -5.9      0.738      1.097
REMARK  Name = 
REMARK  2 active torsions:
REMARK  status: ('A' for Active; 'I' for Inactive)
REMARK    1  A    between atoms: C_2  and  C_3
REMARK    2  A    between atoms: C_6  and  C_7
REMARK                            x       y       z     vdW  Elec       q    Type
REMARK                         _______ _______ _______ _____ _____    ______ ____
ROOT
ATOM      1  C   UNL     1       6.233   4.236  14.248  0.00  0.00    +0.000 A 
ATOM      2  C   UNL     1       7.173   4.984  14.931  0.00  0.00    +0.000 A 
ATOM      3  S   UNL     1       6.622   5.336  16.507  0.00  0.00    +0.000 S 
ATOM      4  C   UNL     1       5.177   4.444  16.207  0.00  0.00    +0.000 A 
ATOM      5  N   UNL     1       5.095   3.934  14.990  0.00  0.00    +0.000 NA
ENDROOT
BRANCH   4   6
ATOM      6  C   UNL     1       4.127   4.321  17.234  0.00  0.00    +0.000 A 
ATOM      7  C   UNL     1       4.406   4.712  18.556  0.00  0.00    +0.000 A 
ATOM      8  C   UNL     1       3.439   4.595  19.562  0.00  0.00    +0.000 A 
ATOM      9  C   UNL     1       2.176   4.096  19.254  0.00  0.00    +0.000 A 
ATOM     10 CL   UNL     1       0.989   3.945  20.488  0.00  0.00    +0.000 Cl
ATOM     11  C   UNL     1       1.871   3.719  17.951  0.00  0.00    +0.000 A 
ATOM     12  C   UNL     1       2.839   3.834  16.947  0.00  0.00    +0.000 A 
ENDBRANCH   4   6
BRANCH   1  14
ATOM     13 CL   UNL     1       4.734   3.514  12.142  0.00  0.00    +0.000 Cl
ATOM     14  C   UNL     1       6.351   3.724  12.853  0.00  0.00    +0.000 C 
ENDBRANCH   1  14
TORSDOF 2
ENDMDL
MODEL 3
REMARK VINA RESULT:      -5.9      1.603      2.150
REMARK  Name = 
REMARK  2 active torsions:
REMARK  status: ('A' for Active; 'I' for Inactive)
REMARK    1  A    between atoms: C_2  and  C_3
REMARK    2  A    between atoms: C_6  and  C_7
REMARK                            x       y       z     vdW  Elec       q    Type
REMARK                         _______ _______ _______ _____ _____    ______ ____
ROOT
ATOM      1  C   UNL     1       5.784   4.959  15.509  0.00  0.00    +0.000 A 
ATOM      2  C   UNL     1       5.519   6.301  15.699  0.00  0.00    +0.000 A 
ATOM      3  S   UNL     1       4.495   6.521  17.046  0.00  0.00    +0.000 S 
ATOM      4  C   UNL     1       4.488   4.819  17.324  0.00  0.00    +0.000 A 
ATOM      5  N   UNL     1       5.187   4.121  16.446  0.00  0.00    +0.000 NA
ENDROOT
BRANCH   4   6
ATOM      6  C   UNL     1       3.719   4.229  18.435  0.00  0.00    +0.000 A 
ATOM      7  C   UNL     1       2.417   4.693  18.696  0.00  0.00    +0.000 A 
ATOM      8  C   UNL     1       1.662   4.167  19.752  0.00  0.00    +0.000 A 
ATOM      9  C   UNL     1       2.197   3.161  20.552  0.00  0.00    +0.000 A 
ATOM     10 CL   UNL     1       1.276   2.518  21.853  0.00  0.00    +0.000 Cl
ATOM     11  C   UNL     1       3.476   2.674  20.303  0.00  0.00    +0.000 A 
ATOM     12  C   UNL     1       4.230   3.202  19.249  0.00  0.00    +0.000 A 
ENDBRANCH   4   6
BRANCH   1  14
ATOM     13 CL   UNL     1       5.633   3.721  13.132  0.00  0.00    +0.000 Cl
ATOM     14  C   UNL     1       6.645   4.368  14.445  0.00  0.00    +0.000 C 
ENDBRANCH   1  14
TORSDOF 2
ENDMDL
MODEL 4
REMARK VINA RESULT:      -5.8      0.910      1.545
REMARK  Name = 
REMARK  2 active torsions:
REMARK  status: ('A' for Active; 'I' for Inactive)
REMARK    1  A    between atoms: C_2  and  C_3
REMARK    2  A    between atoms: C_6  and  C_7
REMARK                            x       y       z     vdW  Elec       q    Type
REMARK                         _______ _______ _______ _____ _____    ______ ____
ROOT
ATOM      1  C   UNL     1       6.215   4.198  14.366  0.00  0.00    +0.000 A 
ATOM      2  C   UNL     1       7.210   4.830  15.086  0.00  0.00    +0.000 A 
ATOM      3  S   UNL     1       6.700   5.105  16.691  0.00  0.00    +0.000 S 
ATOM      4  C   UNL     1       5.193   4.338  16.349  0.00  0.00    +0.000 A 
ATOM      5  N   UNL     1       5.065   3.924  15.100  0.00  0.00    +0.000 NA
ENDROOT
BRANCH   4   6
ATOM      6  C   UNL     1       4.147   4.214  17.380  0.00  0.00    +0.000 A 
ATOM      7  C   UNL     1       3.316   5.314  17.656  0.00  0.00    +0.000 A 
ATOM      8  C   UNL     1       2.322   5.238  18.639  0.00  0.00    +0.000 A 
ATOM      9  C   UNL     1       2.140   4.055  19.350  0.00  0.00    +0.000 A 
ATOM     10 CL   UNL     1       0.924   3.961  20.562  0.00  0.00    +0.000 Cl
ATOM     11  C   UNL     1       2.938   2.948  19.083  0.00  0.00    +0.000 A 
ATOM     12  C   UNL     1       3.933   3.026  18.102  0.00  0.00    +0.000 A 
ENDBRANCH   4   6
BRANCH   1  14
ATOM     13 CL   UNL     1       7.481   4.771  12.070  0.00  0.00    +0.000 Cl
ATOM     14  C   UNL     1       6.284   3.781  12.936  0.00  0.00    +0.000 C 
ENDBRANCH   1  14
TORSDOF 2
ENDMDL
MODEL 5
REMARK VINA RESULT:      -5.8      1.690      1.914
REMARK  Name = 
REMARK  2 active torsions:
REMARK  status: ('A' for Active; 'I' for Inactive)
REMARK    1  A    between atoms: C_2  and  C_3
REMARK    2  A    between atoms: C_6  and  C_7
REMARK                            x       y       z     vdW  Elec       q    Type
REMARK                         _______ _______ _______ _____ _____    ______ ____
ROOT
ATOM      1  C   UNL     1       5.560   4.661  15.185  0.00  0.00    +0.000 A 
ATOM      2  C   UNL     1       5.575   6.017  15.446  0.00  0.00    +0.000 A 
ATOM      3  S   UNL     1       4.709   6.358  16.876  0.00  0.00    +0.000 S 
ATOM      4  C   UNL     1       4.390   4.677  17.089  0.00  0.00    +0.000 A 
ATOM      5  N   UNL     1       4.877   3.905  16.133  0.00  0.00    +0.000 NA
ENDROOT
BRANCH   4   6
ATOM      6  C   UNL     1       3.599   4.188  18.233  0.00  0.00    +0.000 A 
ATOM      7  C   UNL     1       4.205   3.346  19.182  0.00  0.00    +0.000 A 
ATOM      8  C   UNL     1       3.481   2.850  20.273  0.00  0.00    +0.000 A 
ATOM      9  C   UNL     1       2.143   3.201  20.434  0.00  0.00    +0.000 A 
ATOM     10 CL   UNL     1       1.249   2.588  21.768  0.00  0.00    +0.000 Cl
ATOM     11  C   UNL     1       1.526   4.046  19.518  0.00  0.00    +0.000 A 
ATOM     12  C   UNL     1       2.250   4.539  18.426  0.00  0.00    +0.000 A 
ENDBRANCH   4   6
BRANCH   1  14
ATOM     13 CL   UNL     1       7.423   5.044  13.291  0.00  0.00    +0.000 Cl
ATOM     14  C   UNL     1       6.214   3.972  14.036  0.00  0.00    +0.000 C 
ENDBRANCH   1  14
TORSDOF 2
ENDMDL
MODEL 6
REMARK VINA RESULT:      -5.7      2.472      6.194
REMARK  Name = 
REMARK  2 active torsions:
REMARK  status: ('A' for Active; 'I' for Inactive)
REMARK    1  A    between atoms: C_2  and  C_3
REMARK    2  A    between atoms: C_6  and  C_7
REMARK                            x       y       z     vdW  Elec       q    Type
REMARK                         _______ _______ _______ _____ _____    ______ ____
ROOT
ATOM      1  C   UNL     1       2.510   4.820  20.432  0.00  0.00    +0.000 A 
ATOM      2  C   UNL     1       2.040   6.105  20.247  0.00  0.00    +0.000 A 
ATOM      3  S   UNL     1       2.684   6.774  18.815  0.00  0.00    +0.000 S 
ATOM      4  C   UNL     1       3.529   5.303  18.502  0.00  0.00    +0.000 A 
ATOM      5  N   UNL     1       3.362   4.373  19.427  0.00  0.00    +0.000 NA
ENDROOT
BRANCH   4   6
ATOM      6  C   UNL     1       4.387   5.152  17.313  0.00  0.00    +0.000 A 
ATOM      7  C   UNL     1       4.730   6.290  16.561  0.00  0.00    +0.000 A 
ATOM      8  C   UNL     1       5.531   6.183  15.417  0.00  0.00    +0.000 A 
ATOM      9  C   UNL     1       6.008   4.938  15.019  0.00  0.00    +0.000 A 
ATOM     10 CL   UNL     1       6.986   4.802  13.612  0.00  0.00    +0.000 Cl
ATOM     11  C   UNL     1       5.697   3.800  15.757  0.00  0.00    +0.000 A 
ATOM     12  C   UNL     1       4.894   3.908  16.899  0.00  0.00    +0.000 A 
ENDBRANCH   4   6
BRANCH   1  14
ATOM     13 CL   UNL     1       1.426   2.415  20.930  0.00  0.00    +0.000 Cl
ATOM     14  C   UNL     1       2.168   3.905  21.559  0.00  0.00    +0.000 C 
ENDBRANCH   1  14
TORSDOF 2
ENDMDL
MODEL 7
REMARK VINA RESULT:      -5.6      3.636      6.074
REMARK  Name = 
REMARK  2 active torsions:
REMARK  status: ('A' for Active; 'I' for Inactive)
REMARK    1  A    between atoms: C_2  and  C_3
REMARK    2  A    between atoms: C_6  and  C_7
REMARK                            x       y       z     vdW  Elec       q    Type
REMARK                         _______ _______ _______ _____ _____    ______ ____
ROOT
ATOM      1  C   UNL     1       2.028   3.101  19.293  0.00  0.00    +0.000 A 
ATOM      2  C   UNL     1       2.358   2.168  18.330  0.00  0.00    +0.000 A 
ATOM      3  S   UNL     1       3.747   2.663  17.471  0.00  0.00    +0.000 S 
ATOM      4  C   UNL     1       3.853   4.079  18.451  0.00  0.00    +0.000 A 
ATOM      5  N   UNL     1       2.891   4.191  19.351  0.00  0.00    +0.000 NA
ENDROOT
BRANCH   4   6
ATOM      6  C   UNL     1       4.919   5.076  18.241  0.00  0.00    +0.000 A 
ATOM      7  C   UNL     1       4.726   6.105  17.302  0.00  0.00    +0.000 A 
ATOM      8  C   UNL     1       5.721   7.061  17.065  0.00  0.00    +0.000 A 
ATOM      9  C   UNL     1       6.918   7.005  17.774  0.00  0.00    +0.000 A 
ATOM     10 CL   UNL     1       8.145   8.173  17.480  0.00  0.00    +0.000 Cl
ATOM     11  C   UNL     1       7.126   6.007  18.720  0.00  0.00    +0.000 A 
ATOM     12  C   UNL     1       6.130   5.051  18.955  0.00  0.00    +0.000 A 
ENDBRANCH   4   6
BRANCH   1  14
ATOM     13 CL   UNL     1       1.489   2.651  21.883  0.00  0.00    +0.000 Cl
ATOM     14  C   UNL     1       0.888   3.022  20.250  0.00  0.00    +0.000 C 
ENDBRANCH   1  14
TORSDOF 2
ENDMDL
MODEL 8
REMARK VINA RESULT:      -5.6      3.614      6.000
REMARK  Name = 
REMARK  2 active torsions:
REMARK  status: ('A' for Active; 'I' for Inactive)
REMARK    1  A    between atoms: C_2  and  C_3
REMARK    2  A    between atoms: C_6  and  C_7
REMARK                            x       y       z     vdW  Elec       q    Type
REMARK                         _______ _______ _______ _____ _____    ______ ____
ROOT
ATOM      1  C   UNL     1       1.993   3.105  19.252  0.00  0.00    +0.000 A 
ATOM      2  C   UNL     1       2.329   2.157  18.306  0.00  0.00    +0.000 A 
ATOM      3  S   UNL     1       3.707   2.652  17.429  0.00  0.00    +0.000 S 
ATOM      4  C   UNL     1       3.801   4.088  18.380  0.00  0.00    +0.000 A 
ATOM      5  N   UNL     1       2.843   4.207  19.283  0.00  0.00    +0.000 NA
ENDROOT
BRANCH   4   6
ATOM      6  C   UNL     1       4.853   5.094  18.143  0.00  0.00    +0.000 A 
ATOM      7  C   UNL     1       6.047   5.030  18.882  0.00  0.00    +0.000 A 
ATOM      8  C   UNL     1       7.063   5.977  18.696  0.00  0.00    +0.000 A 
ATOM      9  C   UNL     1       6.898   6.992  17.758  0.00  0.00    +0.000 A 
ATOM     10 CL   UNL     1       8.139   8.160  17.531  0.00  0.00    +0.000 Cl
ATOM     11  C   UNL     1       5.733   7.066  17.003  0.00  0.00    +0.000 A 
ATOM     12  C   UNL     1       4.719   6.121  17.192  0.00  0.00    +0.000 A 
ENDBRANCH   4   6
BRANCH   1  14
ATOM     13 CL   UNL     1       1.470   2.640  21.843  0.00  0.00    +0.000 Cl
ATOM     14  C   UNL     1       0.861   3.031  20.218  0.00  0.00    +0.000 C 
ENDBRANCH   1  14
TORSDOF 2
ENDMDL
MODEL 9
REMARK VINA RESULT:      -5.6      4.385      6.052
REMARK  Name = 
REMARK  2 active torsions:
REMARK  status: ('A' for Active; 'I' for Inactive)
REMARK    1  A    between atoms: C_2  and  C_3
REMARK    2  A    between atoms: C_6  and  C_7
REMARK                            x       y       z     vdW  Elec       q    Type
REMARK                         _______ _______ _______ _____ _____    ______ ____
ROOT
ATOM      1  C   UNL     1       3.416   3.927  19.825  0.00  0.00    +0.000 A 
ATOM      2  C   UNL     1       4.429   4.109  18.904  0.00  0.00    +0.000 A 
ATOM      3  S   UNL     1       4.351   5.678  18.237  0.00  0.00    +0.000 S 
ATOM      4  C   UNL     1       2.993   6.041  19.236  0.00  0.00    +0.000 A 
ATOM      5  N   UNL     1       2.601   5.040  20.005  0.00  0.00    +0.000 NA
ENDROOT
BRANCH   4   6
ATOM      6  C   UNL     1       2.329   7.356  19.176  0.00  0.00    +0.000 A 
ATOM      7  C   UNL     1       2.357   8.089  17.976  0.00  0.00    +0.000 A 
ATOM      8  C   UNL     1       1.750   9.348  17.886  0.00  0.00    +0.000 A 
ATOM      9  C   UNL     1       1.097   9.883  18.993  0.00  0.00    +0.000 A 
ATOM     10 CL   UNL     1       0.357  11.431  18.887  0.00  0.00    +0.000 Cl
ATOM     11  C   UNL     1       1.041   9.169  20.185  0.00  0.00    +0.000 A 
ATOM     12  C   UNL     1       1.650   7.912  20.275  0.00  0.00    +0.000 A 
ENDBRANCH   4   6
BRANCH   1  14
ATOM     13 CL   UNL     1       1.715   2.921  21.641  0.00  0.00    +0.000 Cl
ATOM     14  C   UNL     1       3.158   2.696  20.626  0.00  0.00    +0.000 C 
ENDBRANCH   1  14
TORSDOF 2
ENDMDL
