MODEL 1
REMARK VINA RESULT:      -7.5      0.000      0.000
REMARK  Name = 
REMARK  8 active torsions:
REMARK  status: ('A' for Active; 'I' for Inactive)
REMARK    1  A    between atoms: N_1  and  S_2
REMARK    2  A    between atoms: S_2  and  C_5
REMARK    3  A    between atoms: C_8  and  N_9
REMARK    4  A    between atoms: C_10  and  C_12
REMARK    5  A    between atoms: C_12  and  O_13
REMARK    6  A    between atoms: O_13  and  C_14
REMARK    7  A    between atoms: C_14  and  C_16
REMARK    8  A    between atoms: C_19  and  N_20
REMARK                            x       y       z     vdW  Elec       q    Type
REMARK                         _______ _______ _______ _____ _____    ______ ____
ROOT
ATOM      1  N   UNL     1       2.637   5.450  20.446  0.00  0.00    +0.000 N 
ATOM      2  C   UNL     1       1.850   4.307  20.503  0.00  0.00    +0.000 C 
ATOM      3  O   UNL     1       0.658   4.237  20.208  0.00  0.00    +0.000 OA
ATOM      4  H   UNL     1       3.604   5.370  20.753  0.00  0.00    +0.000 HD
ENDROOT
BRANCH   1   8
ATOM      5  C   UNL     1       1.319   9.322  19.372  0.00  0.00    +0.000 A 
ATOM      6  C   UNL     1       2.021   8.560  18.442  0.00  0.00    +0.000 A 
ATOM      7  C   UNL     1       2.459   7.279  18.787  0.00  0.00    +0.000 A 
ATOM      8  C   UNL     1       2.214   6.746  20.056  0.00  0.00    +0.000 A 
ATOM      9  C   UNL     1       1.512   7.531  20.985  0.00  0.00    +0.000 A 
ATOM     10  C   UNL     1       1.063   8.817  20.647  0.00  0.00    +0.000 A 
BRANCH   5  11
ATOM     11  S   UNL     1       0.736  10.924  18.915  0.00  0.00    +0.000 S 
ATOM     12  O   UNL     1       0.844  11.804  20.057  0.00  0.00    +0.000 OA
ATOM     13  O   UNL     1      -0.480  10.787  18.151  0.00  0.00    +0.000 OA
BRANCH  11  14
ATOM     14  N   UNL     1       1.902  11.419  17.815  0.00  0.00    +0.000 NA
ATOM     15  H   UNL     1       2.763  10.890  17.963  0.00  0.00    +0.000 HD
ATOM     16  H   UNL     1       2.025  12.430  17.857  0.00  0.00    +0.000 HD
ENDBRANCH  11  14
ENDBRANCH   5  11
ENDBRANCH   1   8
BRANCH   2  17
ATOM     17  C   UNL     1       2.590   3.047  20.966  0.00  0.00    +0.000 C 
BRANCH  17  18
ATOM     18  O   UNL     1       3.822   2.881  20.251  0.00  0.00    +0.000 OA
BRANCH  18  19
ATOM     19  C   UNL     1       3.656   2.597  18.924  0.00  0.00    +0.000 C 
ATOM     20  O   UNL     1       2.976   1.661  18.516  0.00  0.00    +0.000 OA
BRANCH  19  21
ATOM     21  C   UNL     1       4.407   3.539  18.111  0.00  0.00    +0.000 A 
ATOM     22  C   UNL     1       4.239   3.899  16.783  0.00  0.00    +0.000 A 
ATOM     23  C   UNL     1       5.195   4.869  16.349  0.00  0.00    +0.000 A 
ATOM     24  C   UNL     1       6.062   5.209  17.364  0.00  0.00    +0.000 A 
ATOM     25  S   UNL     1       5.737   4.379  18.808  0.00  0.00    +0.000 S 
BRANCH  24  26
ATOM     26  N   UNL     1       7.147   6.154  17.282  0.00  0.00    +0.000 N 
ATOM     27  O   UNL     1       7.605   6.556  18.361  0.00  0.00    +0.000 OA
ATOM     28  O   UNL     1       7.551   6.494  16.162  0.00  0.00    +0.000 OA
ENDBRANCH  24  26
ENDBRANCH  19  21
ENDBRANCH  18  19
ENDBRANCH  17  18
ENDBRANCH   2  17
TORSDOF 8
ENDMDL
MODEL 2
REMARK VINA RESULT:      -7.2      1.107      1.704
REMARK  Name = 
REMARK  8 active torsions:
REMARK  status: ('A' for Active; 'I' for Inactive)
REMARK    1  A    between atoms: N_1  and  S_2
REMARK    2  A    between atoms: S_2  and  C_5
REMARK    3  A    between atoms: C_8  and  N_9
REMARK    4  A    between atoms: C_10  and  C_12
REMARK    5  A    between atoms: C_12  and  O_13
REMARK    6  A    between atoms: O_13  and  C_14
REMARK    7  A    between atoms: C_14  and  C_16
REMARK    8  A    between atoms: C_19  and  N_20
REMARK                            x       y       z     vdW  Elec       q    Type
REMARK                         _______ _______ _______ _____ _____    ______ ____
ROOT
ATOM      1  N   UNL     1       2.351   5.795  20.865  0.00  0.00    +0.000 N 
ATOM      2  C   UNL     1       1.835   4.565  20.477  0.00  0.00    +0.000 C 
ATOM      3  O   UNL     1       0.912   4.388  19.684  0.00  0.00    +0.000 OA
ATOM      4  H   UNL     1       3.096   5.794  21.558  0.00  0.00    +0.000 HD
ENDROOT
BRANCH   1   8
ATOM      5  C   UNL     1       1.081   9.588  19.493  0.00  0.00    +0.000 A 
ATOM      6  C   UNL     1       0.716   9.169  20.770  0.00  0.00    +0.000 A 
ATOM      7  C   UNL     1       1.132   7.918  21.232  0.00  0.00    +0.000 A 
ATOM      8  C   UNL     1       1.904   7.069  20.434  0.00  0.00    +0.000 A 
ATOM      9  C   UNL     1       2.257   7.503  19.146  0.00  0.00    +0.000 A 
ATOM     10  C   UNL     1       1.849   8.760  18.673  0.00  0.00    +0.000 A 
BRANCH   5  11
ATOM     11  S   UNL     1       0.583  11.185  18.931  0.00  0.00    +0.000 S 
ATOM     12  O   UNL     1      -0.658  11.058  18.199  0.00  0.00    +0.000 OA
ATOM     13  O   UNL     1       1.731  11.880  18.400  0.00  0.00    +0.000 OA
BRANCH  11  14
ATOM     14  N   UNL     1       0.216  11.963  20.371  0.00  0.00    +0.000 NA
ATOM     15  H   UNL     1       0.629  12.897  20.373  0.00  0.00    +0.000 HD
ATOM     16  H   UNL     1       0.489  11.387  21.166  0.00  0.00    +0.000 HD
ENDBRANCH  11  14
ENDBRANCH   5  11
ENDBRANCH   1   8
BRANCH   2  17
ATOM     17  C   UNL     1       2.526   3.354  21.115  0.00  0.00    +0.000 C 
BRANCH  17  18
ATOM     18  O   UNL     1       2.969   2.428  20.113  0.00  0.00    +0.000 OA
BRANCH  18  19
ATOM     19  C   UNL     1       4.313   2.483  19.866  0.00  0.00    +0.000 C 
ATOM     20  O   UNL     1       5.148   1.908  20.556  0.00  0.00    +0.000 OA
BRANCH  19  21
ATOM     21  C   UNL     1       4.576   3.320  18.708  0.00  0.00    +0.000 A 
ATOM     22  C   UNL     1       3.973   3.325  17.460  0.00  0.00    +0.000 A 
ATOM     23  C   UNL     1       4.524   4.312  16.585  0.00  0.00    +0.000 A 
ATOM     24  C   UNL     1       5.534   5.019  17.198  0.00  0.00    +0.000 A 
ATOM     25  S   UNL     1       5.816   4.509  18.792  0.00  0.00    +0.000 S 
BRANCH  24  26
ATOM     26  N   UNL     1       6.309   6.086  16.615  0.00  0.00    +0.000 N 
ATOM     27  O   UNL     1       7.302   5.744  15.957  0.00  0.00    +0.000 OA
ATOM     28  O   UNL     1       5.939   7.252  16.798  0.00  0.00    +0.000 OA
ENDBRANCH  24  26
ENDBRANCH  19  21
ENDBRANCH  18  19
ENDBRANCH  17  18
ENDBRANCH   2  17
TORSDOF 8
ENDMDL
MODEL 3
REMARK VINA RESULT:      -7.1      1.361      1.618
REMARK  Name = 
REMARK  8 active torsions:
REMARK  status: ('A' for Active; 'I' for Inactive)
REMARK    1  A    between atoms: N_1  and  S_2
REMARK    2  A    between atoms: S_2  and  C_5
REMARK    3  A    between atoms: C_8  and  N_9
REMARK    4  A    between atoms: C_10  and  C_12
REMARK    5  A    between atoms: C_12  and  O_13
REMARK    6  A    between atoms: O_13  and  C_14
REMARK    7  A    between atoms: C_14  and  C_16
REMARK    8  A    between atoms: C_19  and  N_20
REMARK                            x       y       z     vdW  Elec       q    Type
REMARK                         _______ _______ _______ _____ _____    ______ ____
ROOT
ATOM      1  N   UNL     1       2.552   5.328  20.653  0.00  0.00    +0.000 N 
ATOM      2  C   UNL     1       1.881   4.137  20.409  0.00  0.00    +0.000 C 
ATOM      3  O   UNL     1       0.851   4.011  19.749  0.00  0.00    +0.000 OA
ATOM      4  H   UNL     1       3.378   5.290  21.246  0.00  0.00    +0.000 HD
ENDROOT
BRANCH   1   8
ATOM      5  C   UNL     1       1.352   9.184  19.398  0.00  0.00    +0.000 A 
ATOM      6  C   UNL     1       2.093   8.387  18.531  0.00  0.00    +0.000 A 
ATOM      7  C   UNL     1       2.493   7.111  18.935  0.00  0.00    +0.000 A 
ATOM      8  C   UNL     1       2.170   6.617  20.203  0.00  0.00    +0.000 A 
ATOM      9  C   UNL     1       1.428   7.437  21.068  0.00  0.00    +0.000 A 
ATOM     10  C   UNL     1       1.017   8.719  20.670  0.00  0.00    +0.000 A 
BRANCH   5  11
ATOM     11  S   UNL     1       0.818  10.780  18.865  0.00  0.00    +0.000 S 
ATOM     12  O   UNL     1      -0.472  10.651  18.222  0.00  0.00    +0.000 OA
ATOM     13  O   UNL     1       1.926  11.471  18.252  0.00  0.00    +0.000 OA
BRANCH  11  14
ATOM     14  N   UNL     1       0.552  11.564  20.324  0.00  0.00    +0.000 NA
ATOM     15  H   UNL     1       0.354  12.551  20.153  0.00  0.00    +0.000 HD
ATOM     16  H   UNL     1       1.330  11.402  20.962  0.00  0.00    +0.000 HD
ENDBRANCH  11  14
ENDBRANCH   5  11
ENDBRANCH   1   8
BRANCH   2  17
ATOM     17  C   UNL     1       2.538   2.898  21.029  0.00  0.00    +0.000 C 
BRANCH  17  18
ATOM     18  O   UNL     1       3.860   2.702  20.510  0.00  0.00    +0.000 OA
BRANCH  18  19
ATOM     19  C   UNL     1       3.899   2.502  19.158  0.00  0.00    +0.000 C 
ATOM     20  O   UNL     1       3.405   1.524  18.608  0.00  0.00    +0.000 OA
BRANCH  19  21
ATOM     21  C   UNL     1       4.613   3.590  18.511  0.00  0.00    +0.000 A 
ATOM     22  C   UNL     1       5.470   4.537  19.050  0.00  0.00    +0.000 A 
ATOM     23  C   UNL     1       5.973   5.448  18.071  0.00  0.00    +0.000 A 
ATOM     24  C   UNL     1       5.475   5.165  16.819  0.00  0.00    +0.000 A 
ATOM     25  S   UNL     1       4.423   3.833  16.818  0.00  0.00    +0.000 S 
BRANCH  24  26
ATOM     26  N   UNL     1       5.768   5.877  15.600  0.00  0.00    +0.000 N 
ATOM     27  O   UNL     1       6.696   5.424  14.913  0.00  0.00    +0.000 OA
ATOM     28  O   UNL     1       5.087   6.870  15.317  0.00  0.00    +0.000 OA
ENDBRANCH  24  26
ENDBRANCH  19  21
ENDBRANCH  18  19
ENDBRANCH  17  18
ENDBRANCH   2  17
TORSDOF 8
ENDMDL
MODEL 4
REMARK VINA RESULT:      -7.1      1.787      2.254
REMARK  Name = 
REMARK  8 active torsions:
REMARK  status: ('A' for Active; 'I' for Inactive)
REMARK    1  A    between atoms: N_1  and  S_2
REMARK    2  A    between atoms: S_2  and  C_5
REMARK    3  A    between atoms: C_8  and  N_9
REMARK    4  A    between atoms: C_10  and  C_12
REMARK    5  A    between atoms: C_12  and  O_13
REMARK    6  A    between atoms: O_13  and  C_14
REMARK    7  A    between atoms: C_14  and  C_16
REMARK    8  A    between atoms: C_19  and  N_20
REMARK                            x       y       z     vdW  Elec       q    Type
REMARK                         _______ _______ _______ _____ _____    ______ ____
ROOT
ATOM      1  N   UNL     1       2.893   6.016  20.142  0.00  0.00    +0.000 N 
ATOM      2  C   UNL     1       2.667   4.840  19.439  0.00  0.00    +0.000 C 
ATOM      3  O   UNL     1       1.830   4.679  18.551  0.00  0.00    +0.000 OA
ATOM      4  H   UNL     1       3.598   5.996  20.875  0.00  0.00    +0.000 HD
ENDROOT
BRANCH   1   8
ATOM      5  C   UNL     1       0.766   9.650  19.757  0.00  0.00    +0.000 A 
ATOM      6  C   UNL     1       1.532   9.195  18.688  0.00  0.00    +0.000 A 
ATOM      7  C   UNL     1       2.237   7.994  18.805  0.00  0.00    +0.000 A 
ATOM      8  C   UNL     1       2.196   7.240  19.982  0.00  0.00    +0.000 A 
ATOM      9  C   UNL     1       1.425   7.718  21.053  0.00  0.00    +0.000 A 
ATOM     10  C   UNL     1       0.708   8.920  20.945  0.00  0.00    +0.000 A 
BRANCH   5  11
ATOM     11  S   UNL     1      -0.152  11.148  19.588  0.00  0.00    +0.000 S 
ATOM     12  O   UNL     1       0.330  12.105  20.559  0.00  0.00    +0.000 OA
ATOM     13  O   UNL     1      -1.552  10.832  19.437  0.00  0.00    +0.000 OA
BRANCH  11  14
ATOM     14  N   UNL     1       0.348  11.696  18.083  0.00  0.00    +0.000 NA
ATOM     15  H   UNL     1      -0.200  11.241  17.352  0.00  0.00    +0.000 HD
ATOM     16  H   UNL     1       1.355  11.580  17.979  0.00  0.00    +0.000 HD
ENDBRANCH  11  14
ENDBRANCH   5  11
ENDBRANCH   1   8
BRANCH   2  17
ATOM     17  C   UNL     1       3.582   3.675  19.834  0.00  0.00    +0.000 C 
BRANCH  17  18
ATOM     18  O   UNL     1       4.552   3.412  18.811  0.00  0.00    +0.000 OA
BRANCH  18  19
ATOM     19  C   UNL     1       5.497   4.391  18.681  0.00  0.00    +0.000 C 
ATOM     20  O   UNL     1       6.102   4.873  19.632  0.00  0.00    +0.000 OA
BRANCH  19  21
ATOM     21  C   UNL     1       5.642   4.765  17.284  0.00  0.00    +0.000 A 
ATOM     22  C   UNL     1       4.763   5.433  16.446  0.00  0.00    +0.000 A 
ATOM     23  C   UNL     1       5.284   5.608  15.127  0.00  0.00    +0.000 A 
ATOM     24  C   UNL     1       6.541   5.061  15.006  0.00  0.00    +0.000 A 
ATOM     25  S   UNL     1       7.087   4.349  16.447  0.00  0.00    +0.000 S 
BRANCH  24  26
ATOM     26  N   UNL     1       7.363   5.055  13.821  0.00  0.00    +0.000 N 
ATOM     27  O   UNL     1       6.972   4.336  12.889  0.00  0.00    +0.000 OA
ATOM     28  O   UNL     1       8.382   5.756  13.806  0.00  0.00    +0.000 OA
ENDBRANCH  24  26
ENDBRANCH  19  21
ENDBRANCH  18  19
ENDBRANCH  17  18
ENDBRANCH   2  17
TORSDOF 8
ENDMDL
MODEL 5
REMARK VINA RESULT:      -7.1      1.697      2.127
REMARK  Name = 
REMARK  8 active torsions:
REMARK  status: ('A' for Active; 'I' for Inactive)
REMARK    1  A    between atoms: N_1  and  S_2
REMARK    2  A    between atoms: S_2  and  C_5
REMARK    3  A    between atoms: C_8  and  N_9
REMARK    4  A    between atoms: C_10  and  C_12
REMARK    5  A    between atoms: C_12  and  O_13
REMARK    6  A    between atoms: O_13  and  C_14
REMARK    7  A    between atoms: C_14  and  C_16
REMARK    8  A    between atoms: C_19  and  N_20
REMARK                            x       y       z     vdW  Elec       q    Type
REMARK                         _______ _______ _______ _____ _____    ______ ____
ROOT
ATOM      1  N   UNL     1       2.868   5.860  19.977  0.00  0.00    +0.000 N 
ATOM      2  C   UNL     1       2.231   4.628  20.041  0.00  0.00    +0.000 C 
ATOM      3  O   UNL     1       1.019   4.437  19.952  0.00  0.00    +0.000 OA
ATOM      4  H   UNL     1       3.879   5.873  20.099  0.00  0.00    +0.000 HD
ENDROOT
BRANCH   1   8
ATOM      5  C   UNL     1       1.059   9.637  19.393  0.00  0.00    +0.000 A 
ATOM      6  C   UNL     1       0.943   9.011  20.631  0.00  0.00    +0.000 A 
ATOM      7  C   UNL     1       1.539   7.764  20.834  0.00  0.00    +0.000 A 
ATOM      8  C   UNL     1       2.246   7.122  19.813  0.00  0.00    +0.000 A 
ATOM      9  C   UNL     1       2.347   7.764  18.568  0.00  0.00    +0.000 A 
ATOM     10  C   UNL     1       1.757   9.019  18.354  0.00  0.00    +0.000 A 
BRANCH   5  11
ATOM     11  S   UNL     1       0.337  11.230  19.156  0.00  0.00    +0.000 S 
ATOM     12  O   UNL     1       1.360  12.145  18.703  0.00  0.00    +0.000 OA
ATOM     13  O   UNL     1      -0.534  11.526  20.268  0.00  0.00    +0.000 OA
BRANCH  11  14
ATOM     14  N   UNL     1      -0.682  10.960  17.850  0.00  0.00    +0.000 NA
ATOM     15  H   UNL     1      -1.628  11.262  18.084  0.00  0.00    +0.000 HD
ATOM     16  H   UNL     1      -0.620   9.990  17.545  0.00  0.00    +0.000 HD
ENDBRANCH  11  14
ENDBRANCH   5  11
ENDBRANCH   1   8
BRANCH   2  17
ATOM     17  C   UNL     1       3.173   3.432  20.224  0.00  0.00    +0.000 C 
BRANCH  17  18
ATOM     18  O   UNL     1       4.260   3.485  19.290  0.00  0.00    +0.000 OA
BRANCH  18  19
ATOM     19  C   UNL     1       3.897   3.191  18.004  0.00  0.00    +0.000 C 
ATOM     20  O   UNL     1       3.069   2.333  17.718  0.00  0.00    +0.000 OA
BRANCH  19  21
ATOM     21  C   UNL     1       4.643   4.019  17.072  0.00  0.00    +0.000 A 
ATOM     22  C   UNL     1       4.794   5.396  17.028  0.00  0.00    +0.000 A 
ATOM     23  C   UNL     1       5.615   5.828  15.941  0.00  0.00    +0.000 A 
ATOM     24  C   UNL     1       6.057   4.761  15.191  0.00  0.00    +0.000 A 
ATOM     25  S   UNL     1       5.496   3.270  15.778  0.00  0.00    +0.000 S 
BRANCH  24  26
ATOM     26  N   UNL     1       6.902   4.826  14.025  0.00  0.00    +0.000 N 
ATOM     27  O   UNL     1       7.859   5.612  14.086  0.00  0.00    +0.000 OA
ATOM     28  O   UNL     1       6.630   4.104  13.058  0.00  0.00    +0.000 OA
ENDBRANCH  24  26
ENDBRANCH  19  21
ENDBRANCH  18  19
ENDBRANCH  17  18
ENDBRANCH   2  17
TORSDOF 8
ENDMDL
MODEL 6
REMARK VINA RESULT:      -7.0      1.008      1.656
REMARK  Name = 
REMARK  8 active torsions:
REMARK  status: ('A' for Active; 'I' for Inactive)
REMARK    1  A    between atoms: N_1  and  S_2
REMARK    2  A    between atoms: S_2  and  C_5
REMARK    3  A    between atoms: C_8  and  N_9
REMARK    4  A    between atoms: C_10  and  C_12
REMARK    5  A    between atoms: C_12  and  O_13
REMARK    6  A    between atoms: O_13  and  C_14
REMARK    7  A    between atoms: C_14  and  C_16
REMARK    8  A    between atoms: C_19  and  N_20
REMARK                            x       y       z     vdW  Elec       q    Type
REMARK                         _______ _______ _______ _____ _____    ______ ____
ROOT
ATOM      1  N   UNL     1       2.457   5.657  20.664  0.00  0.00    +0.000 N 
ATOM      2  C   UNL     1       1.690   4.499  20.644  0.00  0.00    +0.000 C 
ATOM      3  O   UNL     1       0.517   4.418  20.281  0.00  0.00    +0.000 OA
ATOM      4  H   UNL     1       3.407   5.584  21.021  0.00  0.00    +0.000 HD
ENDROOT
BRANCH   1   8
ATOM      5  C   UNL     1       1.247   9.522  19.451  0.00  0.00    +0.000 A 
ATOM      6  C   UNL     1       0.947   9.089  20.739  0.00  0.00    +0.000 A 
ATOM      7  C   UNL     1       1.344   7.814  21.149  0.00  0.00    +0.000 A 
ATOM      8  C   UNL     1       2.033   6.956  20.288  0.00  0.00    +0.000 A 
ATOM      9  C   UNL     1       2.321   7.406  18.989  0.00  0.00    +0.000 A 
ATOM     10  C   UNL     1       1.932   8.687  18.568  0.00  0.00    +0.000 A 
BRANCH   5  11
ATOM     11  S   UNL     1       0.776  11.149  18.953  0.00  0.00    +0.000 S 
ATOM     12  O   UNL     1       0.984  12.056  20.059  0.00  0.00    +0.000 OA
ATOM     13  O   UNL     1      -0.470  11.081  18.226  0.00  0.00    +0.000 OA
BRANCH  11  14
ATOM     14  N   UNL     1       1.943  11.514  17.805  0.00  0.00    +0.000 NA
ATOM     15  H   UNL     1       1.606  11.255  16.876  0.00  0.00    +0.000 HD
ATOM     16  H   UNL     1       2.835  11.089  18.056  0.00  0.00    +0.000 HD
ENDBRANCH  11  14
ENDBRANCH   5  11
ENDBRANCH   1   8
BRANCH   2  17
ATOM     17  C   UNL     1       2.426   3.239  21.110  0.00  0.00    +0.000 C 
BRANCH  17  18
ATOM     18  O   UNL     1       3.731   3.155  20.520  0.00  0.00    +0.000 OA
BRANCH  18  19
ATOM     19  C   UNL     1       3.713   2.901  19.177  0.00  0.00    +0.000 C 
ATOM     20  O   UNL     1       2.959   2.087  18.655  0.00  0.00    +0.000 OA
BRANCH  19  21
ATOM     21  C   UNL     1       4.713   3.710  18.500  0.00  0.00    +0.000 A 
ATOM     22  C   UNL     1       5.637   4.602  19.022  0.00  0.00    +0.000 A 
ATOM     23  C   UNL     1       6.452   5.205  18.015  0.00  0.00    +0.000 A 
ATOM     24  C   UNL     1       6.115   4.754  16.759  0.00  0.00    +0.000 A 
ATOM     25  S   UNL     1       4.844   3.629  16.787  0.00  0.00    +0.000 S 
BRANCH  24  26
ATOM     26  N   UNL     1       6.727   5.147  15.514  0.00  0.00    +0.000 N 
ATOM     27  O   UNL     1       6.270   4.621  14.489  0.00  0.00    +0.000 OA
ATOM     28  O   UNL     1       7.648   5.973  15.545  0.00  0.00    +0.000 OA
ENDBRANCH  24  26
ENDBRANCH  19  21
ENDBRANCH  18  19
ENDBRANCH  17  18
ENDBRANCH   2  17
TORSDOF 8
ENDMDL
MODEL 7
REMARK VINA RESULT:      -7.0      1.071      1.284
REMARK  Name = 
REMARK  8 active torsions:
REMARK  status: ('A' for Active; 'I' for Inactive)
REMARK    1  A    between atoms: N_1  and  S_2
REMARK    2  A    between atoms: S_2  and  C_5
REMARK    3  A    between atoms: C_8  and  N_9
REMARK    4  A    between atoms: C_10  and  C_12
REMARK    5  A    between atoms: C_12  and  O_13
REMARK    6  A    between atoms: O_13  and  C_14
REMARK    7  A    between atoms: C_14  and  C_16
REMARK    8  A    between atoms: C_19  and  N_20
REMARK                            x       y       z     vdW  Elec       q    Type
REMARK                         _______ _______ _______ _____ _____    ______ ____
ROOT
ATOM      1  N   UNL     1       2.426   5.466  20.685  0.00  0.00    +0.000 N 
ATOM      2  C   UNL     1       1.830   4.288  20.255  0.00  0.00    +0.000 C 
ATOM      3  O   UNL     1       0.898   4.201  19.457  0.00  0.00    +0.000 OA
ATOM      4  H   UNL     1       3.169   5.391  21.377  0.00  0.00    +0.000 HD
ENDROOT
BRANCH   1   8
ATOM      5  C   UNL     1       1.292   9.399  19.625  0.00  0.00    +0.000 A 
ATOM      6  C   UNL     1       2.021   8.634  18.719  0.00  0.00    +0.000 A 
ATOM      7  C   UNL     1       2.399   7.333  19.060  0.00  0.00    +0.000 A 
ATOM      8  C   UNL     1       2.067   6.782  20.300  0.00  0.00    +0.000 A 
ATOM      9  C   UNL     1       1.337   7.570  21.206  0.00  0.00    +0.000 A 
ATOM     10  C   UNL     1       0.948   8.876  20.872  0.00  0.00    +0.000 A 
BRANCH   5  11
ATOM     11  S   UNL     1       0.785  11.028  19.172  0.00  0.00    +0.000 S 
ATOM     12  O   UNL     1      -0.624  11.007  18.848  0.00  0.00    +0.000 OA
ATOM     13  O   UNL     1       1.776  11.607  18.297  0.00  0.00    +0.000 OA
BRANCH  11  14
ATOM     14  N   UNL     1       0.933  11.856  20.624  0.00  0.00    +0.000 NA
ATOM     15  H   UNL     1       0.054  11.806  21.139  0.00  0.00    +0.000 HD
ATOM     16  H   UNL     1       1.264  12.806  20.460  0.00  0.00    +0.000 HD
ENDBRANCH  11  14
ENDBRANCH   5  11
ENDBRANCH   1   8
BRANCH   2  17
ATOM     17  C   UNL     1       2.438   3.012  20.849  0.00  0.00    +0.000 C 
BRANCH  17  18
ATOM     18  O   UNL     1       3.032   2.201  19.826  0.00  0.00    +0.000 OA
BRANCH  18  19
ATOM     19  C   UNL     1       4.381   2.382  19.692  0.00  0.00    +0.000 C 
ATOM     20  O   UNL     1       5.205   1.889  20.455  0.00  0.00    +0.000 OA
BRANCH  19  21
ATOM     21  C   UNL     1       4.661   3.238  18.553  0.00  0.00    +0.000 A 
ATOM     22  C   UNL     1       4.122   3.225  17.276  0.00  0.00    +0.000 A 
ATOM     23  C   UNL     1       4.669   4.242  16.434  0.00  0.00    +0.000 A 
ATOM     24  C   UNL     1       5.612   4.992  17.101  0.00  0.00    +0.000 A 
ATOM     25  S   UNL     1       5.837   4.485  18.705  0.00  0.00    +0.000 S 
BRANCH  24  26
ATOM     26  N   UNL     1       6.363   6.099  16.562  0.00  0.00    +0.000 N 
ATOM     27  O   UNL     1       5.898   7.229  16.773  0.00  0.00    +0.000 OA
ATOM     28  O   UNL     1       7.406   5.858  15.942  0.00  0.00    +0.000 OA
ENDBRANCH  24  26
ENDBRANCH  19  21
ENDBRANCH  18  19
ENDBRANCH  17  18
ENDBRANCH   2  17
TORSDOF 8
ENDMDL
MODEL 8
REMARK VINA RESULT:      -6.9      1.998      2.637
REMARK  Name = 
REMARK  8 active torsions:
REMARK  status: ('A' for Active; 'I' for Inactive)
REMARK    1  A    between atoms: N_1  and  S_2
REMARK    2  A    between atoms: S_2  and  C_5
REMARK    3  A    between atoms: C_8  and  N_9
REMARK    4  A    between atoms: C_10  and  C_12
REMARK    5  A    between atoms: C_12  and  O_13
REMARK    6  A    between atoms: O_13  and  C_14
REMARK    7  A    between atoms: C_14  and  C_16
REMARK    8  A    between atoms: C_19  and  N_20
REMARK                            x       y       z     vdW  Elec       q    Type
REMARK                         _______ _______ _______ _____ _____    ______ ____
ROOT
ATOM      1  N   UNL     1       2.902   5.996  19.969  0.00  0.00    +0.000 N 
ATOM      2  C   UNL     1       2.585   4.787  19.363  0.00  0.00    +0.000 C 
ATOM      3  O   UNL     1       1.687   4.605  18.543  0.00  0.00    +0.000 OA
ATOM      4  H   UNL     1       3.652   5.994  20.656  0.00  0.00    +0.000 HD
ENDROOT
BRANCH   1   8
ATOM      5  C   UNL     1       0.989   9.704  19.281  0.00  0.00    +0.000 A 
ATOM      6  C   UNL     1       0.862   9.094  20.526  0.00  0.00    +0.000 A 
ATOM      7  C   UNL     1       1.491   7.869  20.763  0.00  0.00    +0.000 A 
ATOM      8  C   UNL     1       2.244   7.235  19.770  0.00  0.00    +0.000 A 
ATOM      9  C   UNL     1       2.356   7.861  18.518  0.00  0.00    +0.000 A 
ATOM     10  C   UNL     1       1.732   9.093  18.270  0.00  0.00    +0.000 A 
BRANCH   5  11
ATOM     11  S   UNL     1       0.223  11.269  19.001  0.00  0.00    +0.000 S 
ATOM     12  O   UNL     1       0.150  11.985  20.256  0.00  0.00    +0.000 OA
ATOM     13  O   UNL     1      -0.921  11.090  18.140  0.00  0.00    +0.000 OA
BRANCH  11  14
ATOM     14  N   UNL     1       1.369  12.056  18.063  0.00  0.00    +0.000 NA
ATOM     15  H   UNL     1       2.030  11.377  17.685  0.00  0.00    +0.000 HD
ATOM     16  H   UNL     1       1.807  12.809  18.594  0.00  0.00    +0.000 HD
ENDBRANCH  11  14
ENDBRANCH   5  11
ENDBRANCH   1   8
BRANCH   2  17
ATOM     17  C   UNL     1       3.479   3.613  19.779  0.00  0.00    +0.000 C 
BRANCH  17  18
ATOM     18  O   UNL     1       4.485   3.356  18.790  0.00  0.00    +0.000 OA
BRANCH  18  19
ATOM     19  C   UNL     1       5.512   4.258  18.800  0.00  0.00    +0.000 C 
ATOM     20  O   UNL     1       5.879   4.849  19.810  0.00  0.00    +0.000 OA
BRANCH  19  21
ATOM     21  C   UNL     1       6.059   4.410  17.462  0.00  0.00    +0.000 A 
ATOM     22  C   UNL     1       7.276   4.932  17.054  0.00  0.00    +0.000 A 
ATOM     23  C   UNL     1       7.440   4.905  15.634  0.00  0.00    +0.000 A 
ATOM     24  C   UNL     1       6.336   4.367  15.011  0.00  0.00    +0.000 A 
ATOM     25  S   UNL     1       5.126   3.904  16.108  0.00  0.00    +0.000 S 
BRANCH  24  26
ATOM     26  N   UNL     1       6.157   4.185  13.592  0.00  0.00    +0.000 N 
ATOM     27  O   UNL     1       5.060   3.734  13.233  0.00  0.00    +0.000 OA
ATOM     28  O   UNL     1       7.089   4.489  12.836  0.00  0.00    +0.000 OA
ENDBRANCH  24  26
ENDBRANCH  19  21
ENDBRANCH  18  19
ENDBRANCH  17  18
ENDBRANCH   2  17
TORSDOF 8
ENDMDL
MODEL 9
REMARK VINA RESULT:      -6.9      1.932      2.390
REMARK  Name = 
REMARK  8 active torsions:
REMARK  status: ('A' for Active; 'I' for Inactive)
REMARK    1  A    between atoms: N_1  and  S_2
REMARK    2  A    between atoms: S_2  and  C_5
REMARK    3  A    between atoms: C_8  and  N_9
REMARK    4  A    between atoms: C_10  and  C_12
REMARK    5  A    between atoms: C_12  and  O_13
REMARK    6  A    between atoms: O_13  and  C_14
REMARK    7  A    between atoms: C_14  and  C_16
REMARK    8  A    between atoms: C_19  and  N_20
REMARK                            x       y       z     vdW  Elec       q    Type
REMARK                         _______ _______ _______ _____ _____    ______ ____
ROOT
ATOM      1  N   UNL     1       2.401   6.836  20.248  0.00  0.00    +0.000 N 
ATOM      2  C   UNL     1       1.968   5.524  20.393  0.00  0.00    +0.000 C 
ATOM      3  O   UNL     1       0.828   5.170  20.690  0.00  0.00    +0.000 OA
ATOM      4  H   UNL     1       3.384   6.984  20.031  0.00  0.00    +0.000 HD
ENDROOT
BRANCH   1   8
ATOM      5  C   UNL     1       0.098  10.356  20.684  0.00  0.00    +0.000 A 
ATOM      6  C   UNL     1       0.305   9.537  21.791  0.00  0.00    +0.000 A 
ATOM      7  C   UNL     1       1.065   8.372  21.657  0.00  0.00    +0.000 A 
ATOM      8  C   UNL     1       1.620   8.005  20.427  0.00  0.00    +0.000 A 
ATOM      9  C   UNL     1       1.396   8.839  19.319  0.00  0.00    +0.000 A 
ATOM     10  C   UNL     1       0.638  10.013  19.444  0.00  0.00    +0.000 A 
BRANCH   5  11
ATOM     11  S   UNL     1      -0.831  11.844  20.870  0.00  0.00    +0.000 S 
ATOM     12  O   UNL     1       0.035  12.973  20.611  0.00  0.00    +0.000 OA
ATOM     13  O   UNL     1      -1.650  11.748  22.055  0.00  0.00    +0.000 OA
BRANCH  11  14
ATOM     14  N   UNL     1      -1.900  11.752  19.580  0.00  0.00    +0.000 NA
ATOM     15  H   UNL     1      -1.840  10.829  19.149  0.00  0.00    +0.000 HD
ATOM     16  H   UNL     1      -1.743  12.523  18.932  0.00  0.00    +0.000 HD
ENDBRANCH  11  14
ENDBRANCH   5  11
ENDBRANCH   1   8
BRANCH   2  17
ATOM     17  C   UNL     1       3.045   4.465  20.133  0.00  0.00    +0.000 C 
BRANCH  17  18
ATOM     18  O   UNL     1       2.667   3.600  19.054  0.00  0.00    +0.000 OA
BRANCH  18  19
ATOM     19  C   UNL     1       2.420   4.257  17.880  0.00  0.00    +0.000 C 
ATOM     20  O   UNL     1       1.315   4.298  17.352  0.00  0.00    +0.000 OA
BRANCH  19  21
ATOM     21  C   UNL     1       3.644   4.856  17.374  0.00  0.00    +0.000 A 
ATOM     22  C   UNL     1       3.976   6.191  17.204  0.00  0.00    +0.000 A 
ATOM     23  C   UNL     1       5.290   6.369  16.671  0.00  0.00    +0.000 A 
ATOM     24  C   UNL     1       5.910   5.160  16.449  0.00  0.00    +0.000 A 
ATOM     25  S   UNL     1       4.934   3.836  16.869  0.00  0.00    +0.000 S 
BRANCH  24  26
ATOM     26  N   UNL     1       7.237   4.962  15.920  0.00  0.00    +0.000 N 
ATOM     27  O   UNL     1       8.048   4.404  16.673  0.00  0.00    +0.000 OA
ATOM     28  O   UNL     1       7.477   5.349  14.770  0.00  0.00    +0.000 OA
ENDBRANCH  24  26
ENDBRANCH  19  21
ENDBRANCH  18  19
ENDBRANCH  17  18
ENDBRANCH   2  17
TORSDOF 8
ENDMDL
