MODEL 1
REMARK VINA RESULT:      -8.7      0.000      0.000
REMARK  Name = 
REMARK  6 active torsions:
REMARK  status: ('A' for Active; 'I' for Inactive)
REMARK    1  A    between atoms: C_1  and  C_2
REMARK    2  A    between atoms: C_2  and  C_3
REMARK    3  A    between atoms: C_5  and  C_6
REMARK    4  A    between atoms: C_9  and  C_10
REMARK    5  A    between atoms: C_12  and  C_13
REMARK    6  A    between atoms: C_20  and  C_21
REMARK                            x       y       z     vdW  Elec       q    Type
REMARK                         _______ _______ _______ _____ _____    ______ ____
ROOT
ATOM      1  C   UNL     1       2.188   7.755  18.686  0.00  0.00    +0.000 A 
ATOM      2  N   UNL     1       1.986   6.475  18.939  0.00  0.00    +0.000 NA
ATOM      3  C   UNL     1       3.058   5.789  18.403  0.00  0.00    +0.000 A 
ATOM      4  C   UNL     1       3.922   6.660  17.748  0.00  0.00    +0.000 A 
ATOM      5  N   UNL     1       3.350   7.896  17.962  0.00  0.00    +0.000 N 
ATOM      6  H   UNL     1       3.719   8.769  17.621  0.00  0.00    +0.000 HD
ENDROOT
BRANCH   3   7
ATOM      7  C   UNL     1       3.200   4.343  18.541  0.00  0.00    +0.000 A 
ATOM      8  C   UNL     1       2.519   3.487  17.662  0.00  0.00    +0.000 A 
ATOM      9  C   UNL     1       2.690   2.103  17.745  0.00  0.00    +0.000 A 
ATOM     10  C   UNL     1       3.548   1.571  18.702  0.00  0.00    +0.000 A 
ATOM     11  F   UNL     1       3.733   0.248  18.766  0.00  0.00    +0.000 F 
ATOM     12  C   UNL     1       4.215   2.396  19.598  0.00  0.00    +0.000 A 
ATOM     13  C   UNL     1       4.017   3.776  19.534  0.00  0.00    +0.000 A 
ENDBRANCH   3   7
BRANCH   1  17
ATOM     14  C   UNL     1      -0.405  10.946  19.948  0.00  0.00    +0.000 A 
ATOM     15  C   UNL     1       0.167  10.077  20.879  0.00  0.00    +0.000 A 
ATOM     16  C   UNL     1       1.023   9.053  20.452  0.00  0.00    +0.000 A 
ATOM     17  C   UNL     1       1.321   8.873  19.093  0.00  0.00    +0.000 A 
ATOM     18  C   UNL     1       0.757   9.771  18.170  0.00  0.00    +0.000 A 
ATOM     19  C   UNL     1      -0.100  10.797  18.594  0.00  0.00    +0.000 A 
BRANCH  14  24
ATOM     20  C   UNL     1      -3.551  12.622  22.657  0.00  0.00    +0.000 C 
ATOM     21  C   UNL     1      -2.587  13.323  21.704  0.00  0.00    +0.000 C 
ATOM     22  C   UNL     1      -2.327  14.763  22.117  0.00  0.00    +0.000 C 
ATOM     23  N   UNL     1      -1.364  12.553  21.618  0.00  0.00    +0.000 N 
ATOM     24  C   UNL     1      -1.397  11.961  20.378  0.00  0.00    +0.000 C 
ATOM     25  N   UNL     1      -2.393  12.338  19.617  0.00  0.00    +0.000 NA
ATOM     26  O   UNL     1      -3.141  13.290  20.378  0.00  0.00    +0.000 OA
ATOM     27  H   UNL     1      -0.517  13.078  21.790  0.00  0.00    +0.000 HD
ENDBRANCH  14  24
ENDBRANCH   1  17
BRANCH   4  28
ATOM     28  C   UNL     1       5.161   6.479  16.987  0.00  0.00    +0.000 A 
ATOM     29  C   UNL     1       5.182   5.708  15.821  0.00  0.00    +0.000 A 
ATOM     30  C   UNL     1       6.399   5.442  15.215  0.00  0.00    +0.000 A 
ATOM     31  N   UNL     1       7.575   5.933  15.654  0.00  0.00    +0.000 NA
ATOM     32  C   UNL     1       7.531   6.721  16.748  0.00  0.00    +0.000 A 
ATOM     33  C   UNL     1       6.368   7.017  17.442  0.00  0.00    +0.000 A 
ENDBRANCH   4  28
TORSDOF 4
ENDMDL
MODEL 2
REMARK VINA RESULT:      -8.5      2.604      4.456
REMARK  Name = 
REMARK  6 active torsions:
REMARK  status: ('A' for Active; 'I' for Inactive)
REMARK    1  A    between atoms: C_1  and  C_2
REMARK    2  A    between atoms: C_2  and  C_3
REMARK    3  A    between atoms: C_5  and  C_6
REMARK    4  A    between atoms: C_9  and  C_10
REMARK    5  A    between atoms: C_12  and  C_13
REMARK    6  A    between atoms: C_20  and  C_21
REMARK                            x       y       z     vdW  Elec       q    Type
REMARK                         _______ _______ _______ _____ _____    ______ ____
ROOT
ATOM      1  C   UNL     1       1.052   8.124  20.761  0.00  0.00    +0.000 A 
ATOM      2  N   UNL     1       2.097   8.210  19.958  0.00  0.00    +0.000 NA
ATOM      3  C   UNL     1       2.475   6.917  19.656  0.00  0.00    +0.000 A 
ATOM      4  C   UNL     1       1.680   6.001  20.335  0.00  0.00    +0.000 A 
ATOM      5  N   UNL     1       0.781   6.798  21.010  0.00  0.00    +0.000 N 
ATOM      6  H   UNL     1       0.047   6.459  21.611  0.00  0.00    +0.000 HD
ENDROOT
BRANCH   3   7
ATOM      7  C   UNL     1       3.573   6.625  18.739  0.00  0.00    +0.000 A 
ATOM      8  C   UNL     1       4.566   5.705  19.110  0.00  0.00    +0.000 A 
ATOM      9  C   UNL     1       5.591   5.372  18.221  0.00  0.00    +0.000 A 
ATOM     10  C   UNL     1       5.623   5.951  16.958  0.00  0.00    +0.000 A 
ATOM     11  F   UNL     1       6.589   5.613  16.096  0.00  0.00    +0.000 F 
ATOM     12  C   UNL     1       4.665   6.881  16.576  0.00  0.00    +0.000 A 
ATOM     13  C   UNL     1       3.660   7.237  17.478  0.00  0.00    +0.000 A 
ENDBRANCH   3   7
BRANCH   1  17
ATOM     14  C   UNL     1      -1.254  11.333  22.459  0.00  0.00    +0.000 A 
ATOM     15  C   UNL     1      -0.832  10.259  23.246  0.00  0.00    +0.000 A 
ATOM     16  C   UNL     1      -0.067   9.231  22.680  0.00  0.00    +0.000 A 
ATOM     17  C   UNL     1       0.287   9.249  21.323  0.00  0.00    +0.000 A 
ATOM     18  C   UNL     1      -0.124  10.348  20.549  0.00  0.00    +0.000 A 
ATOM     19  C   UNL     1      -0.889  11.380  21.112  0.00  0.00    +0.000 A 
BRANCH  14  24
ATOM     20  C   UNL     1      -2.252  14.828  25.074  0.00  0.00    +0.000 C 
ATOM     21  C   UNL     1      -2.885  14.352  23.769  0.00  0.00    +0.000 C 
ATOM     22  C   UNL     1      -3.578  15.486  23.029  0.00  0.00    +0.000 C 
ATOM     23  N   UNL     1      -1.871  13.712  22.958  0.00  0.00    +0.000 N 
ATOM     24  C   UNL     1      -2.155  12.368  23.020  0.00  0.00    +0.000 C 
ATOM     25  N   UNL     1      -3.265  12.071  23.646  0.00  0.00    +0.000 NA
ATOM     26  O   UNL     1      -3.835  13.314  24.067  0.00  0.00    +0.000 OA
ATOM     27  H   UNL     1      -1.798  14.063  22.012  0.00  0.00    +0.000 HD
ENDBRANCH  14  24
ENDBRANCH   1  17
BRANCH   4  28
ATOM     28  C   UNL     1       1.662   4.537  20.416  0.00  0.00    +0.000 A 
ATOM     29  C   UNL     1       2.130   3.876  21.555  0.00  0.00    +0.000 A 
ATOM     30  C   UNL     1       2.231   2.494  21.534  0.00  0.00    +0.000 A 
ATOM     31  N   UNL     1       1.849   1.734  20.489  0.00  0.00    +0.000 NA
ATOM     32  C   UNL     1       1.347   2.384  19.419  0.00  0.00    +0.000 A 
ATOM     33  C   UNL     1       1.238   3.763  19.333  0.00  0.00    +0.000 A 
ENDBRANCH   4  28
TORSDOF 4
ENDMDL
MODEL 3
REMARK VINA RESULT:      -8.5      0.614      1.079
REMARK  Name = 
REMARK  6 active torsions:
REMARK  status: ('A' for Active; 'I' for Inactive)
REMARK    1  A    between atoms: C_1  and  C_2
REMARK    2  A    between atoms: C_2  and  C_3
REMARK    3  A    between atoms: C_5  and  C_6
REMARK    4  A    between atoms: C_9  and  C_10
REMARK    5  A    between atoms: C_12  and  C_13
REMARK    6  A    between atoms: C_20  and  C_21
REMARK                            x       y       z     vdW  Elec       q    Type
REMARK                         _______ _______ _______ _____ _____    ______ ____
ROOT
ATOM      1  C   UNL     1       2.184   7.745  18.722  0.00  0.00    +0.000 A 
ATOM      2  N   UNL     1       1.982   6.464  18.970  0.00  0.00    +0.000 NA
ATOM      3  C   UNL     1       3.050   5.779  18.425  0.00  0.00    +0.000 A 
ATOM      4  C   UNL     1       3.911   6.652  17.769  0.00  0.00    +0.000 A 
ATOM      5  N   UNL     1       3.342   7.888  17.992  0.00  0.00    +0.000 N 
ATOM      6  H   UNL     1       3.710   8.763  17.654  0.00  0.00    +0.000 HD
ENDROOT
BRANCH   3   7
ATOM      7  C   UNL     1       3.192   4.332  18.556  0.00  0.00    +0.000 A 
ATOM      8  C   UNL     1       2.535   3.482  17.652  0.00  0.00    +0.000 A 
ATOM      9  C   UNL     1       2.707   2.098  17.729  0.00  0.00    +0.000 A 
ATOM     10  C   UNL     1       3.540   1.560  18.704  0.00  0.00    +0.000 A 
ATOM     11  F   UNL     1       3.726   0.236  18.762  0.00  0.00    +0.000 F 
ATOM     12  C   UNL     1       4.181   2.379  19.624  0.00  0.00    +0.000 A 
ATOM     13  C   UNL     1       3.982   3.759  19.566  0.00  0.00    +0.000 A 
ENDBRANCH   3   7
BRANCH   1  17
ATOM     14  C   UNL     1      -0.275  11.082  19.869  0.00  0.00    +0.000 A 
ATOM     15  C   UNL     1       0.041  10.852  18.529  0.00  0.00    +0.000 A 
ATOM     16  C   UNL     1       0.829   9.750  18.171  0.00  0.00    +0.000 A 
ATOM     17  C   UNL     1       1.321   8.862  19.140  0.00  0.00    +0.000 A 
ATOM     18  C   UNL     1       0.974   9.093  20.482  0.00  0.00    +0.000 A 
ATOM     19  C   UNL     1       0.185  10.194  20.844  0.00  0.00    +0.000 A 
BRANCH  14  24
ATOM     20  C   UNL     1      -3.967  13.475  20.698  0.00  0.00    +0.000 C 
ATOM     21  C   UNL     1      -2.547  13.623  21.239  0.00  0.00    +0.000 C 
ATOM     22  C   UNL     1      -2.523  14.328  22.586  0.00  0.00    +0.000 C 
ATOM     23  N   UNL     1      -1.926  12.316  21.298  0.00  0.00    +0.000 N 
ATOM     24  C   UNL     1      -1.014  12.304  20.269  0.00  0.00    +0.000 C 
ATOM     25  N   UNL     1      -0.876  13.446  19.645  0.00  0.00    +0.000 NA
ATOM     26  O   UNL     1      -1.765  14.365  20.287  0.00  0.00    +0.000 OA
ATOM     27  H   UNL     1      -1.523  12.077  22.194  0.00  0.00    +0.000 HD
ENDBRANCH  14  24
ENDBRANCH   1  17
BRANCH   4  28
ATOM     28  C   UNL     1       5.146   6.473  17.001  0.00  0.00    +0.000 A 
ATOM     29  C   UNL     1       5.155   5.726  15.820  0.00  0.00    +0.000 A 
ATOM     30  C   UNL     1       6.367   5.459  15.204  0.00  0.00    +0.000 A 
ATOM     31  N   UNL     1       7.549   5.929  15.648  0.00  0.00    +0.000 NA
ATOM     32  C   UNL     1       7.517   6.695  16.758  0.00  0.00    +0.000 A 
ATOM     33  C   UNL     1       6.360   6.989  17.462  0.00  0.00    +0.000 A 
ENDBRANCH   4  28
TORSDOF 4
ENDMDL
MODEL 4
REMARK VINA RESULT:      -8.5      2.084      2.548
REMARK  Name = 
REMARK  6 active torsions:
REMARK  status: ('A' for Active; 'I' for Inactive)
REMARK    1  A    between atoms: C_1  and  C_2
REMARK    2  A    between atoms: C_2  and  C_3
REMARK    3  A    between atoms: C_5  and  C_6
REMARK    4  A    between atoms: C_9  and  C_10
REMARK    5  A    between atoms: C_12  and  C_13
REMARK    6  A    between atoms: C_20  and  C_21
REMARK                            x       y       z     vdW  Elec       q    Type
REMARK                         _______ _______ _______ _____ _____    ______ ____
ROOT
ATOM      1  C   UNL     1       2.210   8.533  18.174  0.00  0.00    +0.000 A 
ATOM      2  N   UNL     1       1.662   7.376  18.498  0.00  0.00    +0.000 NA
ATOM      3  C   UNL     1       2.593   6.399  18.206  0.00  0.00    +0.000 A 
ATOM      4  C   UNL     1       3.729   6.957  17.630  0.00  0.00    +0.000 A 
ATOM      5  N   UNL     1       3.459   8.309  17.642  0.00  0.00    +0.000 N 
ATOM      6  H   UNL     1       4.079   9.024  17.294  0.00  0.00    +0.000 HD
ENDROOT
BRANCH   3   7
ATOM      7  C   UNL     1       2.349   4.987  18.488  0.00  0.00    +0.000 A 
ATOM      8  C   UNL     1       1.857   4.601  19.744  0.00  0.00    +0.000 A 
ATOM      9  C   UNL     1       1.565   3.261  20.009  0.00  0.00    +0.000 A 
ATOM     10  C   UNL     1       1.757   2.305  19.018  0.00  0.00    +0.000 A 
ATOM     11  F   UNL     1       1.453   1.025  19.262  0.00  0.00    +0.000 F 
ATOM     12  C   UNL     1       2.265   2.659  17.776  0.00  0.00    +0.000 A 
ATOM     13  C   UNL     1       2.587   3.994  17.524  0.00  0.00    +0.000 A 
ENDBRANCH   3   7
BRANCH   1  17
ATOM     14  C   UNL     1       0.530  12.456  18.709  0.00  0.00    +0.000 A 
ATOM     15  C   UNL     1       1.857  12.293  18.307  0.00  0.00    +0.000 A 
ATOM     16  C   UNL     1       2.383  11.008  18.121  0.00  0.00    +0.000 A 
ATOM     17  C   UNL     1       1.602   9.863  18.336  0.00  0.00    +0.000 A 
ATOM     18  C   UNL     1       0.261  10.043  18.716  0.00  0.00    +0.000 A 
ATOM     19  C   UNL     1      -0.270  11.328  18.904  0.00  0.00    +0.000 A 
BRANCH  14  24
ATOM     20  C   UNL     1       0.782  16.628  20.313  0.00  0.00    +0.000 C 
ATOM     21  C   UNL     1      -0.113  16.035  19.229  0.00  0.00    +0.000 C 
ATOM     22  C   UNL     1      -0.592  17.092  18.247  0.00  0.00    +0.000 C 
ATOM     23  N   UNL     1       0.595  14.959  18.568  0.00  0.00    +0.000 N 
ATOM     24  C   UNL     1      -0.004  13.805  19.015  0.00  0.00    +0.000 C 
ATOM     25  N   UNL     1      -1.062  13.990  19.761  0.00  0.00    +0.000 NA
ATOM     26  O   UNL     1      -1.245  15.406  19.856  0.00  0.00    +0.000 OA
ATOM     27  H   UNL     1       0.629  15.028  17.559  0.00  0.00    +0.000 HD
ENDBRANCH  14  24
ENDBRANCH   1  17
BRANCH   4  28
ATOM     28  C   UNL     1       4.978   6.400  17.103  0.00  0.00    +0.000 A 
ATOM     29  C   UNL     1       5.132   6.152  15.736  0.00  0.00    +0.000 A 
ATOM     30  C   UNL     1       6.269   5.491  15.299  0.00  0.00    +0.000 A 
ATOM     31  N   UNL     1       7.274   5.117  16.114  0.00  0.00    +0.000 NA
ATOM     32  C   UNL     1       7.135   5.413  17.422  0.00  0.00    +0.000 A 
ATOM     33  C   UNL     1       6.022   6.040  17.959  0.00  0.00    +0.000 A 
ENDBRANCH   4  28
TORSDOF 4
ENDMDL
MODEL 5
REMARK VINA RESULT:      -8.4      2.502      4.313
REMARK  Name = 
REMARK  6 active torsions:
REMARK  status: ('A' for Active; 'I' for Inactive)
REMARK    1  A    between atoms: C_1  and  C_2
REMARK    2  A    between atoms: C_2  and  C_3
REMARK    3  A    between atoms: C_5  and  C_6
REMARK    4  A    between atoms: C_9  and  C_10
REMARK    5  A    between atoms: C_12  and  C_13
REMARK    6  A    between atoms: C_20  and  C_21
REMARK                            x       y       z     vdW  Elec       q    Type
REMARK                         _______ _______ _______ _____ _____    ______ ____
ROOT
ATOM      1  C   UNL     1       1.386   7.898  20.495  0.00  0.00    +0.000 A 
ATOM      2  N   UNL     1       2.474   7.993  19.751  0.00  0.00    +0.000 NA
ATOM      3  C   UNL     1       2.789   6.714  19.339  0.00  0.00    +0.000 A 
ATOM      4  C   UNL     1       1.908   5.789  19.889  0.00  0.00    +0.000 A 
ATOM      5  N   UNL     1       1.024   6.574  20.599  0.00  0.00    +0.000 N 
ATOM      6  H   UNL     1       0.242   6.226  21.131  0.00  0.00    +0.000 HD
ENDROOT
BRANCH   3   7
ATOM      7  C   UNL     1       3.912   6.441  18.448  0.00  0.00    +0.000 A 
ATOM      8  C   UNL     1       4.945   5.588  18.868  0.00  0.00    +0.000 A 
ATOM      9  C   UNL     1       5.998   5.273  18.005  0.00  0.00    +0.000 A 
ATOM     10  C   UNL     1       6.017   5.801  16.719  0.00  0.00    +0.000 A 
ATOM     11  F   UNL     1       7.010   5.478  15.883  0.00  0.00    +0.000 F 
ATOM     12  C   UNL     1       5.018   6.664  16.289  0.00  0.00    +0.000 A 
ATOM     13  C   UNL     1       3.985   7.005  17.164  0.00  0.00    +0.000 A 
ENDBRANCH   3   7
BRANCH   1  17
ATOM     14  C   UNL     1      -0.809  11.070  22.397  0.00  0.00    +0.000 A 
ATOM     15  C   UNL     1      -0.495   9.899  23.090  0.00  0.00    +0.000 A 
ATOM     16  C   UNL     1       0.236   8.883  22.460  0.00  0.00    +0.000 A 
ATOM     17  C   UNL     1       0.662   9.010  21.130  0.00  0.00    +0.000 A 
ATOM     18  C   UNL     1       0.360  10.204  20.453  0.00  0.00    +0.000 A 
ATOM     19  C   UNL     1      -0.370  11.224  21.080  0.00  0.00    +0.000 A 
BRANCH  14  24
ATOM     20  C   UNL     1      -4.362  13.788  22.564  0.00  0.00    +0.000 C 
ATOM     21  C   UNL     1      -3.518  13.189  23.686  0.00  0.00    +0.000 C 
ATOM     22  C   UNL     1      -4.293  13.095  24.991  0.00  0.00    +0.000 C 
ATOM     23  N   UNL     1      -3.012  11.901  23.260  0.00  0.00    +0.000 N 
ATOM     24  C   UNL     1      -1.674  12.102  23.016  0.00  0.00    +0.000 C 
ATOM     25  N   UNL     1      -1.230  13.289  23.342  0.00  0.00    +0.000 NA
ATOM     26  O   UNL     1      -2.349  14.005  23.872  0.00  0.00    +0.000 OA
ATOM     27  H   UNL     1      -3.193  11.139  23.900  0.00  0.00    +0.000 HD
ENDBRANCH  14  24
ENDBRANCH   1  17
BRANCH   4  28
ATOM     28  C   UNL     1       1.799   4.329  19.825  0.00  0.00    +0.000 A 
ATOM     29  C   UNL     1       1.982   3.544  20.967  0.00  0.00    +0.000 A 
ATOM     30  C   UNL     1       2.016   2.165  20.835  0.00  0.00    +0.000 A 
ATOM     31  N   UNL     1       1.824   1.522  19.667  0.00  0.00    +0.000 NA
ATOM     32  C   UNL     1       1.594   2.292  18.584  0.00  0.00    +0.000 A 
ATOM     33  C   UNL     1       1.575   3.678  18.609  0.00  0.00    +0.000 A 
ENDBRANCH   4  28
TORSDOF 4
ENDMDL
MODEL 6
REMARK VINA RESULT:      -8.4      0.669      1.061
REMARK  Name = 
REMARK  6 active torsions:
REMARK  status: ('A' for Active; 'I' for Inactive)
REMARK    1  A    between atoms: C_1  and  C_2
REMARK    2  A    between atoms: C_2  and  C_3
REMARK    3  A    between atoms: C_5  and  C_6
REMARK    4  A    between atoms: C_9  and  C_10
REMARK    5  A    between atoms: C_12  and  C_13
REMARK    6  A    between atoms: C_20  and  C_21
REMARK                            x       y       z     vdW  Elec       q    Type
REMARK                         _______ _______ _______ _____ _____    ______ ____
ROOT
ATOM      1  C   UNL     1       2.224   7.675  18.897  0.00  0.00    +0.000 A 
ATOM      2  N   UNL     1       2.028   6.389  19.124  0.00  0.00    +0.000 NA
ATOM      3  C   UNL     1       3.079   5.716  18.533  0.00  0.00    +0.000 A 
ATOM      4  C   UNL     1       3.921   6.602  17.870  0.00  0.00    +0.000 A 
ATOM      5  N   UNL     1       3.360   7.833  18.136  0.00  0.00    +0.000 N 
ATOM      6  H   UNL     1       3.719   8.714  17.805  0.00  0.00    +0.000 HD
ENDROOT
BRANCH   3   7
ATOM      7  C   UNL     1       3.223   4.266  18.629  0.00  0.00    +0.000 A 
ATOM      8  C   UNL     1       2.550   3.436  17.719  0.00  0.00    +0.000 A 
ATOM      9  C   UNL     1       2.723   2.050  17.762  0.00  0.00    +0.000 A 
ATOM     10  C   UNL     1       3.574   1.492  18.709  0.00  0.00    +0.000 A 
ATOM     11  F   UNL     1       3.761   0.167  18.735  0.00  0.00    +0.000 F 
ATOM     12  C   UNL     1       4.233   2.290  19.634  0.00  0.00    +0.000 A 
ATOM     13  C   UNL     1       4.033   3.671  19.610  0.00  0.00    +0.000 A 
ENDBRANCH   3   7
BRANCH   1  17
ATOM     14  C   UNL     1      -0.320  10.835  20.327  0.00  0.00    +0.000 A 
ATOM     15  C   UNL     1       0.231   9.903  21.209  0.00  0.00    +0.000 A 
ATOM     16  C   UNL     1       1.071   8.890  20.728  0.00  0.00    +0.000 A 
ATOM     17  C   UNL     1       1.375   8.783  19.363  0.00  0.00    +0.000 A 
ATOM     18  C   UNL     1       0.834   9.743  18.490  0.00  0.00    +0.000 A 
ATOM     19  C   UNL     1      -0.008  10.759  18.968  0.00  0.00    +0.000 A 
BRANCH  14  24
ATOM     20  C   UNL     1      -2.042  14.955  20.650  0.00  0.00    +0.000 C 
ATOM     21  C   UNL     1      -2.703  13.588  20.810  0.00  0.00    +0.000 C 
ATOM     22  C   UNL     1      -4.197  13.644  20.533  0.00  0.00    +0.000 C 
ATOM     23  N   UNL     1      -2.027  12.634  19.956  0.00  0.00    +0.000 N 
ATOM     24  C   UNL     1      -1.296  11.841  20.808  0.00  0.00    +0.000 C 
ATOM     25  N   UNL     1      -1.502  12.069  22.080  0.00  0.00    +0.000 NA
ATOM     26  O   UNL     1      -2.473  13.117  22.149  0.00  0.00    +0.000 OA
ATOM     27  H   UNL     1      -2.634  12.108  19.341  0.00  0.00    +0.000 HD
ENDBRANCH  14  24
ENDBRANCH   1  17
BRANCH   4  28
ATOM     28  C   UNL     1       5.133   6.439  17.061  0.00  0.00    +0.000 A 
ATOM     29  C   UNL     1       5.114   5.684  15.885  0.00  0.00    +0.000 A 
ATOM     30  C   UNL     1       6.310   5.434  15.231  0.00  0.00    +0.000 A 
ATOM     31  N   UNL     1       7.498   5.926  15.632  0.00  0.00    +0.000 NA
ATOM     32  C   UNL     1       7.490   6.698  16.738  0.00  0.00    +0.000 A 
ATOM     33  C   UNL     1       6.352   6.977  17.479  0.00  0.00    +0.000 A 
ENDBRANCH   4  28
TORSDOF 4
ENDMDL
MODEL 7
REMARK VINA RESULT:      -8.4      2.542      4.461
REMARK  Name = 
REMARK  6 active torsions:
REMARK  status: ('A' for Active; 'I' for Inactive)
REMARK    1  A    between atoms: C_1  and  C_2
REMARK    2  A    between atoms: C_2  and  C_3
REMARK    3  A    between atoms: C_5  and  C_6
REMARK    4  A    between atoms: C_9  and  C_10
REMARK    5  A    between atoms: C_12  and  C_13
REMARK    6  A    between atoms: C_20  and  C_21
REMARK                            x       y       z     vdW  Elec       q    Type
REMARK                         _______ _______ _______ _____ _____    ______ ____
ROOT
ATOM      1  C   UNL     1       1.298   8.010  20.640  0.00  0.00    +0.000 A 
ATOM      2  N   UNL     1       2.364   8.061  19.861  0.00  0.00    +0.000 NA
ATOM      3  C   UNL     1       2.673   6.758  19.524  0.00  0.00    +0.000 A 
ATOM      4  C   UNL     1       1.811   5.868  20.156  0.00  0.00    +0.000 A 
ATOM      5  N   UNL     1       0.945   6.695  20.839  0.00  0.00    +0.000 N 
ATOM      6  H   UNL     1       0.179   6.380  21.414  0.00  0.00    +0.000 HD
ENDROOT
BRANCH   3   7
ATOM      7  C   UNL     1       3.772   6.431  18.621  0.00  0.00    +0.000 A 
ATOM      8  C   UNL     1       4.739   5.491  19.009  0.00  0.00    +0.000 A 
ATOM      9  C   UNL     1       5.765   5.126  18.133  0.00  0.00    +0.000 A 
ATOM     10  C   UNL     1       5.822   5.694  16.865  0.00  0.00    +0.000 A 
ATOM     11  F   UNL     1       6.788   5.325  16.016  0.00  0.00    +0.000 F 
ATOM     12  C   UNL     1       4.891   6.643  16.467  0.00  0.00    +0.000 A 
ATOM     13  C   UNL     1       3.886   7.030  17.355  0.00  0.00    +0.000 A 
ENDBRANCH   3   7
BRANCH   1  17
ATOM     14  C   UNL     1      -0.690  11.441  22.306  0.00  0.00    +0.000 A 
ATOM     15  C   UNL     1      -0.142  11.483  21.023  0.00  0.00    +0.000 A 
ATOM     16  C   UNL     1       0.488  10.351  20.489  0.00  0.00    +0.000 A 
ATOM     17  C   UNL     1       0.587   9.160  21.223  0.00  0.00    +0.000 A 
ATOM     18  C   UNL     1       0.009   9.124  22.503  0.00  0.00    +0.000 A 
ATOM     19  C   UNL     1      -0.622  10.256  23.042  0.00  0.00    +0.000 A 
BRANCH  14  24
ATOM     20  C   UNL     1      -3.098  15.215  22.304  0.00  0.00    +0.000 C 
ATOM     21  C   UNL     1      -2.724  14.278  23.449  0.00  0.00    +0.000 C 
ATOM     22  C   UNL     1      -3.712  14.368  24.601  0.00  0.00    +0.000 C 
ATOM     23  N   UNL     1      -2.608  12.929  22.936  0.00  0.00    +0.000 N 
ATOM     24  C   UNL     1      -1.259  12.664  22.922  0.00  0.00    +0.000 C 
ATOM     25  N   UNL     1      -0.512  13.592  23.463  0.00  0.00    +0.000 NA
ATOM     26  O   UNL     1      -1.405  14.615  23.912  0.00  0.00    +0.000 OA
ATOM     27  H   UNL     1      -3.148  12.235  23.436  0.00  0.00    +0.000 HD
ENDBRANCH  14  24
ENDBRANCH   1  17
BRANCH   4  28
ATOM     28  C   UNL     1       1.707   4.407  20.189  0.00  0.00    +0.000 A 
ATOM     29  C   UNL     1       1.975   3.694  21.361  0.00  0.00    +0.000 A 
ATOM     30  C   UNL     1       2.008   2.310  21.311  0.00  0.00    +0.000 A 
ATOM     31  N   UNL     1       1.739   1.596  20.200  0.00  0.00    +0.000 NA
ATOM     32  C   UNL     1       1.428   2.298  19.091  0.00  0.00    +0.000 A 
ATOM     33  C   UNL     1       1.402   3.683  19.034  0.00  0.00    +0.000 A 
ENDBRANCH   4  28
TORSDOF 4
ENDMDL
MODEL 8
REMARK VINA RESULT:      -8.3      2.557      4.281
REMARK  Name = 
REMARK  6 active torsions:
REMARK  status: ('A' for Active; 'I' for Inactive)
REMARK    1  A    between atoms: C_1  and  C_2
REMARK    2  A    between atoms: C_2  and  C_3
REMARK    3  A    between atoms: C_5  and  C_6
REMARK    4  A    between atoms: C_9  and  C_10
REMARK    5  A    between atoms: C_12  and  C_13
REMARK    6  A    between atoms: C_20  and  C_21
REMARK                            x       y       z     vdW  Elec       q    Type
REMARK                         _______ _______ _______ _____ _____    ______ ____
ROOT
ATOM      1  C   UNL     1       2.100   8.499  18.620  0.00  0.00    +0.000 A 
ATOM      2  N   UNL     1       3.171   8.160  17.924  0.00  0.00    +0.000 NA
ATOM      3  C   UNL     1       3.354   6.805  18.110  0.00  0.00    +0.000 A 
ATOM      4  C   UNL     1       2.406   6.296  18.991  0.00  0.00    +0.000 A 
ATOM      5  N   UNL     1       1.619   7.391  19.279  0.00  0.00    +0.000 N 
ATOM      6  H   UNL     1       0.823   7.383  19.896  0.00  0.00    +0.000 HD
ENDROOT
BRANCH   3   7
ATOM      7  C   UNL     1       4.423   6.068  17.441  0.00  0.00    +0.000 A 
ATOM      8  C   UNL     1       4.140   4.847  16.810  0.00  0.00    +0.000 A 
ATOM      9  C   UNL     1       5.140   4.160  16.118  0.00  0.00    +0.000 A 
ATOM     10  C   UNL     1       6.422   4.694  16.048  0.00  0.00    +0.000 A 
ATOM     11  F   UNL     1       7.373   4.049  15.362  0.00  0.00    +0.000 F 
ATOM     12  C   UNL     1       6.731   5.888  16.683  0.00  0.00    +0.000 A 
ATOM     13  C   UNL     1       5.739   6.557  17.403  0.00  0.00    +0.000 A 
ENDBRANCH   3   7
BRANCH   1  17
ATOM     14  C   UNL     1       0.453  12.462  18.897  0.00  0.00    +0.000 A 
ATOM     15  C   UNL     1       1.695  12.242  18.297  0.00  0.00    +0.000 A 
ATOM     16  C   UNL     1       2.208  10.942  18.200  0.00  0.00    +0.000 A 
ATOM     17  C   UNL     1       1.500   9.841  18.701  0.00  0.00    +0.000 A 
ATOM     18  C   UNL     1       0.241  10.074  19.280  0.00  0.00    +0.000 A 
ATOM     19  C   UNL     1      -0.278  11.374  19.379  0.00  0.00    +0.000 A 
BRANCH  14  24
ATOM     20  C   UNL     1       0.803  16.733  20.197  0.00  0.00    +0.000 C 
ATOM     21  C   UNL     1      -0.106  16.084  19.156  0.00  0.00    +0.000 C 
ATOM     22  C   UNL     1      -0.558  17.079  18.098  0.00  0.00    +0.000 C 
ATOM     23  N   UNL     1       0.578  14.947  18.576  0.00  0.00    +0.000 N 
ATOM     24  C   UNL     1      -0.049  13.842  19.103  0.00  0.00    +0.000 C 
ATOM     25  N   UNL     1      -1.103  14.106  19.831  0.00  0.00    +0.000 NA
ATOM     26  O   UNL     1      -1.252  15.529  19.823  0.00  0.00    +0.000 OA
ATOM     27  H   UNL     1       0.615  14.943  17.565  0.00  0.00    +0.000 HD
ENDBRANCH  14  24
ENDBRANCH   1  17
BRANCH   4  28
ATOM     28  C   UNL     1       2.161   4.968  19.562  0.00  0.00    +0.000 A 
ATOM     29  C   UNL     1       1.458   3.997  18.843  0.00  0.00    +0.000 A 
ATOM     30  C   UNL     1       1.122   2.810  19.473  0.00  0.00    +0.000 A 
ATOM     31  N   UNL     1       1.483   2.506  20.735  0.00  0.00    +0.000 NA
ATOM     32  C   UNL     1       2.208   3.431  21.396  0.00  0.00    +0.000 A 
ATOM     33  C   UNL     1       2.564   4.660  20.863  0.00  0.00    +0.000 A 
ENDBRANCH   4  28
TORSDOF 4
ENDMDL
MODEL 9
REMARK VINA RESULT:      -8.3      4.500     10.855
REMARK  Name = 
REMARK  6 active torsions:
REMARK  status: ('A' for Active; 'I' for Inactive)
REMARK    1  A    between atoms: C_1  and  C_2
REMARK    2  A    between atoms: C_2  and  C_3
REMARK    3  A    between atoms: C_5  and  C_6
REMARK    4  A    between atoms: C_9  and  C_10
REMARK    5  A    between atoms: C_12  and  C_13
REMARK    6  A    between atoms: C_20  and  C_21
REMARK                            x       y       z     vdW  Elec       q    Type
REMARK                         _______ _______ _______ _____ _____    ______ ____
ROOT
ATOM      1  C   UNL     1       0.574  10.567  19.856  0.00  0.00    +0.000 A 
ATOM      2  N   UNL     1       0.880  11.804  19.507  0.00  0.00    +0.000 NA
ATOM      3  C   UNL     1      -0.039  12.630  20.122  0.00  0.00    +0.000 A 
ATOM      4  C   UNL     1      -0.978  11.885  20.826  0.00  0.00    +0.000 A 
ATOM      5  N   UNL     1      -0.550  10.586  20.650  0.00  0.00    +0.000 N 
ATOM      6  H   UNL     1      -1.005   9.772  21.031  0.00  0.00    +0.000 HD
ENDROOT
BRANCH   3   7
ATOM      7  C   UNL     1       0.025  14.084  20.004  0.00  0.00    +0.000 A 
ATOM      8  C   UNL     1       0.447  14.856  21.098  0.00  0.00    +0.000 A 
ATOM      9  C   UNL     1       0.568  16.243  20.981  0.00  0.00    +0.000 A 
ATOM     10  C   UNL     1       0.274  16.861  19.771  0.00  0.00    +0.000 A 
ATOM     11  F   UNL     1       0.415  18.186  19.652  0.00  0.00    +0.000 F 
ATOM     12  C   UNL     1      -0.168  16.122  18.683  0.00  0.00    +0.000 A 
ATOM     13  C   UNL     1      -0.319  14.740  18.810  0.00  0.00    +0.000 A 
ENDBRANCH   3   7
BRANCH   1  17
ATOM     14  C   UNL     1       2.740   6.999  18.819  0.00  0.00    +0.000 A 
ATOM     15  C   UNL     1       2.142   7.136  20.074  0.00  0.00    +0.000 A 
ATOM     16  C   UNL     1       1.426   8.298  20.389  0.00  0.00    +0.000 A 
ATOM     17  C   UNL     1       1.295   9.346  19.464  0.00  0.00    +0.000 A 
ATOM     18  C   UNL     1       1.881   9.183  18.197  0.00  0.00    +0.000 A 
ATOM     19  C   UNL     1       2.599   8.021  17.878  0.00  0.00    +0.000 A 
BRANCH  14  24
ATOM     20  C   UNL     1       3.471   2.709  17.770  0.00  0.00    +0.000 C 
ATOM     21  C   UNL     1       4.330   3.948  17.533  0.00  0.00    +0.000 C 
ATOM     22  C   UNL     1       5.281   3.764  16.360  0.00  0.00    +0.000 C 
ATOM     23  N   UNL     1       3.465   5.096  17.356  0.00  0.00    +0.000 N 
ATOM     24  C   UNL     1       3.591   5.824  18.516  0.00  0.00    +0.000 C 
ATOM     25  N   UNL     1       4.497   5.378  19.347  0.00  0.00    +0.000 NA
ATOM     26  O   UNL     1       5.080   4.227  18.728  0.00  0.00    +0.000 OA
ATOM     27  H   UNL     1       3.642   5.637  16.521  0.00  0.00    +0.000 HD
ENDBRANCH  14  24
ENDBRANCH   1  17
BRANCH   4  28
ATOM     28  C   UNL     1      -2.168  12.230  21.609  0.00  0.00    +0.000 A 
ATOM     29  C   UNL     1      -2.196  12.039  22.993  0.00  0.00    +0.000 A 
ATOM     30  C   UNL     1      -3.386  12.240  23.674  0.00  0.00    +0.000 A 
ATOM     31  N   UNL     1      -4.520  12.668  23.084  0.00  0.00    +0.000 NA
ATOM     32  C   UNL     1      -4.461  12.901  21.758  0.00  0.00    +0.000 A 
ATOM     33  C   UNL     1      -3.328  12.697  20.986  0.00  0.00    +0.000 A 
ENDBRANCH   4  28
TORSDOF 4
ENDMDL
