MODEL 1
REMARK VINA RESULT:      -5.4      0.000      0.000
REMARK  Name = 
REMARK  6 active torsions:
REMARK  status: ('A' for Active; 'I' for Inactive)
REMARK    1  A    between atoms: C_1  and  O_2
REMARK    2  A    between atoms: O_2  and  C_3
REMARK    3  A    between atoms: C_4  and  O_5
REMARK    4  A    between atoms: C_6  and  C_7
REMARK    5  A    between atoms: C_10  and  O_11
REMARK    6  A    between atoms: O_11  and  C_12
REMARK                            x       y       z     vdW  Elec       q    Type
REMARK                         _______ _______ _______ _____ _____    ______ ____
ROOT
ATOM      1  C   UNL     1       2.942   3.787  18.793  0.00  0.00    +0.000 A 
ATOM      2  C   UNL     1       3.846   3.368  17.803  0.00  0.00    +0.000 A 
ATOM      3  C   UNL     1       4.532   4.266  16.982  0.00  0.00    +0.000 A 
ATOM      4  C   UNL     1       5.564   3.782  15.996  0.00  0.00    +0.000 C 
ATOM      5  C   UNL     1       4.258   5.636  17.149  0.00  0.00    +0.000 A 
ATOM      6 CL   UNL     1       5.055   6.798  16.124  0.00  0.00    +0.000 Cl
ATOM      7  C   UNL     1       3.370   6.094  18.149  0.00  0.00    +0.000 A 
ATOM      8  C   UNL     1       2.744   5.162  19.003  0.00  0.00    +0.000 A 
ATOM      9 CL   UNL     1       1.902   5.710  20.419  0.00  0.00    +0.000 Cl
ENDROOT
BRANCH   1  11
ATOM     10  C   UNL     1       1.082   2.391  19.315  0.00  0.00    +0.000 C 
ATOM     11  O   UNL     1       2.441   2.753  19.553  0.00  0.00    +0.000 OA
ENDBRANCH   1  11
BRANCH   2  12
ATOM     12  O   UNL     1       4.081   2.021  17.664  0.00  0.00    +0.000 OA
ATOM     13  H   UNL     1       3.419   1.573  18.229  0.00  0.00    +0.000 HD
ENDBRANCH   2  12
BRANCH   7  14
ATOM     14  O   UNL     1       3.305   7.461  18.321  0.00  0.00    +0.000 OA
ATOM     15  C   UNL     1       2.152   8.114  17.792  0.00  0.00    +0.000 C 
ENDBRANCH   7  14
TORSDOF 3
ENDMDL
MODEL 2
REMARK VINA RESULT:      -5.2      1.687      3.769
REMARK  Name = 
REMARK  6 active torsions:
REMARK  status: ('A' for Active; 'I' for Inactive)
REMARK    1  A    between atoms: C_1  and  O_2
REMARK    2  A    between atoms: O_2  and  C_3
REMARK    3  A    between atoms: C_4  and  O_5
REMARK    4  A    between atoms: C_6  and  C_7
REMARK    5  A    between atoms: C_10  and  O_11
REMARK    6  A    between atoms: O_11  and  C_12
REMARK                            x       y       z     vdW  Elec       q    Type
REMARK                         _______ _______ _______ _____ _____    ______ ____
ROOT
ATOM      1  C   UNL     1       5.023   4.525  18.267  0.00  0.00    +0.000 A 
ATOM      2  C   UNL     1       4.556   3.630  19.244  0.00  0.00    +0.000 A 
ATOM      3  C   UNL     1       3.326   3.792  19.885  0.00  0.00    +0.000 A 
ATOM      4  C   UNL     1       2.817   2.760  20.859  0.00  0.00    +0.000 C 
ATOM      5  C   UNL     1       2.562   4.925  19.548  0.00  0.00    +0.000 A 
ATOM      6 CL   UNL     1       1.039   5.198  20.346  0.00  0.00    +0.000 Cl
ATOM      7  C   UNL     1       2.992   5.834  18.554  0.00  0.00    +0.000 A 
ATOM      8  C   UNL     1       4.211   5.605  17.881  0.00  0.00    +0.000 A 
ATOM      9 CL   UNL     1       4.605   6.522  16.461  0.00  0.00    +0.000 Cl
ENDROOT
BRANCH   1  11
ATOM     10  C   UNL     1       7.355   4.938  17.999  0.00  0.00    +0.000 C 
ATOM     11  O   UNL     1       6.214   4.139  17.692  0.00  0.00    +0.000 OA
ENDBRANCH   1  11
BRANCH   2  12
ATOM     12  O   UNL     1       5.333   2.540  19.553  0.00  0.00    +0.000 OA
ATOM     13  H   UNL     1       6.225   2.893  19.748  0.00  0.00    +0.000 HD
ENDBRANCH   2  12
BRANCH   7  14
ATOM     14  O   UNL     1       2.089   6.814  18.199  0.00  0.00    +0.000 OA
ATOM     15  C   UNL     1       2.310   8.112  18.747  0.00  0.00    +0.000 C 
ENDBRANCH   7  14
TORSDOF 3
ENDMDL
MODEL 3
REMARK VINA RESULT:      -5.2      1.964      3.584
REMARK  Name = 
REMARK  6 active torsions:
REMARK  status: ('A' for Active; 'I' for Inactive)
REMARK    1  A    between atoms: C_1  and  O_2
REMARK    2  A    between atoms: O_2  and  C_3
REMARK    3  A    between atoms: C_4  and  O_5
REMARK    4  A    between atoms: C_6  and  C_7
REMARK    5  A    between atoms: C_10  and  O_11
REMARK    6  A    between atoms: O_11  and  C_12
REMARK                            x       y       z     vdW  Elec       q    Type
REMARK                         _______ _______ _______ _____ _____    ______ ____
ROOT
ATOM      1  C   UNL     1       3.237   5.001  20.016  0.00  0.00    +0.000 A 
ATOM      2  C   UNL     1       2.786   6.254  19.567  0.00  0.00    +0.000 A 
ATOM      3  C   UNL     1       3.241   6.836  18.381  0.00  0.00    +0.000 A 
ATOM      4  C   UNL     1       2.663   8.136  17.885  0.00  0.00    +0.000 C 
ATOM      5  C   UNL     1       4.220   6.138  17.649  0.00  0.00    +0.000 A 
ATOM      6 CL   UNL     1       4.853   6.837  16.185  0.00  0.00    +0.000 Cl
ATOM      7  C   UNL     1       4.681   4.866  18.061  0.00  0.00    +0.000 A 
ATOM      8  C   UNL     1       4.151   4.279  19.229  0.00  0.00    +0.000 A 
ATOM      9 CL   UNL     1       4.468   2.609  19.583  0.00  0.00    +0.000 Cl
ENDROOT
BRANCH   1  11
ATOM     10  C   UNL     1       1.528   3.641  20.968  0.00  0.00    +0.000 C 
ATOM     11  O   UNL     1       2.600   4.564  21.156  0.00  0.00    +0.000 OA
ENDBRANCH   1  11
BRANCH   2  12
ATOM     12  O   UNL     1       1.837   6.910  20.313  0.00  0.00    +0.000 OA
ATOM     13  H   UNL     1       1.925   7.858  20.085  0.00  0.00    +0.000 HD
ENDBRANCH   2  12
BRANCH   7  14
ATOM     14  O   UNL     1       5.518   4.212  17.182  0.00  0.00    +0.000 OA
ATOM     15  C   UNL     1       6.916   4.428  17.355  0.00  0.00    +0.000 C 
ENDBRANCH   7  14
TORSDOF 3
ENDMDL
MODEL 4
REMARK VINA RESULT:      -5.0      1.963      3.501
REMARK  Name = 
REMARK  6 active torsions:
REMARK  status: ('A' for Active; 'I' for Inactive)
REMARK    1  A    between atoms: C_1  and  O_2
REMARK    2  A    between atoms: O_2  and  C_3
REMARK    3  A    between atoms: C_4  and  O_5
REMARK    4  A    between atoms: C_6  and  C_7
REMARK    5  A    between atoms: C_10  and  O_11
REMARK    6  A    between atoms: O_11  and  C_12
REMARK                            x       y       z     vdW  Elec       q    Type
REMARK                         _______ _______ _______ _____ _____    ______ ____
ROOT
ATOM      1  C   UNL     1       2.608   3.921  19.383  0.00  0.00    +0.000 A 
ATOM      2  C   UNL     1       2.332   5.294  19.487  0.00  0.00    +0.000 A 
ATOM      3  C   UNL     1       2.869   6.238  18.608  0.00  0.00    +0.000 A 
ATOM      4  C   UNL     1       2.474   7.690  18.694  0.00  0.00    +0.000 C 
ATOM      5  C   UNL     1       3.748   5.771  17.613  0.00  0.00    +0.000 A 
ATOM      6 CL   UNL     1       4.478   6.910  16.516  0.00  0.00    +0.000 Cl
ATOM      7  C   UNL     1       4.031   4.394  17.466  0.00  0.00    +0.000 A 
ATOM      8  C   UNL     1       3.420   3.462  18.332  0.00  0.00    +0.000 A 
ATOM      9 CL   UNL     1       3.507   1.764  17.981  0.00  0.00    +0.000 Cl
ENDROOT
BRANCH   1  11
ATOM     10  C   UNL     1       2.646   2.663  21.407  0.00  0.00    +0.000 C 
ATOM     11  O   UNL     1       1.910   3.150  20.286  0.00  0.00    +0.000 OA
ENDBRANCH   1  11
BRANCH   2  12
ATOM     12  O   UNL     1       1.476   5.713  20.477  0.00  0.00    +0.000 OA
ATOM     13  H   UNL     1       0.605   5.833  20.046  0.00  0.00    +0.000 HD
ENDBRANCH   2  12
BRANCH   7  14
ATOM     14  O   UNL     1       4.777   4.044  16.361  0.00  0.00    +0.000 OA
ATOM     15  C   UNL     1       6.195   4.073  16.515  0.00  0.00    +0.000 C 
ENDBRANCH   7  14
TORSDOF 3
ENDMDL
MODEL 5
REMARK VINA RESULT:      -5.0      2.154      4.235
REMARK  Name = 
REMARK  6 active torsions:
REMARK  status: ('A' for Active; 'I' for Inactive)
REMARK    1  A    between atoms: C_1  and  O_2
REMARK    2  A    between atoms: O_2  and  C_3
REMARK    3  A    between atoms: C_4  and  O_5
REMARK    4  A    between atoms: C_6  and  C_7
REMARK    5  A    between atoms: C_10  and  O_11
REMARK    6  A    between atoms: O_11  and  C_12
REMARK                            x       y       z     vdW  Elec       q    Type
REMARK                         _______ _______ _______ _____ _____    ______ ____
ROOT
ATOM      1  C   UNL     1       4.346   4.612  18.038  0.00  0.00    +0.000 A 
ATOM      2  C   UNL     1       3.932   5.914  17.710  0.00  0.00    +0.000 A 
ATOM      3  C   UNL     1       3.040   6.641  18.501  0.00  0.00    +0.000 A 
ATOM      4  C   UNL     1       2.694   8.069  18.165  0.00  0.00    +0.000 C 
ATOM      5  C   UNL     1       2.521   6.007  19.645  0.00  0.00    +0.000 A 
ATOM      6 CL   UNL     1       1.374   6.853  20.645  0.00  0.00    +0.000 Cl
ATOM      7  C   UNL     1       2.932   4.706  20.017  0.00  0.00    +0.000 A 
ATOM      8  C   UNL     1       3.884   4.025  19.229  0.00  0.00    +0.000 A 
ATOM      9 CL   UNL     1       4.626   2.574  19.825  0.00  0.00    +0.000 Cl
ENDROOT
BRANCH   1  11
ATOM     10  C   UNL     1       6.655   4.423  17.478  0.00  0.00    +0.000 C 
ATOM     11  O   UNL     1       5.297   4.104  17.180  0.00  0.00    +0.000 OA
ENDBRANCH   1  11
BRANCH   2  12
ATOM     12  O   UNL     1       4.453   6.496  16.580  0.00  0.00    +0.000 OA
ATOM     13  H   UNL     1       5.426   6.430  16.668  0.00  0.00    +0.000 HD
ENDBRANCH   2  12
BRANCH   7  14
ATOM     14  O   UNL     1       2.478   4.254  21.238  0.00  0.00    +0.000 OA
ATOM     15  C   UNL     1       1.447   3.270  21.209  0.00  0.00    +0.000 C 
ENDBRANCH   7  14
TORSDOF 3
ENDMDL
MODEL 6
REMARK VINA RESULT:      -5.0      1.261      1.261
REMARK  Name = 
REMARK  6 active torsions:
REMARK  status: ('A' for Active; 'I' for Inactive)
REMARK    1  A    between atoms: C_1  and  O_2
REMARK    2  A    between atoms: O_2  and  C_3
REMARK    3  A    between atoms: C_4  and  O_5
REMARK    4  A    between atoms: C_6  and  C_7
REMARK    5  A    between atoms: C_10  and  O_11
REMARK    6  A    between atoms: O_11  and  C_12
REMARK                            x       y       z     vdW  Elec       q    Type
REMARK                         _______ _______ _______ _____ _____    ______ ____
ROOT
ATOM      1  C   UNL     1       3.405   4.111  19.812  0.00  0.00    +0.000 A 
ATOM      2  C   UNL     1       4.609   3.800  19.160  0.00  0.00    +0.000 A 
ATOM      3  C   UNL     1       5.276   4.710  18.335  0.00  0.00    +0.000 A 
ATOM      4  C   UNL     1       6.613   4.371  17.729  0.00  0.00    +0.000 C 
ATOM      5  C   UNL     1       4.675   5.967  18.138  0.00  0.00    +0.000 A 
ATOM      6 CL   UNL     1       5.442   7.125  17.087  0.00  0.00    +0.000 Cl
ATOM      7  C   UNL     1       3.474   6.321  18.795  0.00  0.00    +0.000 A 
ATOM      8  C   UNL     1       2.862   5.400  19.671  0.00  0.00    +0.000 A 
ATOM      9 CL   UNL     1       1.575   5.918  20.714  0.00  0.00    +0.000 Cl
ENDROOT
BRANCH   1  11
ATOM     10  C   UNL     1       1.772   2.431  20.245  0.00  0.00    +0.000 C 
ATOM     11  O   UNL     1       2.958   3.113  20.648  0.00  0.00    +0.000 OA
ENDBRANCH   1  11
BRANCH   2  12
ATOM     12  O   UNL     1       5.161   2.559  19.370  0.00  0.00    +0.000 OA
ATOM     13  H   UNL     1       6.103   2.637  19.114  0.00  0.00    +0.000 HD
ENDBRANCH   2  12
BRANCH   7  14
ATOM     14  O   UNL     1       3.069   7.632  18.649  0.00  0.00    +0.000 OA
ATOM     15  C   UNL     1       2.011   7.870  17.722  0.00  0.00    +0.000 C 
ENDBRANCH   7  14
TORSDOF 3
ENDMDL
MODEL 7
REMARK VINA RESULT:      -4.9      2.015      3.556
REMARK  Name = 
REMARK  6 active torsions:
REMARK  status: ('A' for Active; 'I' for Inactive)
REMARK    1  A    between atoms: C_1  and  O_2
REMARK    2  A    between atoms: O_2  and  C_3
REMARK    3  A    between atoms: C_4  and  O_5
REMARK    4  A    between atoms: C_6  and  C_7
REMARK    5  A    between atoms: C_10  and  O_11
REMARK    6  A    between atoms: O_11  and  C_12
REMARK                            x       y       z     vdW  Elec       q    Type
REMARK                         _______ _______ _______ _____ _____    ______ ____
ROOT
ATOM      1  C   UNL     1       5.625   4.823  18.705  0.00  0.00    +0.000 A 
ATOM      2  C   UNL     1       4.802   3.709  18.945  0.00  0.00    +0.000 A 
ATOM      3  C   UNL     1       3.442   3.696  18.626  0.00  0.00    +0.000 A 
ATOM      4  C   UNL     1       2.615   2.451  18.811  0.00  0.00    +0.000 C 
ATOM      5  C   UNL     1       2.893   4.871  18.078  0.00  0.00    +0.000 A 
ATOM      6 CL   UNL     1       1.195   4.924  17.698  0.00  0.00    +0.000 Cl
ATOM      7  C   UNL     1       3.697   6.002  17.803  0.00  0.00    +0.000 A 
ATOM      8  C   UNL     1       5.079   5.957  18.080  0.00  0.00    +0.000 A 
ATOM      9 CL   UNL     1       6.127   7.201  17.473  0.00  0.00    +0.000 Cl
ENDROOT
BRANCH   1  11
ATOM     10  C   UNL     1       7.850   4.533  17.901  0.00  0.00    +0.000 C 
ATOM     11  O   UNL     1       6.951   4.602  19.006  0.00  0.00    +0.000 OA
ENDBRANCH   1  11
BRANCH   2  12
ATOM     12  O   UNL     1       5.372   2.584  19.489  0.00  0.00    +0.000 OA
ATOM     13  H   UNL     1       4.642   2.095  19.921  0.00  0.00    +0.000 HD
ENDBRANCH   2  12
BRANCH   7  14
ATOM     14  O   UNL     1       3.080   7.031  17.122  0.00  0.00    +0.000 OA
ATOM     15  C   UNL     1       2.674   8.155  17.900  0.00  0.00    +0.000 C 
ENDBRANCH   7  14
TORSDOF 3
ENDMDL
MODEL 8
REMARK VINA RESULT:      -4.9      1.039      3.554
REMARK  Name = 
REMARK  6 active torsions:
REMARK  status: ('A' for Active; 'I' for Inactive)
REMARK    1  A    between atoms: C_1  and  O_2
REMARK    2  A    between atoms: O_2  and  C_3
REMARK    3  A    between atoms: C_4  and  O_5
REMARK    4  A    between atoms: C_6  and  C_7
REMARK    5  A    between atoms: C_10  and  O_11
REMARK    6  A    between atoms: O_11  and  C_12
REMARK                            x       y       z     vdW  Elec       q    Type
REMARK                         _______ _______ _______ _____ _____    ______ ____
ROOT
ATOM      1  C   UNL     1       4.640   4.381  17.482  0.00  0.00    +0.000 A 
ATOM      2  C   UNL     1       3.937   3.316  18.072  0.00  0.00    +0.000 A 
ATOM      3  C   UNL     1       2.924   3.514  19.013  0.00  0.00    +0.000 A 
ATOM      4  C   UNL     1       2.129   2.352  19.552  0.00  0.00    +0.000 C 
ATOM      5  C   UNL     1       2.643   4.839  19.396  0.00  0.00    +0.000 A 
ATOM      6 CL   UNL     1       1.417   5.141  20.595  0.00  0.00    +0.000 Cl
ATOM      7  C   UNL     1       3.315   5.934  18.807  0.00  0.00    +0.000 A 
ATOM      8  C   UNL     1       4.289   5.701  17.813  0.00  0.00    +0.000 A 
ATOM      9 CL   UNL     1       4.898   7.022  16.867  0.00  0.00    +0.000 Cl
ENDROOT
BRANCH   1  11
ATOM     10  C   UNL     1       6.896   4.353  16.715  0.00  0.00    +0.000 C 
ATOM     11  O   UNL     1       5.534   3.980  16.514  0.00  0.00    +0.000 OA
ENDBRANCH   1  11
BRANCH   2  12
ATOM     12  O   UNL     1       4.245   2.037  17.680  0.00  0.00    +0.000 OA
ATOM     13  H   UNL     1       4.955   1.734  18.283  0.00  0.00    +0.000 HD
ENDBRANCH   2  12
BRANCH   7  14
ATOM     14  O   UNL     1       2.845   7.186  19.145  0.00  0.00    +0.000 OA
ATOM     15  C   UNL     1       2.080   7.867  18.152  0.00  0.00    +0.000 C 
ENDBRANCH   7  14
TORSDOF 3
ENDMDL
MODEL 9
REMARK VINA RESULT:      -4.9      2.264      3.832
REMARK  Name = 
REMARK  6 active torsions:
REMARK  status: ('A' for Active; 'I' for Inactive)
REMARK    1  A    between atoms: C_1  and  O_2
REMARK    2  A    between atoms: O_2  and  C_3
REMARK    3  A    between atoms: C_4  and  O_5
REMARK    4  A    between atoms: C_6  and  C_7
REMARK    5  A    between atoms: C_10  and  O_11
REMARK    6  A    between atoms: O_11  and  C_12
REMARK                            x       y       z     vdW  Elec       q    Type
REMARK                         _______ _______ _______ _____ _____    ______ ____
ROOT
ATOM      1  C   UNL     1       4.730   5.729  18.260  0.00  0.00    +0.000 A 
ATOM      2  C   UNL     1       4.963   4.430  18.743  0.00  0.00    +0.000 A 
ATOM      3  C   UNL     1       4.104   3.798  19.646  0.00  0.00    +0.000 A 
ATOM      4  C   UNL     1       4.337   2.370  20.067  0.00  0.00    +0.000 C 
ATOM      5  C   UNL     1       2.991   4.529  20.102  0.00  0.00    +0.000 A 
ATOM      6 CL   UNL     1       1.910   3.805  21.260  0.00  0.00    +0.000 Cl
ATOM      7  C   UNL     1       2.715   5.829  19.621  0.00  0.00    +0.000 A 
ATOM      8  C   UNL     1       3.569   6.412  18.661  0.00  0.00    +0.000 A 
ATOM      9 CL   UNL     1       3.087   7.861  17.836  0.00  0.00    +0.000 Cl
ENDROOT
BRANCH   1  11
ATOM     10  C   UNL     1       5.254   5.972  15.948  0.00  0.00    +0.000 C 
ATOM     11  O   UNL     1       5.642   6.134  17.311  0.00  0.00    +0.000 OA
ENDBRANCH   1  11
BRANCH   2  12
ATOM     12  O   UNL     1       6.064   3.752  18.281  0.00  0.00    +0.000 OA
ATOM     13  H   UNL     1       6.838   4.305  18.514  0.00  0.00    +0.000 HD
ENDBRANCH   2  12
BRANCH   7  14
ATOM     14  O   UNL     1       1.515   6.379  20.019  0.00  0.00    +0.000 OA
ATOM     15  C   UNL     1       1.590   7.522  20.869  0.00  0.00    +0.000 C 
ENDBRANCH   7  14
TORSDOF 3
ENDMDL
