MODEL 1
REMARK VINA RESULT:      -7.7      0.000      0.000
REMARK  Name = 
REMARK  10 active torsions:
REMARK  status: ('A' for Active; 'I' for Inactive)
REMARK    1  A    between atoms: C_2  and  C_4
REMARK    2  A    between atoms: C_7  and  S_8
REMARK    3  A    between atoms: S_8  and  N_11
REMARK    4  A    between atoms: N_11  and  C_12
REMARK    5  A    between atoms: C_12  and  C_13
REMARK    6  A    between atoms: C_13  and  C_14
REMARK    7  A    between atoms: C_14  and  C_15
REMARK    8  A    between atoms: N_17  and  C_18
REMARK    9  A    between atoms: C_22  and  C_23
REMARK   10  A    between atoms: C_23  and  O_25
REMARK                            x       y       z     vdW  Elec       q    Type
REMARK                         _______ _______ _______ _____ _____    ______ ____
ROOT
ATOM      1  N   UNL     1       0.974   4.499  20.049  0.00  0.00    +0.000 NA
ATOM      2  H   UNL     1       0.142   4.297  20.607  0.00  0.00    +0.000 HD
ENDROOT
BRANCH   1   3
ATOM      3  S   UNL     1       1.632   3.051  19.429  0.00  0.00    +0.000 S 
ATOM      4  O   UNL     1       0.762   2.639  18.357  0.00  0.00    +0.000 OA
ATOM      5  O   UNL     1       1.952   2.185  20.558  0.00  0.00    +0.000 OA
BRANCH   3   9
ATOM      6  C   UNL     1       5.549   4.382  17.477  0.00  0.00    +0.000 A 
ATOM      7  C   UNL     1       4.351   4.376  16.754  0.00  0.00    +0.000 A 
ATOM      8  C   UNL     1       3.169   3.967  17.369  0.00  0.00    +0.000 A 
ATOM      9  C   UNL     1       3.181   3.547  18.702  0.00  0.00    +0.000 A 
ATOM     10  C   UNL     1       4.377   3.543  19.435  0.00  0.00    +0.000 A 
ATOM     11  C   UNL     1       5.563   3.956  18.811  0.00  0.00    +0.000 A 
BRANCH   6  13
ATOM     12  N   UNL     1       7.926   4.264  17.137  0.00  0.00    +0.000 NA
ATOM     13  C   UNL     1       6.809   4.829  16.821  0.00  0.00    +0.000 C 
ATOM     14  N   UNL     1       6.782   5.840  15.903  0.00  0.00    +0.000 N 
ATOM     15  H   UNL     1       8.684   4.648  16.568  0.00  0.00    +0.000 HD
ATOM     16  H   UNL     1       7.663   6.314  15.747  0.00  0.00    +0.000 HD
ATOM     17  H   UNL     1       6.017   6.499  15.999  0.00  0.00    +0.000 HD
ENDBRANCH   6  13
ENDBRANCH   3   9
ENDBRANCH   1   3
BRANCH   1  18
ATOM     18  C   UNL     1       1.960   5.336  20.762  0.00  0.00    +0.000 C 
BRANCH  18  19
ATOM     19  C   UNL     1       1.776   6.803  20.398  0.00  0.00    +0.000 C 
BRANCH  19  20
ATOM     20  C   UNL     1       2.520   7.173  19.115  0.00  0.00    +0.000 C 
BRANCH  20  21
ATOM     21  C   UNL     1       1.950   8.440  18.512  0.00  0.00    +0.000 C 
ATOM     22  O   UNL     1       2.268   8.759  17.372  0.00  0.00    +0.000 OA
ATOM     23  N   UNL     1       1.133   9.173  19.363  0.00  0.00    +0.000 N 
ATOM     24  H   UNL     1       1.088   8.910  20.342  0.00  0.00    +0.000 HD
BRANCH  23  25
ATOM     25  C   UNL     1       0.494  10.377  18.975  0.00  0.00    +0.000 A 
ATOM     26  C   UNL     1       1.130  11.611  19.127  0.00  0.00    +0.000 A 
ATOM     27  C   UNL     1       0.492  12.787  18.746  0.00  0.00    +0.000 A 
ATOM     28  C   UNL     1      -0.794  12.747  18.215  0.00  0.00    +0.000 A 
ATOM     29  C   UNL     1      -1.464  11.531  18.075  0.00  0.00    +0.000 A 
ATOM     30  C   UNL     1      -0.804  10.340  18.438  0.00  0.00    +0.000 A 
BRANCH  29  31
ATOM     31  C   UNL     1      -2.856  11.527  17.519  0.00  0.00    +0.000 C 
ATOM     32  O   UNL     1      -3.130  11.044  16.448  0.00  0.00    +0.000 OA
BRANCH  31  33
ATOM     33  O   UNL     1      -3.797  12.113  18.308  0.00  0.00    +0.000 OA
ATOM     34  H   UNL     1      -4.155  12.974  18.038  0.00  0.00    +0.000 HD
ENDBRANCH  31  33
ENDBRANCH  29  31
ENDBRANCH  23  25
ENDBRANCH  20  21
ENDBRANCH  19  20
ENDBRANCH  18  19
ENDBRANCH   1  18
TORSDOF 10
ENDMDL
MODEL 2
REMARK VINA RESULT:      -7.6      1.620      1.943
REMARK  Name = 
REMARK  10 active torsions:
REMARK  status: ('A' for Active; 'I' for Inactive)
REMARK    1  A    between atoms: C_2  and  C_4
REMARK    2  A    between atoms: C_7  and  S_8
REMARK    3  A    between atoms: S_8  and  N_11
REMARK    4  A    between atoms: N_11  and  C_12
REMARK    5  A    between atoms: C_12  and  C_13
REMARK    6  A    between atoms: C_13  and  C_14
REMARK    7  A    between atoms: C_14  and  C_15
REMARK    8  A    between atoms: N_17  and  C_18
REMARK    9  A    between atoms: C_22  and  C_23
REMARK   10  A    between atoms: C_23  and  O_25
REMARK                            x       y       z     vdW  Elec       q    Type
REMARK                         _______ _______ _______ _____ _____    ______ ____
ROOT
ATOM      1  N   UNL     1       2.031   3.283  19.712  0.00  0.00    +0.000 NA
ATOM      2  H   UNL     1       2.791   3.175  20.386  0.00  0.00    +0.000 HD
ENDROOT
BRANCH   1   3
ATOM      3  S   UNL     1       2.629   3.123  18.122  0.00  0.00    +0.000 S 
ATOM      4  O   UNL     1       1.614   3.664  17.253  0.00  0.00    +0.000 OA
ATOM      5  O   UNL     1       3.150   1.769  17.973  0.00  0.00    +0.000 OA
BRANCH   3   9
ATOM      6  C   UNL     1       6.278   5.880  18.046  0.00  0.00    +0.000 A 
ATOM      7  C   UNL     1       6.111   4.936  19.065  0.00  0.00    +0.000 A 
ATOM      8  C   UNL     1       4.992   4.105  19.068  0.00  0.00    +0.000 A 
ATOM      9  C   UNL     1       4.027   4.226  18.064  0.00  0.00    +0.000 A 
ATOM     10  C   UNL     1       4.180   5.173  17.041  0.00  0.00    +0.000 A 
ATOM     11  C   UNL     1       5.309   6.005  17.043  0.00  0.00    +0.000 A 
BRANCH   6  13
ATOM     12  N   UNL     1       8.330   6.681  19.009  0.00  0.00    +0.000 NA
ATOM     13  C   UNL     1       7.482   6.759  18.039  0.00  0.00    +0.000 C 
ATOM     14  N   UNL     1       7.674   7.648  17.022  0.00  0.00    +0.000 N 
ATOM     15  H   UNL     1       9.117   7.310  18.834  0.00  0.00    +0.000 HD
ATOM     16  H   UNL     1       8.295   8.421  17.228  0.00  0.00    +0.000 HD
ATOM     17  H   UNL     1       6.834   7.962  16.549  0.00  0.00    +0.000 HD
ENDBRANCH   6  13
ENDBRANCH   3   9
ENDBRANCH   1   3
BRANCH   1  18
ATOM     18  C   UNL     1       1.241   4.514  19.923  0.00  0.00    +0.000 C 
BRANCH  18  19
ATOM     19  C   UNL     1       1.996   5.483  20.823  0.00  0.00    +0.000 C 
BRANCH  19  20
ATOM     20  C   UNL     1       2.491   6.709  20.057  0.00  0.00    +0.000 C 
BRANCH  20  21
ATOM     21  C   UNL     1       1.518   7.860  20.203  0.00  0.00    +0.000 C 
ATOM     22  O   UNL     1       0.763   7.889  21.169  0.00  0.00    +0.000 OA
ATOM     23  N   UNL     1       1.540   8.777  19.160  0.00  0.00    +0.000 N 
ATOM     24  H   UNL     1       2.074   8.554  18.327  0.00  0.00    +0.000 HD
BRANCH  23  25
ATOM     25  C   UNL     1       0.715   9.928  19.125  0.00  0.00    +0.000 A 
ATOM     26  C   UNL     1       0.941  11.002  19.990  0.00  0.00    +0.000 A 
ATOM     27  C   UNL     1       0.122  12.126  19.950  0.00  0.00    +0.000 A 
ATOM     28  C   UNL     1      -0.939  12.189  19.053  0.00  0.00    +0.000 A 
ATOM     29  C   UNL     1      -1.205  11.122  18.195  0.00  0.00    +0.000 A 
ATOM     30  C   UNL     1      -0.358   9.996  18.220  0.00  0.00    +0.000 A 
BRANCH  29  31
ATOM     31  C   UNL     1      -2.369  11.216  17.255  0.00  0.00    +0.000 C 
ATOM     32  O   UNL     1      -2.435  10.579  16.232  0.00  0.00    +0.000 OA
BRANCH  31  33
ATOM     33  O   UNL     1      -3.352  12.076  17.634  0.00  0.00    +0.000 OA
ATOM     34  H   UNL     1      -3.202  12.635  18.413  0.00  0.00    +0.000 HD
ENDBRANCH  31  33
ENDBRANCH  29  31
ENDBRANCH  23  25
ENDBRANCH  20  21
ENDBRANCH  19  20
ENDBRANCH  18  19
ENDBRANCH   1  18
TORSDOF 10
ENDMDL
MODEL 3
REMARK VINA RESULT:      -7.6      3.187      8.255
REMARK  Name = 
REMARK  10 active torsions:
REMARK  status: ('A' for Active; 'I' for Inactive)
REMARK    1  A    between atoms: C_2  and  C_4
REMARK    2  A    between atoms: C_7  and  S_8
REMARK    3  A    between atoms: S_8  and  N_11
REMARK    4  A    between atoms: N_11  and  C_12
REMARK    5  A    between atoms: C_12  and  C_13
REMARK    6  A    between atoms: C_13  and  C_14
REMARK    7  A    between atoms: C_14  and  C_15
REMARK    8  A    between atoms: N_17  and  C_18
REMARK    9  A    between atoms: C_22  and  C_23
REMARK   10  A    between atoms: C_23  and  O_25
REMARK                            x       y       z     vdW  Elec       q    Type
REMARK                         _______ _______ _______ _____ _____    ______ ____
ROOT
ATOM      1  N   UNL     1       1.657   5.058  20.671  0.00  0.00    +0.000 NA
ATOM      2  H   UNL     1       1.041   5.641  21.241  0.00  0.00    +0.000 HD
ENDROOT
BRANCH   1   3
ATOM      3  S   UNL     1       2.463   6.017  19.512  0.00  0.00    +0.000 S 
ATOM      4  O   UNL     1       1.976   5.589  18.225  0.00  0.00    +0.000 OA
ATOM      5  O   UNL     1       3.882   6.032  19.849  0.00  0.00    +0.000 OA
BRANCH   3   9
ATOM      6  C   UNL     1       0.866  10.259  20.128  0.00  0.00    +0.000 A 
ATOM      7  C   UNL     1       1.353   9.848  18.882  0.00  0.00    +0.000 A 
ATOM      8  C   UNL     1       1.834   8.550  18.716  0.00  0.00    +0.000 A 
ATOM      9  C   UNL     1       1.847   7.665  19.797  0.00  0.00    +0.000 A 
ATOM     10  C   UNL     1       1.367   8.067  21.052  0.00  0.00    +0.000 A 
ATOM     11  C   UNL     1       0.883   9.374  21.213  0.00  0.00    +0.000 A 
BRANCH   6  13
ATOM     12  N   UNL     1       0.762  12.365  21.284  0.00  0.00    +0.000 NA
ATOM     13  C   UNL     1       0.341  11.644  20.299  0.00  0.00    +0.000 C 
ATOM     14  N   UNL     1      -0.586  12.137  19.427  0.00  0.00    +0.000 N 
ATOM     15  H   UNL     1       0.345  13.297  21.234  0.00  0.00    +0.000 HD
ATOM     16  H   UNL     1      -1.137  12.916  19.768  0.00  0.00    +0.000 HD
ATOM     17  H   UNL     1      -1.168  11.444  18.967  0.00  0.00    +0.000 HD
ENDBRANCH   6  13
ENDBRANCH   3   9
ENDBRANCH   1   3
BRANCH   1  18
ATOM     18  C   UNL     1       0.972   3.885  20.092  0.00  0.00    +0.000 C 
BRANCH  18  19
ATOM     19  C   UNL     1       1.700   2.603  20.471  0.00  0.00    +0.000 C 
BRANCH  19  20
ATOM     20  C   UNL     1       2.318   1.913  19.254  0.00  0.00    +0.000 C 
BRANCH  20  21
ATOM     21  C   UNL     1       3.698   2.467  18.970  0.00  0.00    +0.000 C 
ATOM     22  O   UNL     1       4.596   2.292  19.786  0.00  0.00    +0.000 OA
ATOM     23  N   UNL     1       3.802   3.195  17.791  0.00  0.00    +0.000 N 
ATOM     24  H   UNL     1       2.953   3.431  17.288  0.00  0.00    +0.000 HD
BRANCH  23  25
ATOM     25  C   UNL     1       5.015   3.777  17.346  0.00  0.00    +0.000 A 
ATOM     26  C   UNL     1       5.921   4.334  18.251  0.00  0.00    +0.000 A 
ATOM     27  C   UNL     1       7.107   4.906  17.802  0.00  0.00    +0.000 A 
ATOM     28  C   UNL     1       7.399   4.938  16.442  0.00  0.00    +0.000 A 
ATOM     29  C   UNL     1       6.502   4.413  15.513  0.00  0.00    +0.000 A 
ATOM     30  C   UNL     1       5.314   3.810  15.973  0.00  0.00    +0.000 A 
BRANCH  29  31
ATOM     31  C   UNL     1       6.841   4.482  14.054  0.00  0.00    +0.000 C 
ATOM     32  O   UNL     1       7.470   5.393  13.573  0.00  0.00    +0.000 OA
BRANCH  31  33
ATOM     33  O   UNL     1       6.384   3.444  13.303  0.00  0.00    +0.000 OA
ATOM     34  H   UNL     1       6.931   3.133  12.565  0.00  0.00    +0.000 HD
ENDBRANCH  31  33
ENDBRANCH  29  31
ENDBRANCH  23  25
ENDBRANCH  20  21
ENDBRANCH  19  20
ENDBRANCH  18  19
ENDBRANCH   1  18
TORSDOF 10
ENDMDL
MODEL 4
REMARK VINA RESULT:      -7.5      3.518      8.600
REMARK  Name = 
REMARK  10 active torsions:
REMARK  status: ('A' for Active; 'I' for Inactive)
REMARK    1  A    between atoms: C_2  and  C_4
REMARK    2  A    between atoms: C_7  and  S_8
REMARK    3  A    between atoms: S_8  and  N_11
REMARK    4  A    between atoms: N_11  and  C_12
REMARK    5  A    between atoms: C_12  and  C_13
REMARK    6  A    between atoms: C_13  and  C_14
REMARK    7  A    between atoms: C_14  and  C_15
REMARK    8  A    between atoms: N_17  and  C_18
REMARK    9  A    between atoms: C_22  and  C_23
REMARK   10  A    between atoms: C_23  and  O_25
REMARK                            x       y       z     vdW  Elec       q    Type
REMARK                         _______ _______ _______ _____ _____    ______ ____
ROOT
ATOM      1  N   UNL     1       4.232   5.613  19.579  0.00  0.00    +0.000 NA
ATOM      2  H   UNL     1       4.641   5.526  20.511  0.00  0.00    +0.000 HD
ENDROOT
BRANCH   1   3
ATOM      3  S   UNL     1       2.528   5.583  19.681  0.00  0.00    +0.000 S 
ATOM      4  O   UNL     1       2.211   5.246  21.045  0.00  0.00    +0.000 OA
ATOM      5  O   UNL     1       2.024   4.818  18.546  0.00  0.00    +0.000 OA
BRANCH   3   9
ATOM      6  C   UNL     1       1.278   9.912  18.894  0.00  0.00    +0.000 A 
ATOM      7  C   UNL     1       1.842   9.131  17.879  0.00  0.00    +0.000 A 
ATOM      8  C   UNL     1       2.215   7.813  18.141  0.00  0.00    +0.000 A 
ATOM      9  C   UNL     1       2.042   7.277  19.420  0.00  0.00    +0.000 A 
ATOM     10  C   UNL     1       1.484   8.053  20.447  0.00  0.00    +0.000 A 
ATOM     11  C   UNL     1       1.109   9.377  20.177  0.00  0.00    +0.000 A 
BRANCH   6  13
ATOM     12  N   UNL     1      -0.342  11.689  18.854  0.00  0.00    +0.000 NA
ATOM     13  C   UNL     1       0.870  11.317  18.608  0.00  0.00    +0.000 C 
ATOM     14  N   UNL     1       1.769  12.196  18.077  0.00  0.00    +0.000 N 
ATOM     15  H   UNL     1      -0.448  12.685  18.649  0.00  0.00    +0.000 HD
ATOM     16  H   UNL     1       1.370  12.999  17.606  0.00  0.00    +0.000 HD
ATOM     17  H   UNL     1       2.519  11.782  17.534  0.00  0.00    +0.000 HD
ENDBRANCH   6  13
ENDBRANCH   3   9
ENDBRANCH   1   3
BRANCH   1  18
ATOM     18  C   UNL     1       4.781   4.639  18.613  0.00  0.00    +0.000 C 
BRANCH  18  19
ATOM     19  C   UNL     1       6.303   4.646  18.657  0.00  0.00    +0.000 C 
BRANCH  19  20
ATOM     20  C   UNL     1       6.889   5.907  18.021  0.00  0.00    +0.000 C 
BRANCH  20  21
ATOM     21  C   UNL     1       6.647   5.912  16.525  0.00  0.00    +0.000 C 
ATOM     22  O   UNL     1       5.841   6.705  16.050  0.00  0.00    +0.000 OA
ATOM     23  N   UNL     1       7.349   4.944  15.818  0.00  0.00    +0.000 N 
ATOM     24  H   UNL     1       7.843   4.226  16.336  0.00  0.00    +0.000 HD
BRANCH  23  25
ATOM     25  C   UNL     1       7.267   4.804  14.410  0.00  0.00    +0.000 A 
ATOM     26  C   UNL     1       8.052   5.587  13.562  0.00  0.00    +0.000 A 
ATOM     27  C   UNL     1       7.960   5.443  12.181  0.00  0.00    +0.000 A 
ATOM     28  C   UNL     1       7.076   4.523  11.629  0.00  0.00    +0.000 A 
ATOM     29  C   UNL     1       6.259   3.745  12.451  0.00  0.00    +0.000 A 
ATOM     30  C   UNL     1       6.374   3.875  13.849  0.00  0.00    +0.000 A 
BRANCH  29  31
ATOM     31  C   UNL     1       5.303   2.778  11.821  0.00  0.00    +0.000 C 
ATOM     32  O   UNL     1       4.202   3.100  11.444  0.00  0.00    +0.000 OA
BRANCH  31  33
ATOM     33  O   UNL     1       5.761   1.502  11.706  0.00  0.00    +0.000 OA
ATOM     34  H   UNL     1       6.662   1.306  12.007  0.00  0.00    +0.000 HD
ENDBRANCH  31  33
ENDBRANCH  29  31
ENDBRANCH  23  25
ENDBRANCH  20  21
ENDBRANCH  19  20
ENDBRANCH  18  19
ENDBRANCH   1  18
TORSDOF 10
ENDMDL
MODEL 5
REMARK VINA RESULT:      -7.5      3.213      8.373
REMARK  Name = 
REMARK  10 active torsions:
REMARK  status: ('A' for Active; 'I' for Inactive)
REMARK    1  A    between atoms: C_2  and  C_4
REMARK    2  A    between atoms: C_7  and  S_8
REMARK    3  A    between atoms: S_8  and  N_11
REMARK    4  A    between atoms: N_11  and  C_12
REMARK    5  A    between atoms: C_12  and  C_13
REMARK    6  A    between atoms: C_13  and  C_14
REMARK    7  A    between atoms: C_14  and  C_15
REMARK    8  A    between atoms: N_17  and  C_18
REMARK    9  A    between atoms: C_22  and  C_23
REMARK   10  A    between atoms: C_23  and  O_25
REMARK                            x       y       z     vdW  Elec       q    Type
REMARK                         _______ _______ _______ _____ _____    ______ ____
ROOT
ATOM      1  N   UNL     1       2.261   5.388  20.790  0.00  0.00    +0.000 NA
ATOM      2  H   UNL     1       2.038   5.987  21.587  0.00  0.00    +0.000 HD
ENDROOT
BRANCH   1   3
ATOM      3  S   UNL     1       2.543   6.340  19.401  0.00  0.00    +0.000 S 
ATOM      4  O   UNL     1       1.795   5.728  18.333  0.00  0.00    +0.000 OA
ATOM      5  O   UNL     1       3.977   6.591  19.312  0.00  0.00    +0.000 OA
BRANCH   3   9
ATOM      6  C   UNL     1       0.571  10.327  20.472  0.00  0.00    +0.000 A 
ATOM      7  C   UNL     1       0.697   9.308  21.424  0.00  0.00    +0.000 A 
ATOM      8  C   UNL     1       1.302   8.101  21.076  0.00  0.00    +0.000 A 
ATOM      9  C   UNL     1       1.768   7.901  19.773  0.00  0.00    +0.000 A 
ATOM     10  C   UNL     1       1.642   8.912  18.810  0.00  0.00    +0.000 A 
ATOM     11  C   UNL     1       1.033  10.125  19.166  0.00  0.00    +0.000 A 
BRANCH   6  13
ATOM     12  N   UNL     1       0.639  12.527  21.439  0.00  0.00    +0.000 NA
ATOM     13  C   UNL     1      -0.066  11.620  20.850  0.00  0.00    +0.000 C 
ATOM     14  N   UNL     1      -1.388  11.834  20.587  0.00  0.00    +0.000 N 
ATOM     15  H   UNL     1       0.073  13.365  21.588  0.00  0.00    +0.000 HD
ATOM     16  H   UNL     1      -1.834  12.554  21.142  0.00  0.00    +0.000 HD
ATOM     17  H   UNL     1      -1.964  11.000  20.528  0.00  0.00    +0.000 HD
ENDBRANCH   6  13
ENDBRANCH   3   9
ENDBRANCH   1   3
BRANCH   1  18
ATOM     18  C   UNL     1       1.270   4.315  20.576  0.00  0.00    +0.000 C 
BRANCH  18  19
ATOM     19  C   UNL     1       1.867   2.960  20.930  0.00  0.00    +0.000 C 
BRANCH  19  20
ATOM     20  C   UNL     1       2.324   2.193  19.689  0.00  0.00    +0.000 C 
BRANCH  20  21
ATOM     21  C   UNL     1       3.738   2.582  19.311  0.00  0.00    +0.000 C 
ATOM     22  O   UNL     1       4.677   2.152  19.971  0.00  0.00    +0.000 OA
ATOM     23  N   UNL     1       3.833   3.467  18.244  0.00  0.00    +0.000 N 
ATOM     24  H   UNL     1       2.984   3.899  17.893  0.00  0.00    +0.000 HD
BRANCH  23  25
ATOM     25  C   UNL     1       5.069   3.933  17.733  0.00  0.00    +0.000 A 
ATOM     26  C   UNL     1       6.076   4.387  18.589  0.00  0.00    +0.000 A 
ATOM     27  C   UNL     1       7.285   4.846  18.076  0.00  0.00    +0.000 A 
ATOM     28  C   UNL     1       7.502   4.866  16.702  0.00  0.00    +0.000 A 
ATOM     29  C   UNL     1       6.506   4.443  15.822  0.00  0.00    +0.000 A 
ATOM     30  C   UNL     1       5.292   3.954  16.346  0.00  0.00    +0.000 A 
BRANCH  29  31
ATOM     31  C   UNL     1       6.766   4.498  14.346  0.00  0.00    +0.000 C 
ATOM     32  O   UNL     1       6.197   3.785  13.557  0.00  0.00    +0.000 OA
BRANCH  31  33
ATOM     33  O   UNL     1       7.696   5.410  13.956  0.00  0.00    +0.000 OA
ATOM     34  H   UNL     1       8.062   6.011  14.624  0.00  0.00    +0.000 HD
ENDBRANCH  31  33
ENDBRANCH  29  31
ENDBRANCH  23  25
ENDBRANCH  20  21
ENDBRANCH  19  20
ENDBRANCH  18  19
ENDBRANCH   1  18
TORSDOF 10
ENDMDL
MODEL 6
REMARK VINA RESULT:      -7.5      3.016      4.365
REMARK  Name = 
REMARK  10 active torsions:
REMARK  status: ('A' for Active; 'I' for Inactive)
REMARK    1  A    between atoms: C_2  and  C_4
REMARK    2  A    between atoms: C_7  and  S_8
REMARK    3  A    between atoms: S_8  and  N_11
REMARK    4  A    between atoms: N_11  and  C_12
REMARK    5  A    between atoms: C_12  and  C_13
REMARK    6  A    between atoms: C_13  and  C_14
REMARK    7  A    between atoms: C_14  and  C_15
REMARK    8  A    between atoms: N_17  and  C_18
REMARK    9  A    between atoms: C_22  and  C_23
REMARK   10  A    between atoms: C_23  and  O_25
REMARK                            x       y       z     vdW  Elec       q    Type
REMARK                         _______ _______ _______ _____ _____    ______ ____
ROOT
ATOM      1  N   UNL     1       3.990   2.883  18.106  0.00  0.00    +0.000 NA
ATOM      2  H   UNL     1       4.360   2.114  18.669  0.00  0.00    +0.000 HD
ENDROOT
BRANCH   1   3
ATOM      3  S   UNL     1       4.967   4.271  18.295  0.00  0.00    +0.000 S 
ATOM      4  O   UNL     1       5.982   3.923  19.256  0.00  0.00    +0.000 OA
ATOM      5  O   UNL     1       4.085   5.420  18.464  0.00  0.00    +0.000 OA
BRANCH   3   9
ATOM      6  C   UNL     1       6.917   4.759  14.186  0.00  0.00    +0.000 A 
ATOM      7  C   UNL     1       5.625   4.238  14.311  0.00  0.00    +0.000 A 
ATOM      8  C   UNL     1       5.049   4.098  15.573  0.00  0.00    +0.000 A 
ATOM      9  C   UNL     1       5.768   4.463  16.715  0.00  0.00    +0.000 A 
ATOM     10  C   UNL     1       7.066   4.981  16.603  0.00  0.00    +0.000 A 
ATOM     11  C   UNL     1       7.640   5.120  15.330  0.00  0.00    +0.000 A 
BRANCH   6  13
ATOM     12  N   UNL     1       7.203   4.096  11.893  0.00  0.00    +0.000 NA
ATOM     13  C   UNL     1       7.526   4.918  12.835  0.00  0.00    +0.000 C 
ATOM     14  N   UNL     1       8.427   5.916  12.603  0.00  0.00    +0.000 N 
ATOM     15  H   UNL     1       7.667   4.365  11.022  0.00  0.00    +0.000 HD
ATOM     16  H   UNL     1       9.038   5.778  11.807  0.00  0.00    +0.000 HD
ATOM     17  H   UNL     1       8.942   6.240  13.415  0.00  0.00    +0.000 HD
ENDBRANCH   6  13
ENDBRANCH   3   9
ENDBRANCH   1   3
BRANCH   1  18
ATOM     18  C   UNL     1       2.555   3.136  18.345  0.00  0.00    +0.000 C 
BRANCH  18  19
ATOM     19  C   UNL     1       2.147   2.632  19.722  0.00  0.00    +0.000 C 
BRANCH  19  20
ATOM     20  C   UNL     1       2.467   3.644  20.821  0.00  0.00    +0.000 C 
BRANCH  20  21
ATOM     21  C   UNL     1       1.648   4.905  20.642  0.00  0.00    +0.000 C 
ATOM     22  O   UNL     1       0.433   4.818  20.504  0.00  0.00    +0.000 OA
ATOM     23  N   UNL     1       2.389   6.080  20.595  0.00  0.00    +0.000 N 
ATOM     24  H   UNL     1       3.399   6.015  20.534  0.00  0.00    +0.000 HD
BRANCH  23  25
ATOM     25  C   UNL     1       1.800   7.360  20.449  0.00  0.00    +0.000 A 
ATOM     26  C   UNL     1       1.845   8.039  19.230  0.00  0.00    +0.000 A 
ATOM     27  C   UNL     1       1.267   9.298  19.100  0.00  0.00    +0.000 A 
ATOM     28  C   UNL     1       0.644   9.899  20.189  0.00  0.00    +0.000 A 
ATOM     29  C   UNL     1       0.606   9.257  21.426  0.00  0.00    +0.000 A 
ATOM     30  C   UNL     1       1.170   7.970  21.547  0.00  0.00    +0.000 A 
BRANCH  29  31
ATOM     31  C   UNL     1      -0.055   9.943  22.583  0.00  0.00    +0.000 C 
ATOM     32  O   UNL     1       0.322   9.812  23.722  0.00  0.00    +0.000 OA
BRANCH  31  33
ATOM     33  O   UNL     1      -1.119  10.727  22.261  0.00  0.00    +0.000 OA
ATOM     34  H   UNL     1      -1.998  10.316  22.214  0.00  0.00    +0.000 HD
ENDBRANCH  31  33
ENDBRANCH  29  31
ENDBRANCH  23  25
ENDBRANCH  20  21
ENDBRANCH  19  20
ENDBRANCH  18  19
ENDBRANCH   1  18
TORSDOF 10
ENDMDL
MODEL 7
REMARK VINA RESULT:      -7.4      1.284      1.466
REMARK  Name = 
REMARK  10 active torsions:
REMARK  status: ('A' for Active; 'I' for Inactive)
REMARK    1  A    between atoms: C_2  and  C_4
REMARK    2  A    between atoms: C_7  and  S_8
REMARK    3  A    between atoms: S_8  and  N_11
REMARK    4  A    between atoms: N_11  and  C_12
REMARK    5  A    between atoms: C_12  and  C_13
REMARK    6  A    between atoms: C_13  and  C_14
REMARK    7  A    between atoms: C_14  and  C_15
REMARK    8  A    between atoms: N_17  and  C_18
REMARK    9  A    between atoms: C_22  and  C_23
REMARK   10  A    between atoms: C_23  and  O_25
REMARK                            x       y       z     vdW  Elec       q    Type
REMARK                         _______ _______ _______ _____ _____    ______ ____
ROOT
ATOM      1  N   UNL     1       1.851   3.510  20.224  0.00  0.00    +0.000 NA
ATOM      2  H   UNL     1       2.647   3.546  20.864  0.00  0.00    +0.000 HD
ENDROOT
BRANCH   1   3
ATOM      3  S   UNL     1       2.354   2.945  18.694  0.00  0.00    +0.000 S 
ATOM      4  O   UNL     1       1.334   3.348  17.760  0.00  0.00    +0.000 OA
ATOM      5  O   UNL     1       2.777   1.557  18.845  0.00  0.00    +0.000 OA
BRANCH   3   9
ATOM      6  C   UNL     1       6.052   5.438  17.679  0.00  0.00    +0.000 A 
ATOM      7  C   UNL     1       5.026   5.263  16.745  0.00  0.00    +0.000 A 
ATOM      8  C   UNL     1       3.907   4.499  17.076  0.00  0.00    +0.000 A 
ATOM      9  C   UNL     1       3.818   3.895  18.333  0.00  0.00    +0.000 A 
ATOM     10  C   UNL     1       4.843   4.059  19.275  0.00  0.00    +0.000 A 
ATOM     11  C   UNL     1       5.966   4.829  18.937  0.00  0.00    +0.000 A 
BRANCH   6  13
ATOM     12  N   UNL     1       7.657   6.290  16.104  0.00  0.00    +0.000 NA
ATOM     13  C   UNL     1       7.242   6.264  17.327  0.00  0.00    +0.000 C 
ATOM     14  N   UNL     1       7.893   6.974  18.293  0.00  0.00    +0.000 N 
ATOM     15  H   UNL     1       8.446   6.934  16.019  0.00  0.00    +0.000 HD
ATOM     16  H   UNL     1       8.849   7.232  18.079  0.00  0.00    +0.000 HD
ATOM     17  H   UNL     1       7.810   6.609  19.237  0.00  0.00    +0.000 HD
ENDBRANCH   6  13
ENDBRANCH   3   9
ENDBRANCH   1   3
BRANCH   1  18
ATOM     18  C   UNL     1       1.098   4.779  20.165  0.00  0.00    +0.000 C 
BRANCH  18  19
ATOM     19  C   UNL     1       1.893   5.902  20.816  0.00  0.00    +0.000 C 
BRANCH  19  20
ATOM     20  C   UNL     1       2.373   6.932  19.794  0.00  0.00    +0.000 C 
BRANCH  20  21
ATOM     21  C   UNL     1       1.572   8.212  19.909  0.00  0.00    +0.000 C 
ATOM     22  O   UNL     1       1.049   8.500  20.981  0.00  0.00    +0.000 OA
ATOM     23  N   UNL     1       1.457   8.936  18.728  0.00  0.00    +0.000 N 
ATOM     24  H   UNL     1       1.773   8.509  17.864  0.00  0.00    +0.000 HD
BRANCH  23  25
ATOM     25  C   UNL     1       0.761  10.167  18.641  0.00  0.00    +0.000 A 
ATOM     26  C   UNL     1       1.369  11.366  19.018  0.00  0.00    +0.000 A 
ATOM     27  C   UNL     1       0.674  12.568  18.931  0.00  0.00    +0.000 A 
ATOM     28  C   UNL     1      -0.640  12.588  18.475  0.00  0.00    +0.000 A 
ATOM     29  C   UNL     1      -1.282  11.403  18.116  0.00  0.00    +0.000 A 
ATOM     30  C   UNL     1      -0.567  10.190  18.180  0.00  0.00    +0.000 A 
BRANCH  29  31
ATOM     31  C   UNL     1      -2.705  11.459  17.649  0.00  0.00    +0.000 C 
ATOM     32  O   UNL     1      -3.643  11.403  18.406  0.00  0.00    +0.000 OA
BRANCH  31  33
ATOM     33  O   UNL     1      -2.869  11.574  16.303  0.00  0.00    +0.000 OA
ATOM     34  H   UNL     1      -3.732  11.344  15.922  0.00  0.00    +0.000 HD
ENDBRANCH  31  33
ENDBRANCH  29  31
ENDBRANCH  23  25
ENDBRANCH  20  21
ENDBRANCH  19  20
ENDBRANCH  18  19
ENDBRANCH   1  18
TORSDOF 10
ENDMDL
MODEL 8
REMARK VINA RESULT:      -7.4      2.467      4.047
REMARK  Name = 
REMARK  10 active torsions:
REMARK  status: ('A' for Active; 'I' for Inactive)
REMARK    1  A    between atoms: C_2  and  C_4
REMARK    2  A    between atoms: C_7  and  S_8
REMARK    3  A    between atoms: S_8  and  N_11
REMARK    4  A    between atoms: N_11  and  C_12
REMARK    5  A    between atoms: C_12  and  C_13
REMARK    6  A    between atoms: C_13  and  C_14
REMARK    7  A    between atoms: C_14  and  C_15
REMARK    8  A    between atoms: N_17  and  C_18
REMARK    9  A    between atoms: C_22  and  C_23
REMARK   10  A    between atoms: C_23  and  O_25
REMARK                            x       y       z     vdW  Elec       q    Type
REMARK                         _______ _______ _______ _____ _____    ______ ____
ROOT
ATOM      1  N   UNL     1       6.274   6.268  16.823  0.00  0.00    +0.000 NA
ATOM      2  H   UNL     1       6.941   6.581  16.115  0.00  0.00    +0.000 HD
ENDROOT
BRANCH   1   3
ATOM      3  S   UNL     1       6.481   4.602  17.129  0.00  0.00    +0.000 S 
ATOM      4  O   UNL     1       7.388   4.506  18.244  0.00  0.00    +0.000 OA
ATOM      5  O   UNL     1       6.730   3.939  15.854  0.00  0.00    +0.000 OA
BRANCH   3   9
ATOM      6  C   UNL     1       2.391   3.257  18.675  0.00  0.00    +0.000 A 
ATOM      7  C   UNL     1       3.386   3.690  19.558  0.00  0.00    +0.000 A 
ATOM      8  C   UNL     1       4.625   4.096  19.065  0.00  0.00    +0.000 A 
ATOM      9  C   UNL     1       4.880   4.055  17.691  0.00  0.00    +0.000 A 
ATOM     10  C   UNL     1       3.893   3.617  16.797  0.00  0.00    +0.000 A 
ATOM     11  C   UNL     1       2.648   3.210  17.299  0.00  0.00    +0.000 A 
BRANCH   6  13
ATOM     12  N   UNL     1       0.369   1.962  18.553  0.00  0.00    +0.000 NA
ATOM     13  C   UNL     1       1.064   2.834  19.204  0.00  0.00    +0.000 C 
ATOM     14  N   UNL     1       0.583   3.376  20.361  0.00  0.00    +0.000 N 
ATOM     15  H   UNL     1      -0.488   1.745  19.067  0.00  0.00    +0.000 HD
ATOM     16  H   UNL     1      -0.419   3.314  20.491  0.00  0.00    +0.000 HD
ATOM     17  H   UNL     1       0.931   4.301  20.589  0.00  0.00    +0.000 HD
ENDBRANCH   6  13
ENDBRANCH   3   9
ENDBRANCH   1   3
BRANCH   1  18
ATOM     18  C   UNL     1       4.879   6.640  16.508  0.00  0.00    +0.000 C 
BRANCH  18  19
ATOM     19  C   UNL     1       4.361   7.661  17.512  0.00  0.00    +0.000 C 
BRANCH  19  20
ATOM     20  C   UNL     1       2.939   7.340  17.974  0.00  0.00    +0.000 C 
BRANCH  20  21
ATOM     21  C   UNL     1       2.140   8.612  18.166  0.00  0.00    +0.000 C 
ATOM     22  O   UNL     1       2.217   9.503  17.328  0.00  0.00    +0.000 OA
ATOM     23  N   UNL     1       1.412   8.668  19.348  0.00  0.00    +0.000 N 
ATOM     24  H   UNL     1       1.568   7.954  20.051  0.00  0.00    +0.000 HD
BRANCH  23  25
ATOM     25  C   UNL     1       0.590   9.768  19.698  0.00  0.00    +0.000 A 
ATOM     26  C   UNL     1       0.819  10.495  20.869  0.00  0.00    +0.000 A 
ATOM     27  C   UNL     1       0.003  11.571  21.204  0.00  0.00    +0.000 A 
ATOM     28  C   UNL     1      -1.058  11.930  20.379  0.00  0.00    +0.000 A 
ATOM     29  C   UNL     1      -1.327  11.207  19.216  0.00  0.00    +0.000 A 
ATOM     30  C   UNL     1      -0.483  10.134  18.866  0.00  0.00    +0.000 A 
BRANCH  29  31
ATOM     31  C   UNL     1      -2.491  11.609  18.362  0.00  0.00    +0.000 C 
ATOM     32  O   UNL     1      -2.612  11.254  17.215  0.00  0.00    +0.000 OA
BRANCH  31  33
ATOM     33  O   UNL     1      -3.407  12.411  18.970  0.00  0.00    +0.000 OA
ATOM     34  H   UNL     1      -3.909  13.036  18.423  0.00  0.00    +0.000 HD
ENDBRANCH  31  33
ENDBRANCH  29  31
ENDBRANCH  23  25
ENDBRANCH  20  21
ENDBRANCH  19  20
ENDBRANCH  18  19
ENDBRANCH   1  18
TORSDOF 10
ENDMDL
MODEL 9
REMARK VINA RESULT:      -7.4      2.355      3.864
REMARK  Name = 
REMARK  10 active torsions:
REMARK  status: ('A' for Active; 'I' for Inactive)
REMARK    1  A    between atoms: C_2  and  C_4
REMARK    2  A    between atoms: C_7  and  S_8
REMARK    3  A    between atoms: S_8  and  N_11
REMARK    4  A    between atoms: N_11  and  C_12
REMARK    5  A    between atoms: C_12  and  C_13
REMARK    6  A    between atoms: C_13  and  C_14
REMARK    7  A    between atoms: C_14  and  C_15
REMARK    8  A    between atoms: N_17  and  C_18
REMARK    9  A    between atoms: C_22  and  C_23
REMARK   10  A    between atoms: C_23  and  O_25
REMARK                            x       y       z     vdW  Elec       q    Type
REMARK                         _______ _______ _______ _____ _____    ______ ____
ROOT
ATOM      1  N   UNL     1       6.302   6.300  17.118  0.00  0.00    +0.000 NA
ATOM      2  H   UNL     1       7.025   6.675  16.500  0.00  0.00    +0.000 HD
ENDROOT
BRANCH   1   3
ATOM      3  S   UNL     1       6.408   4.598  17.182  0.00  0.00    +0.000 S 
ATOM      4  O   UNL     1       7.406   4.293  18.175  0.00  0.00    +0.000 OA
ATOM      5  O   UNL     1       6.485   4.101  15.813  0.00  0.00    +0.000 OA
BRANCH   3   9
ATOM      6  C   UNL     1       2.334   3.222  18.743  0.00  0.00    +0.000 A 
ATOM      7  C   UNL     1       2.595   3.283  17.370  0.00  0.00    +0.000 A 
ATOM      8  C   UNL     1       3.844   3.704  16.916  0.00  0.00    +0.000 A 
ATOM      9  C   UNL     1       4.830   4.083  17.831  0.00  0.00    +0.000 A 
ATOM     10  C   UNL     1       4.579   4.032  19.209  0.00  0.00    +0.000 A 
ATOM     11  C   UNL     1       3.321   3.606  19.660  0.00  0.00    +0.000 A 
BRANCH   6  13
ATOM     12  N   UNL     1       0.313   1.943  18.502  0.00  0.00    +0.000 NA
ATOM     13  C   UNL     1       1.002   2.761  19.225  0.00  0.00    +0.000 C 
ATOM     14  N   UNL     1       0.511   3.213  20.416  0.00  0.00    +0.000 N 
ATOM     15  H   UNL     1      -0.548   1.688  18.990  0.00  0.00    +0.000 HD
ATOM     16  H   UNL     1      -0.493   3.143  20.531  0.00  0.00    +0.000 HD
ATOM     17  H   UNL     1       0.856   4.118  20.718  0.00  0.00    +0.000 HD
ENDBRANCH   6  13
ENDBRANCH   3   9
ENDBRANCH   1   3
BRANCH   1  18
ATOM     18  C   UNL     1       4.949   6.794  16.790  0.00  0.00    +0.000 C 
BRANCH  18  19
ATOM     19  C   UNL     1       4.383   7.606  17.947  0.00  0.00    +0.000 C 
BRANCH  19  20
ATOM     20  C   UNL     1       2.889   7.356  18.146  0.00  0.00    +0.000 C 
BRANCH  20  21
ATOM     21  C   UNL     1       2.114   8.655  18.070  0.00  0.00    +0.000 C 
ATOM     22  O   UNL     1       2.340   9.437  17.153  0.00  0.00    +0.000 OA
ATOM     23  N   UNL     1       1.229   8.868  19.120  0.00  0.00    +0.000 N 
ATOM     24  H   UNL     1       1.260   8.241  19.917  0.00  0.00    +0.000 HD
BRANCH  23  25
ATOM     25  C   UNL     1       0.405  10.016  19.215  0.00  0.00    +0.000 A 
ATOM     26  C   UNL     1       0.661  11.009  20.164  0.00  0.00    +0.000 A 
ATOM     27  C   UNL     1      -0.158  12.130  20.251  0.00  0.00    +0.000 A 
ATOM     28  C   UNL     1      -1.248  12.271  19.399  0.00  0.00    +0.000 A 
ATOM     29  C   UNL     1      -1.543  11.284  18.459  0.00  0.00    +0.000 A 
ATOM     30  C   UNL     1      -0.697  10.162  18.355  0.00  0.00    +0.000 A 
BRANCH  29  31
ATOM     31  C   UNL     1      -2.738  11.459  17.570  0.00  0.00    +0.000 C 
ATOM     32  O   UNL     1      -2.737  11.141  16.406  0.00  0.00    +0.000 OA
BRANCH  31  33
ATOM     33  O   UNL     1      -3.830  12.007  18.169  0.00  0.00    +0.000 OA
ATOM     34  H   UNL     1      -4.264  11.510  18.881  0.00  0.00    +0.000 HD
ENDBRANCH  31  33
ENDBRANCH  29  31
ENDBRANCH  23  25
ENDBRANCH  20  21
ENDBRANCH  19  20
ENDBRANCH  18  19
ENDBRANCH   1  18
TORSDOF 10
ENDMDL
