MODEL 1
REMARK VINA RESULT:      -8.0      0.000      0.000
REMARK  Name = 
REMARK  3 active torsions:
REMARK  status: ('A' for Active; 'I' for Inactive)
REMARK    1  A    between atoms: O_1  and  C_2
REMARK    2  A    between atoms: C_8  and  C_9
REMARK    3  A    between atoms: C_12  and  C_13
REMARK                            x       y       z     vdW  Elec       q    Type
REMARK                         _______ _______ _______ _____ _____    ______ ____
ROOT
ATOM      1  C   UNL     1       4.069   5.675  18.811  0.00  0.00    +0.000 A 
ATOM      2  N   UNL     1       3.580   4.941  19.824  0.00  0.00    +0.000 NA
ATOM      3  N   UNL     1       2.659   5.767  20.340  0.00  0.00    +0.000 N 
ATOM      4  C   UNL     1       2.562   6.936  19.637  0.00  0.00    +0.000 A 
ATOM      5  N   UNL     1       3.431   6.883  18.652  0.00  0.00    +0.000 NA
ATOM      6  H   UNL     1       2.141   5.470  21.156  0.00  0.00    +0.000 HD
ENDROOT
BRANCH   4   7
ATOM      7  C   UNL     1       1.654   8.040  19.934  0.00  0.00    +0.000 A 
ATOM      8  C   UNL     1       1.333   8.955  18.918  0.00  0.00    +0.000 A 
ATOM      9  C   UNL     1       0.462  10.021  19.159  0.00  0.00    +0.000 A 
ATOM     10  C   UNL     1      -0.101  10.192  20.426  0.00  0.00    +0.000 A 
ATOM     11 CL   UNL     1      -1.169  11.525  20.663  0.00  0.00    +0.000 Cl
ATOM     12  C   UNL     1       0.218   9.292  21.448  0.00  0.00    +0.000 A 
ATOM     13 CL   UNL     1      -0.424   9.440  23.046  0.00  0.00    +0.000 Cl
ATOM     14  C   UNL     1       1.087   8.223  21.201  0.00  0.00    +0.000 A 
ENDBRANCH   4   7
BRANCH   1  21
ATOM     15  C   UNL     1       6.448   5.029  18.379  0.00  0.00    +0.000 A 
ATOM     16  C   UNL     1       7.453   4.615  17.503  0.00  0.00    +0.000 A 
ATOM     17  C   UNL     1       7.148   4.381  16.161  0.00  0.00    +0.000 A 
ATOM     18  C   UNL     1       5.845   4.557  15.704  0.00  0.00    +0.000 A 
ATOM     19 CL   UNL     1       5.476   4.264  14.049  0.00  0.00    +0.000 Cl
ATOM     20  C   UNL     1       4.841   4.971  16.575  0.00  0.00    +0.000 A 
ATOM     21  C   UNL     1       5.133   5.221  17.926  0.00  0.00    +0.000 A 
BRANCH  15  22
ATOM     22  O   UNL     1       6.761   5.211  19.699  0.00  0.00    +0.000 OA
ATOM     23  H   UNL     1       7.006   6.135  19.859  0.00  0.00    +0.000 HD
ENDBRANCH  15  22
ENDBRANCH   1  21
TORSDOF 3
ENDMDL
MODEL 2
REMARK VINA RESULT:      -7.9      3.964      5.372
REMARK  Name = 
REMARK  3 active torsions:
REMARK  status: ('A' for Active; 'I' for Inactive)
REMARK    1  A    between atoms: O_1  and  C_2
REMARK    2  A    between atoms: C_8  and  C_9
REMARK    3  A    between atoms: C_12  and  C_13
REMARK                            x       y       z     vdW  Elec       q    Type
REMARK                         _______ _______ _______ _____ _____    ______ ____
ROOT
ATOM      1  C   UNL     1       6.392   4.215  15.878  0.00  0.00    +0.000 A 
ATOM      2  N   UNL     1       7.352   4.473  16.782  0.00  0.00    +0.000 NA
ATOM      3  N   UNL     1       6.678   4.360  17.935  0.00  0.00    +0.000 N 
ATOM      4  C   UNL     1       5.373   4.002  17.737  0.00  0.00    +0.000 A 
ATOM      5  N   UNL     1       5.183   3.883  16.442  0.00  0.00    +0.000 NA
ATOM      6  H   UNL     1       7.166   4.536  18.803  0.00  0.00    +0.000 HD
ENDROOT
BRANCH   4   7
ATOM      7  C   UNL     1       4.376   3.792  18.783  0.00  0.00    +0.000 A 
ATOM      8  C   UNL     1       4.237   2.515  19.351  0.00  0.00    +0.000 A 
ATOM      9  C   UNL     1       3.300   2.274  20.359  0.00  0.00    +0.000 A 
ATOM     10  C   UNL     1       2.481   3.309  20.815  0.00  0.00    +0.000 A 
ATOM     11 CL   UNL     1       1.345   2.952  22.062  0.00  0.00    +0.000 Cl
ATOM     12  C   UNL     1       2.603   4.584  20.252  0.00  0.00    +0.000 A 
ATOM     13 CL   UNL     1       1.620   5.915  20.749  0.00  0.00    +0.000 Cl
ATOM     14  C   UNL     1       3.547   4.822  19.245  0.00  0.00    +0.000 A 
ENDBRANCH   4   7
BRANCH   1  21
ATOM     15  C   UNL     1       7.516   5.118  13.832  0.00  0.00    +0.000 A 
ATOM     16  C   UNL     1       7.692   5.124  12.447  0.00  0.00    +0.000 A 
ATOM     17  C   UNL     1       6.972   4.229  11.654  0.00  0.00    +0.000 A 
ATOM     18  C   UNL     1       6.087   3.334  12.247  0.00  0.00    +0.000 A 
ATOM     19 CL   UNL     1       5.204   2.232  11.262  0.00  0.00    +0.000 Cl
ATOM     20  C   UNL     1       5.906   3.327  13.627  0.00  0.00    +0.000 A 
ATOM     21  C   UNL     1       6.616   4.228  14.439  0.00  0.00    +0.000 A 
BRANCH  15  22
ATOM     22  O   UNL     1       8.264   5.975  14.593  0.00  0.00    +0.000 OA
ATOM     23  H   UNL     1       9.030   5.510  14.963  0.00  0.00    +0.000 HD
ENDBRANCH  15  22
ENDBRANCH   1  21
TORSDOF 3
ENDMDL
MODEL 3
REMARK VINA RESULT:      -7.8      5.782      6.860
REMARK  Name = 
REMARK  3 active torsions:
REMARK  status: ('A' for Active; 'I' for Inactive)
REMARK    1  A    between atoms: O_1  and  C_2
REMARK    2  A    between atoms: C_8  and  C_9
REMARK    3  A    between atoms: C_12  and  C_13
REMARK                            x       y       z     vdW  Elec       q    Type
REMARK                         _______ _______ _______ _____ _____    ______ ____
ROOT
ATOM      1  C   UNL     1       7.222   6.765  17.736  0.00  0.00    +0.000 A 
ATOM      2  N   UNL     1       7.972   6.406  18.791  0.00  0.00    +0.000 NA
ATOM      3  N   UNL     1       8.610   7.550  19.076  0.00  0.00    +0.000 N 
ATOM      4  C   UNL     1       8.225   8.573  18.253  0.00  0.00    +0.000 A 
ATOM      5  N   UNL     1       7.330   8.098  17.416  0.00  0.00    +0.000 NA
ATOM      6  H   UNL     1       9.279   7.558  19.833  0.00  0.00    +0.000 HD
ENDROOT
BRANCH   4   7
ATOM      7  C   UNL     1       8.725   9.944  18.304  0.00  0.00    +0.000 A 
ATOM      8  C   UNL     1       8.086  10.935  17.541  0.00  0.00    +0.000 A 
ATOM      9  C   UNL     1       8.528  12.260  17.567  0.00  0.00    +0.000 A 
ATOM     10  C   UNL     1       9.624  12.616  18.356  0.00  0.00    +0.000 A 
ATOM     11 CL   UNL     1      10.124  14.267  18.349  0.00  0.00    +0.000 Cl
ATOM     12  C   UNL     1      10.275  11.637  19.114  0.00  0.00    +0.000 A 
ATOM     13 CL   UNL     1      11.646  11.991  20.105  0.00  0.00    +0.000 Cl
ATOM     14  C   UNL     1       9.825  10.311  19.088  0.00  0.00    +0.000 A 
ENDBRANCH   4   7
BRANCH   1  21
ATOM     15  C   UNL     1       6.611   5.406  15.725  0.00  0.00    +0.000 A 
ATOM     16  C   UNL     1       5.731   4.548  15.062  0.00  0.00    +0.000 A 
ATOM     17  C   UNL     1       4.566   4.122  15.702  0.00  0.00    +0.000 A 
ATOM     18  C   UNL     1       4.290   4.549  16.998  0.00  0.00    +0.000 A 
ATOM     19 CL   UNL     1       2.853   4.017  17.781  0.00  0.00    +0.000 Cl
ATOM     20  C   UNL     1       5.164   5.405  17.661  0.00  0.00    +0.000 A 
ATOM     21  C   UNL     1       6.336   5.852  17.027  0.00  0.00    +0.000 A 
BRANCH  15  22
ATOM     22  O   UNL     1       7.768   5.776  15.094  0.00  0.00    +0.000 OA
ATOM     23  H   UNL     1       8.517   5.276  15.452  0.00  0.00    +0.000 HD
ENDBRANCH  15  22
ENDBRANCH   1  21
TORSDOF 3
ENDMDL
MODEL 4
REMARK VINA RESULT:      -7.8      5.692      6.701
REMARK  Name = 
REMARK  3 active torsions:
REMARK  status: ('A' for Active; 'I' for Inactive)
REMARK    1  A    between atoms: O_1  and  C_2
REMARK    2  A    between atoms: C_8  and  C_9
REMARK    3  A    between atoms: C_12  and  C_13
REMARK                            x       y       z     vdW  Elec       q    Type
REMARK                         _______ _______ _______ _____ _____    ______ ____
ROOT
ATOM      1  C   UNL     1       7.354   6.754  17.631  0.00  0.00    +0.000 A 
ATOM      2  N   UNL     1       7.999   6.414  18.759  0.00  0.00    +0.000 NA
ATOM      3  N   UNL     1       8.586   7.571  19.098  0.00  0.00    +0.000 N 
ATOM      4  C   UNL     1       8.270   8.582  18.233  0.00  0.00    +0.000 A 
ATOM      5  N   UNL     1       7.472   8.087  17.313  0.00  0.00    +0.000 NA
ATOM      6  H   UNL     1       9.176   7.596  19.919  0.00  0.00    +0.000 HD
ENDROOT
BRANCH   4   7
ATOM      7  C   UNL     1       8.740   9.962  18.322  0.00  0.00    +0.000 A 
ATOM      8  C   UNL     1       8.105  10.953  17.555  0.00  0.00    +0.000 A 
ATOM      9  C   UNL     1       8.519  12.286  17.618  0.00  0.00    +0.000 A 
ATOM     10  C   UNL     1       9.581  12.650  18.448  0.00  0.00    +0.000 A 
ATOM     11 CL   UNL     1      10.046  14.310  18.485  0.00  0.00    +0.000 Cl
ATOM     12  C   UNL     1      10.227  11.672  19.211  0.00  0.00    +0.000 A 
ATOM     13 CL   UNL     1      11.557  12.036  20.252  0.00  0.00    +0.000 Cl
ATOM     14  C   UNL     1       9.806  10.337  19.148  0.00  0.00    +0.000 A 
ENDBRANCH   4   7
BRANCH   1  21
ATOM     15  C   UNL     1       5.387   5.233  17.347  0.00  0.00    +0.000 A 
ATOM     16  C   UNL     1       4.657   4.324  16.578  0.00  0.00    +0.000 A 
ATOM     17  C   UNL     1       5.090   4.002  15.292  0.00  0.00    +0.000 A 
ATOM     18  C   UNL     1       6.243   4.590  14.780  0.00  0.00    +0.000 A 
ATOM     19 CL   UNL     1       6.769   4.188  13.191  0.00  0.00    +0.000 Cl
ATOM     20  C   UNL     1       6.975   5.494  15.544  0.00  0.00    +0.000 A 
ATOM     21  C   UNL     1       6.558   5.822  16.845  0.00  0.00    +0.000 A 
BRANCH  15  22
ATOM     22  O   UNL     1       4.920   5.567  18.590  0.00  0.00    +0.000 OA
ATOM     23  H   UNL     1       4.147   5.026  18.811  0.00  0.00    +0.000 HD
ENDBRANCH  15  22
ENDBRANCH   1  21
TORSDOF 3
ENDMDL
MODEL 5
REMARK VINA RESULT:      -7.7      0.642      1.539
REMARK  Name = 
REMARK  3 active torsions:
REMARK  status: ('A' for Active; 'I' for Inactive)
REMARK    1  A    between atoms: O_1  and  C_2
REMARK    2  A    between atoms: C_8  and  C_9
REMARK    3  A    between atoms: C_12  and  C_13
REMARK                            x       y       z     vdW  Elec       q    Type
REMARK                         _______ _______ _______ _____ _____    ______ ____
ROOT
ATOM      1  C   UNL     1       3.991   5.641  18.911  0.00  0.00    +0.000 A 
ATOM      2  N   UNL     1       3.451   4.855  19.857  0.00  0.00    +0.000 NA
ATOM      3  N   UNL     1       2.541   5.673  20.405  0.00  0.00    +0.000 N 
ATOM      4  C   UNL     1       2.501   6.891  19.784  0.00  0.00    +0.000 A 
ATOM      5  N   UNL     1       3.396   6.877  18.821  0.00  0.00    +0.000 NA
ATOM      6  H   UNL     1       1.991   5.337  21.184  0.00  0.00    +0.000 HD
ENDROOT
BRANCH   4   7
ATOM      7  C   UNL     1       1.619   8.000  20.134  0.00  0.00    +0.000 A 
ATOM      8  C   UNL     1       0.983   8.001  21.386  0.00  0.00    +0.000 A 
ATOM      9  C   UNL     1       0.137   9.048  21.762  0.00  0.00    +0.000 A 
ATOM     10  C   UNL     1      -0.090  10.112  20.888  0.00  0.00    +0.000 A 
ATOM     11 CL   UNL     1      -1.143  11.376  21.407  0.00  0.00    +0.000 Cl
ATOM     12  C   UNL     1       0.530  10.119  19.634  0.00  0.00    +0.000 A 
ATOM     13 CL   UNL     1       0.292  11.391  18.488  0.00  0.00    +0.000 Cl
ATOM     14  C   UNL     1       1.381   9.070  19.263  0.00  0.00    +0.000 A 
ENDBRANCH   4   7
BRANCH   1  21
ATOM     15  C   UNL     1       6.385   5.059  18.476  0.00  0.00    +0.000 A 
ATOM     16  C   UNL     1       7.400   4.671  17.598  0.00  0.00    +0.000 A 
ATOM     17  C   UNL     1       7.099   4.427  16.257  0.00  0.00    +0.000 A 
ATOM     18  C   UNL     1       5.790   4.567  15.803  0.00  0.00    +0.000 A 
ATOM     19 CL   UNL     1       5.427   4.262  14.148  0.00  0.00    +0.000 Cl
ATOM     20  C   UNL     1       4.777   4.955  16.675  0.00  0.00    +0.000 A 
ATOM     21  C   UNL     1       5.065   5.215  18.025  0.00  0.00    +0.000 A 
BRANCH  15  22
ATOM     22  O   UNL     1       6.696   5.251  19.795  0.00  0.00    +0.000 OA
ATOM     23  H   UNL     1       6.785   4.396  20.243  0.00  0.00    +0.000 HD
ENDBRANCH  15  22
ENDBRANCH   1  21
TORSDOF 3
ENDMDL
MODEL 6
REMARK VINA RESULT:      -7.7      2.455      3.524
REMARK  Name = 
REMARK  3 active torsions:
REMARK  status: ('A' for Active; 'I' for Inactive)
REMARK    1  A    between atoms: O_1  and  C_2
REMARK    2  A    between atoms: C_8  and  C_9
REMARK    3  A    between atoms: C_12  and  C_13
REMARK                            x       y       z     vdW  Elec       q    Type
REMARK                         _______ _______ _______ _____ _____    ______ ____
ROOT
ATOM      1  C   UNL     1       5.085   4.552  16.036  0.00  0.00    +0.000 A 
ATOM      2  N   UNL     1       4.912   3.548  16.911  0.00  0.00    +0.000 NA
ATOM      3  N   UNL     1       4.191   4.143  17.871  0.00  0.00    +0.000 N 
ATOM      4  C   UNL     1       3.900   5.444  17.567  0.00  0.00    +0.000 A 
ATOM      5  N   UNL     1       4.438   5.711  16.397  0.00  0.00    +0.000 NA
ATOM      6  H   UNL     1       3.935   3.608  18.690  0.00  0.00    +0.000 HD
ENDROOT
BRANCH   4   7
ATOM      7  C   UNL     1       3.129   6.365  18.397  0.00  0.00    +0.000 A 
ATOM      8  C   UNL     1       2.713   5.952  19.673  0.00  0.00    +0.000 A 
ATOM      9  C   UNL     1       1.979   6.805  20.502  0.00  0.00    +0.000 A 
ATOM     10  C   UNL     1       1.644   8.088  20.065  0.00  0.00    +0.000 A 
ATOM     11 CL   UNL     1       0.739   9.096  21.131  0.00  0.00    +0.000 Cl
ATOM     12  C   UNL     1       2.045   8.508  18.792  0.00  0.00    +0.000 A 
ATOM     13 CL   UNL     1       1.661  10.074  18.169  0.00  0.00    +0.000 Cl
ATOM     14  C   UNL     1       2.784   7.652  17.966  0.00  0.00    +0.000 A 
ENDBRANCH   4   7
BRANCH   1  21
ATOM     15  C   UNL     1       7.026   5.131  14.566  0.00  0.00    +0.000 A 
ATOM     16  C   UNL     1       7.713   5.002  13.357  0.00  0.00    +0.000 A 
ATOM     17  C   UNL     1       7.218   4.153  12.366  0.00  0.00    +0.000 A 
ATOM     18  C   UNL     1       6.046   3.436  12.589  0.00  0.00    +0.000 A 
ATOM     19 CL   UNL     1       5.443   2.389  11.363  0.00  0.00    +0.000 Cl
ATOM     20  C   UNL     1       5.357   3.563  13.792  0.00  0.00    +0.000 A 
ATOM     21  C   UNL     1       5.836   4.421  14.795  0.00  0.00    +0.000 A 
BRANCH  15  22
ATOM     22  O   UNL     1       7.553   5.936  15.539  0.00  0.00    +0.000 OA
ATOM     23  H   UNL     1       7.785   6.800  15.166  0.00  0.00    +0.000 HD
ENDBRANCH  15  22
ENDBRANCH   1  21
TORSDOF 3
ENDMDL
MODEL 7
REMARK VINA RESULT:      -7.4      3.531      8.052
REMARK  Name = 
REMARK  3 active torsions:
REMARK  status: ('A' for Active; 'I' for Inactive)
REMARK    1  A    between atoms: O_1  and  C_2
REMARK    2  A    between atoms: C_8  and  C_9
REMARK    3  A    between atoms: C_12  and  C_13
REMARK                            x       y       z     vdW  Elec       q    Type
REMARK                         _______ _______ _______ _____ _____    ______ ____
ROOT
ATOM      1  C   UNL     1       5.213   4.137  18.477  0.00  0.00    +0.000 A 
ATOM      2  N   UNL     1       6.513   4.292  18.777  0.00  0.00    +0.000 NA
ATOM      3  N   UNL     1       7.067   4.372  17.559  0.00  0.00    +0.000 N 
ATOM      4  C   UNL     1       6.132   4.314  16.562  0.00  0.00    +0.000 A 
ATOM      5  N   UNL     1       4.952   4.190  17.128  0.00  0.00    +0.000 NA
ATOM      6  H   UNL     1       8.071   4.466  17.486  0.00  0.00    +0.000 HD
ENDROOT
BRANCH   4   7
ATOM      7  C   UNL     1       6.405   4.380  15.129  0.00  0.00    +0.000 A 
ATOM      8  C   UNL     1       7.495   5.140  14.674  0.00  0.00    +0.000 A 
ATOM      9  C   UNL     1       7.794   5.223  13.311  0.00  0.00    +0.000 A 
ATOM     10  C   UNL     1       7.004   4.549  12.379  0.00  0.00    +0.000 A 
ATOM     11 CL   UNL     1       7.423   4.687  10.711  0.00  0.00    +0.000 Cl
ATOM     12  C   UNL     1       5.910   3.795  12.819  0.00  0.00    +0.000 A 
ATOM     13 CL   UNL     1       4.874   2.942  11.730  0.00  0.00    +0.000 Cl
ATOM     14  C   UNL     1       5.616   3.711  14.185  0.00  0.00    +0.000 A 
ENDBRANCH   4   7
BRANCH   1  21
ATOM     15  C   UNL     1       3.995   2.791  20.199  0.00  0.00    +0.000 A 
ATOM     16  C   UNL     1       2.968   2.665  21.138  0.00  0.00    +0.000 A 
ATOM     17  C   UNL     1       2.106   3.737  21.369  0.00  0.00    +0.000 A 
ATOM     18  C   UNL     1       2.275   4.928  20.667  0.00  0.00    +0.000 A 
ATOM     19 CL   UNL     1       1.209   6.247  20.960  0.00  0.00    +0.000 Cl
ATOM     20  C   UNL     1       3.296   5.057  19.730  0.00  0.00    +0.000 A 
ATOM     21  C   UNL     1       4.167   3.983  19.478  0.00  0.00    +0.000 A 
BRANCH  15  22
ATOM     22  O   UNL     1       4.855   1.741  20.021  0.00  0.00    +0.000 OA
ATOM     23  H   UNL     1       5.569   1.995  19.417  0.00  0.00    +0.000 HD
ENDBRANCH  15  22
ENDBRANCH   1  21
TORSDOF 3
ENDMDL
MODEL 8
REMARK VINA RESULT:      -7.4      2.929      7.742
REMARK  Name = 
REMARK  3 active torsions:
REMARK  status: ('A' for Active; 'I' for Inactive)
REMARK    1  A    between atoms: O_1  and  C_2
REMARK    2  A    between atoms: C_8  and  C_9
REMARK    3  A    between atoms: C_12  and  C_13
REMARK                            x       y       z     vdW  Elec       q    Type
REMARK                         _______ _______ _______ _____ _____    ______ ____
ROOT
ATOM      1  C   UNL     1       1.129   8.946  19.618  0.00  0.00    +0.000 A 
ATOM      2  N   UNL     1       1.433   8.300  20.755  0.00  0.00    +0.000 NA
ATOM      3  N   UNL     1       2.225   7.316  20.307  0.00  0.00    +0.000 N 
ATOM      4  C   UNL     1       2.429   7.393  18.956  0.00  0.00    +0.000 A 
ATOM      5  N   UNL     1       1.762   8.434  18.510  0.00  0.00    +0.000 NA
ATOM      6  H   UNL     1       2.586   6.642  20.968  0.00  0.00    +0.000 HD
ENDROOT
BRANCH   4   7
ATOM      7  C   UNL     1       3.245   6.479  18.162  0.00  0.00    +0.000 A 
ATOM      8  C   UNL     1       4.204   7.006  17.281  0.00  0.00    +0.000 A 
ATOM      9  C   UNL     1       5.009   6.165  16.508  0.00  0.00    +0.000 A 
ATOM     10  C   UNL     1       4.865   4.779  16.600  0.00  0.00    +0.000 A 
ATOM     11 CL   UNL     1       5.887   3.793  15.623  0.00  0.00    +0.000 Cl
ATOM     12  C   UNL     1       3.907   4.242  17.467  0.00  0.00    +0.000 A 
ATOM     13 CL   UNL     1       3.655   2.540  17.630  0.00  0.00    +0.000 Cl
ATOM     14  C   UNL     1       3.105   5.088  18.243  0.00  0.00    +0.000 A 
ENDBRANCH   4   7
BRANCH   1  21
ATOM     15  C   UNL     1       0.282  11.109  20.549  0.00  0.00    +0.000 A 
ATOM     16  C   UNL     1      -0.580  12.206  20.481  0.00  0.00    +0.000 A 
ATOM     17  C   UNL     1      -1.473  12.318  19.413  0.00  0.00    +0.000 A 
ATOM     18  C   UNL     1      -1.495  11.342  18.422  0.00  0.00    +0.000 A 
ATOM     19 CL   UNL     1      -2.597  11.489  17.107  0.00  0.00    +0.000 Cl
ATOM     20  C   UNL     1      -0.638  10.247  18.488  0.00  0.00    +0.000 A 
ATOM     21  C   UNL     1       0.259  10.113  19.561  0.00  0.00    +0.000 A 
BRANCH  15  22
ATOM     22  O   UNL     1       1.178  11.042  21.582  0.00  0.00    +0.000 OA
ATOM     23  H   UNL     1       1.465  10.126  21.714  0.00  0.00    +0.000 HD
ENDBRANCH  15  22
ENDBRANCH   1  21
TORSDOF 3
ENDMDL
MODEL 9
REMARK VINA RESULT:      -7.4      2.507      7.922
REMARK  Name = 
REMARK  3 active torsions:
REMARK  status: ('A' for Active; 'I' for Inactive)
REMARK    1  A    between atoms: O_1  and  C_2
REMARK    2  A    between atoms: C_8  and  C_9
REMARK    3  A    between atoms: C_12  and  C_13
REMARK                            x       y       z     vdW  Elec       q    Type
REMARK                         _______ _______ _______ _____ _____    ______ ____
ROOT
ATOM      1  C   UNL     1       1.192   9.336  19.607  0.00  0.00    +0.000 A 
ATOM      2  N   UNL     1       1.311  10.037  18.468  0.00  0.00    +0.000 NA
ATOM      3  N   UNL     1       2.054   9.214  17.716  0.00  0.00    +0.000 N 
ATOM      4  C   UNL     1       2.336   8.040  18.359  0.00  0.00    +0.000 A 
ATOM      5  N   UNL     1       1.777   8.092  19.548  0.00  0.00    +0.000 NA
ATOM      6  H   UNL     1       2.325   9.513  16.789  0.00  0.00    +0.000 HD
ENDROOT
BRANCH   4   7
ATOM      7  C   UNL     1       3.117   6.933  17.816  0.00  0.00    +0.000 A 
ATOM      8  C   UNL     1       4.331   7.206  17.164  0.00  0.00    +0.000 A 
ATOM      9  C   UNL     1       5.112   6.174  16.636  0.00  0.00    +0.000 A 
ATOM     10  C   UNL     1       4.688   4.849  16.748  0.00  0.00    +0.000 A 
ATOM     11 CL   UNL     1       5.694   3.618  16.079  0.00  0.00    +0.000 Cl
ATOM     12  C   UNL     1       3.477   4.564  17.388  0.00  0.00    +0.000 A 
ATOM     13 CL   UNL     1       2.874   2.953  17.557  0.00  0.00    +0.000 Cl
ATOM     14  C   UNL     1       2.699   5.600  17.919  0.00  0.00    +0.000 A 
ENDBRANCH   4   7
BRANCH   1  21
ATOM     15  C   UNL     1       0.727   9.319  22.066  0.00  0.00    +0.000 A 
ATOM     16  C   UNL     1       0.002   9.780  23.167  0.00  0.00    +0.000 A 
ATOM     17  C   UNL     1      -0.985  10.751  22.989  0.00  0.00    +0.000 A 
ATOM     18  C   UNL     1      -1.238  11.257  21.717  0.00  0.00    +0.000 A 
ATOM     19 CL   UNL     1      -2.456  12.456  21.506  0.00  0.00    +0.000 Cl
ATOM     20  C   UNL     1      -0.520  10.798  20.617  0.00  0.00    +0.000 A 
ATOM     21  C   UNL     1       0.470   9.814  20.778  0.00  0.00    +0.000 A 
BRANCH  15  22
ATOM     22  O   UNL     1       1.719   8.399  22.271  0.00  0.00    +0.000 OA
ATOM     23  H   UNL     1       1.533   7.882  23.070  0.00  0.00    +0.000 HD
ENDBRANCH  15  22
ENDBRANCH   1  21
TORSDOF 3
ENDMDL
