MODEL 1
REMARK VINA RESULT:      -8.2      0.000      0.000
REMARK  Name = 
REMARK  8 active torsions:
REMARK  status: ('A' for Active; 'I' for Inactive)
REMARK    1  A    between atoms: C_1  and  C_2
REMARK    2  A    between atoms: C_2  and  C_3
REMARK    3  A    between atoms: C_3  and  C_4
REMARK    4  A    between atoms: C_4  and  C_5
REMARK    5  A    between atoms: C_9  and  N_10
REMARK    6  A    between atoms: C_11  and  C_12
REMARK    7  A    between atoms: N_15  and  C_16
REMARK    8  A    between atoms: C_16  and  C_17
REMARK                            x       y       z     vdW  Elec       q    Type
REMARK                         _______ _______ _______ _____ _____    ______ ____
ROOT
ATOM      1  C   UNL     1       2.566   4.292  18.002  0.00  0.00    +0.000 A 
ATOM      2  N   UNL     1       3.221   3.815  16.955  0.00  0.00    +0.000 NA
ATOM      3  C   UNL     1       4.393   4.516  16.894  0.00  0.00    +0.000 A 
ATOM      4  C   UNL     1       5.454   4.464  15.989  0.00  0.00    +0.000 A 
ATOM      5  C   UNL     1       6.565   5.294  16.206  0.00  0.00    +0.000 A 
ATOM      6  C   UNL     1       6.496   6.221  17.272  0.00  0.00    +0.000 A 
ATOM      7  C   UNL     1       7.602   7.207  17.542  0.00  0.00    +0.000 C 
ATOM      8  N   UNL     1       5.464   6.313  18.164  0.00  0.00    +0.000 NA
ATOM      9  C   UNL     1       4.473   5.435  17.928  0.00  0.00    +0.000 A 
ATOM     10  N   UNL     1       3.310   5.269  18.643  0.00  0.00    +0.000 N 
ENDROOT
BRANCH   5  11
ATOM     11  N   UNL     1       7.576   5.310  15.227  0.00  0.00    +0.000 N 
ATOM     12  H   UNL     1       7.777   4.391  14.840  0.00  0.00    +0.000 HD
ATOM     13  H   UNL     1       8.428   5.787  15.500  0.00  0.00    +0.000 HD
ENDBRANCH   5  11
BRANCH   1  14
ATOM     14  C   UNL     1       1.198   3.832  18.401  0.00  0.00    +0.000 C 
BRANCH  14  15
ATOM     15  C   UNL     1       1.262   2.611  19.325  0.00  0.00    +0.000 C 
BRANCH  15  17
ATOM     16  C   UNL     1       2.456   2.840  21.540  0.00  0.00    +0.000 C 
ATOM     17  C   UNL     1       1.138   3.010  20.797  0.00  0.00    +0.000 C 
ENDBRANCH  15  17
ENDBRANCH  14  15
ENDBRANCH   1  14
BRANCH  10  18
ATOM     18  C   UNL     1       2.883   6.152  19.721  0.00  0.00    +0.000 C 
BRANCH  18  19
ATOM     19  C   UNL     1       2.336   7.495  19.274  0.00  0.00    +0.000 A 
ATOM     20  C   UNL     1       2.474   7.898  17.929  0.00  0.00    +0.000 A 
ATOM     21  C   UNL     1       1.830   9.037  17.437  0.00  0.00    +0.000 A 
ATOM     22  C   UNL     1       1.026   9.798  18.274  0.00  0.00    +0.000 A 
ATOM     23  C   UNL     1       0.893   9.437  19.613  0.00  0.00    +0.000 A 
ATOM     24  C   UNL     1       1.545   8.301  20.113  0.00  0.00    +0.000 A 
ATOM     25 CL   UNL     1       1.302   7.937  21.785  0.00  0.00    +0.000 Cl
ENDBRANCH  18  19
ENDBRANCH  10  18
TORSDOF 6
ENDMDL
MODEL 2
REMARK VINA RESULT:      -7.6      2.475      6.069
REMARK  Name = 
REMARK  8 active torsions:
REMARK  status: ('A' for Active; 'I' for Inactive)
REMARK    1  A    between atoms: C_1  and  C_2
REMARK    2  A    between atoms: C_2  and  C_3
REMARK    3  A    between atoms: C_3  and  C_4
REMARK    4  A    between atoms: C_4  and  C_5
REMARK    5  A    between atoms: C_9  and  N_10
REMARK    6  A    between atoms: C_11  and  C_12
REMARK    7  A    between atoms: N_15  and  C_16
REMARK    8  A    between atoms: C_16  and  C_17
REMARK                            x       y       z     vdW  Elec       q    Type
REMARK                         _______ _______ _______ _____ _____    ______ ____
ROOT
ATOM      1  C   UNL     1       3.815   7.041  17.510  0.00  0.00    +0.000 A 
ATOM      2  N   UNL     1       3.159   8.114  17.095  0.00  0.00    +0.000 NA
ATOM      3  C   UNL     1       2.326   8.465  18.120  0.00  0.00    +0.000 A 
ATOM      4  C   UNL     1       1.386   9.491  18.237  0.00  0.00    +0.000 A 
ATOM      5  C   UNL     1       0.692   9.633  19.447  0.00  0.00    +0.000 A 
ATOM      6  C   UNL     1       0.905   8.656  20.448  0.00  0.00    +0.000 A 
ATOM      7  C   UNL     1       0.154   8.675  21.753  0.00  0.00    +0.000 C 
ATOM      8  N   UNL     1       1.802   7.628  20.359  0.00  0.00    +0.000 NA
ATOM      9  C   UNL     1       2.476   7.605  19.196  0.00  0.00    +0.000 A 
ATOM     10  N   UNL     1       3.446   6.711  18.804  0.00  0.00    +0.000 N 
ENDROOT
BRANCH   5  11
ATOM     11  N   UNL     1      -0.329  10.601  19.512  0.00  0.00    +0.000 N 
ATOM     12  H   UNL     1      -1.090  10.342  20.135  0.00  0.00    +0.000 HD
ATOM     13  H   UNL     1      -0.678  10.914  18.613  0.00  0.00    +0.000 HD
ENDBRANCH   5  11
BRANCH   1  14
ATOM     14  C   UNL     1       4.801   6.297  16.665  0.00  0.00    +0.000 C 
BRANCH  14  15
ATOM     15  C   UNL     1       6.238   6.748  16.945  0.00  0.00    +0.000 C 
BRANCH  15  17
ATOM     16  C   UNL     1       7.702   6.004  18.866  0.00  0.00    +0.000 C 
ATOM     17  C   UNL     1       7.083   5.614  17.531  0.00  0.00    +0.000 C 
ENDBRANCH  15  17
ENDBRANCH  14  15
ENDBRANCH   1  14
BRANCH  10  18
ATOM     18  C   UNL     1       3.802   5.515  19.556  0.00  0.00    +0.000 C 
BRANCH  18  19
ATOM     19  C   UNL     1       2.834   4.355  19.416  0.00  0.00    +0.000 A 
ATOM     20  C   UNL     1       1.675   4.306  20.219  0.00  0.00    +0.000 A 
ATOM     21  C   UNL     1       0.672   3.358  19.998  0.00  0.00    +0.000 A 
ATOM     22  C   UNL     1       0.797   2.441  18.964  0.00  0.00    +0.000 A 
ATOM     23  C   UNL     1       1.943   2.450  18.172  0.00  0.00    +0.000 A 
ATOM     24  C   UNL     1       2.956   3.392  18.397  0.00  0.00    +0.000 A 
ATOM     25 CL   UNL     1       4.329   3.324  17.349  0.00  0.00    +0.000 Cl
ENDBRANCH  18  19
ENDBRANCH  10  18
TORSDOF 6
ENDMDL
MODEL 3
REMARK VINA RESULT:      -7.6      2.455      5.404
REMARK  Name = 
REMARK  8 active torsions:
REMARK  status: ('A' for Active; 'I' for Inactive)
REMARK    1  A    between atoms: C_1  and  C_2
REMARK    2  A    between atoms: C_2  and  C_3
REMARK    3  A    between atoms: C_3  and  C_4
REMARK    4  A    between atoms: C_4  and  C_5
REMARK    5  A    between atoms: C_9  and  N_10
REMARK    6  A    between atoms: C_11  and  C_12
REMARK    7  A    between atoms: N_15  and  C_16
REMARK    8  A    between atoms: C_16  and  C_17
REMARK                            x       y       z     vdW  Elec       q    Type
REMARK                         _______ _______ _______ _____ _____    ______ ____
ROOT
ATOM      1  C   UNL     1       2.469   4.835  20.217  0.00  0.00    +0.000 A 
ATOM      2  N   UNL     1       1.771   5.571  21.068  0.00  0.00    +0.000 NA
ATOM      3  C   UNL     1       1.664   6.807  20.496  0.00  0.00    +0.000 A 
ATOM      4  C   UNL     1       1.065   7.986  20.946  0.00  0.00    +0.000 A 
ATOM      5  C   UNL     1       1.080   9.111  20.108  0.00  0.00    +0.000 A 
ATOM      6  C   UNL     1       1.802   9.020  18.895  0.00  0.00    +0.000 A 
ATOM      7  C   UNL     1       1.943  10.193  17.962  0.00  0.00    +0.000 C 
ATOM      8  N   UNL     1       2.417   7.889  18.434  0.00  0.00    +0.000 NA
ATOM      9  C   UNL     1       2.295   6.837  19.263  0.00  0.00    +0.000 A 
ATOM     10  N   UNL     1       2.788   5.565  19.084  0.00  0.00    +0.000 N 
ENDROOT
BRANCH   5  11
ATOM     11  N   UNL     1       0.570  10.320  20.619  0.00  0.00    +0.000 N 
ATOM     12  H   UNL     1       1.066  10.649  21.444  0.00  0.00    +0.000 HD
ATOM     13  H   UNL     1      -0.433  10.333  20.763  0.00  0.00    +0.000 HD
ENDBRANCH   5  11
BRANCH   1  14
ATOM     14  C   UNL     1       2.863   3.415  20.482  0.00  0.00    +0.000 C 
BRANCH  14  15
ATOM     15  C   UNL     1       1.773   2.436  20.036  0.00  0.00    +0.000 C 
BRANCH  15  17
ATOM     16  C   UNL     1       3.497   1.648  18.365  0.00  0.00    +0.000 C 
ATOM     17  C   UNL     1       2.021   1.923  18.615  0.00  0.00    +0.000 C 
ENDBRANCH  15  17
ENDBRANCH  14  15
ENDBRANCH   1  14
BRANCH  10  18
ATOM     18  C   UNL     1       3.682   5.182  17.999  0.00  0.00    +0.000 C 
BRANCH  18  19
ATOM     19  C   UNL     1       5.109   5.678  18.135  0.00  0.00    +0.000 A 
ATOM     20  C   UNL     1       5.867   5.333  19.274  0.00  0.00    +0.000 A 
ATOM     21  C   UNL     1       7.234   5.613  19.355  0.00  0.00    +0.000 A 
ATOM     22  C   UNL     1       7.880   6.238  18.298  0.00  0.00    +0.000 A 
ATOM     23  C   UNL     1       7.150   6.614  17.172  0.00  0.00    +0.000 A 
ATOM     24  C   UNL     1       5.777   6.343  17.091  0.00  0.00    +0.000 A 
ATOM     25 CL   UNL     1       4.971   6.839  15.645  0.00  0.00    +0.000 Cl
ENDBRANCH  18  19
ENDBRANCH  10  18
TORSDOF 6
ENDMDL
MODEL 4
REMARK VINA RESULT:      -7.4      2.262      6.101
REMARK  Name = 
REMARK  8 active torsions:
REMARK  status: ('A' for Active; 'I' for Inactive)
REMARK    1  A    between atoms: C_1  and  C_2
REMARK    2  A    between atoms: C_2  and  C_3
REMARK    3  A    between atoms: C_3  and  C_4
REMARK    4  A    between atoms: C_4  and  C_5
REMARK    5  A    between atoms: C_9  and  N_10
REMARK    6  A    between atoms: C_11  and  C_12
REMARK    7  A    between atoms: N_15  and  C_16
REMARK    8  A    between atoms: C_16  and  C_17
REMARK                            x       y       z     vdW  Elec       q    Type
REMARK                         _______ _______ _______ _____ _____    ______ ____
ROOT
ATOM      1  C   UNL     1       3.590   7.254  17.606  0.00  0.00    +0.000 A 
ATOM      2  N   UNL     1       2.913   8.329  17.231  0.00  0.00    +0.000 NA
ATOM      3  C   UNL     1       2.094   8.641  18.279  0.00  0.00    +0.000 A 
ATOM      4  C   UNL     1       1.142   9.650  18.440  0.00  0.00    +0.000 A 
ATOM      5  C   UNL     1       0.467   9.750  19.666  0.00  0.00    +0.000 A 
ATOM      6  C   UNL     1       0.710   8.749  20.635  0.00  0.00    +0.000 A 
ATOM      7  C   UNL     1      -0.019   8.722  21.952  0.00  0.00    +0.000 C 
ATOM      8  N   UNL     1       1.618   7.736  20.503  0.00  0.00    +0.000 NA
ATOM      9  C   UNL     1       2.273   7.753  19.328  0.00  0.00    +0.000 A 
ATOM     10  N   UNL     1       3.247   6.884  18.896  0.00  0.00    +0.000 N 
ENDROOT
BRANCH   5  11
ATOM     11  N   UNL     1      -0.564  10.702  19.774  0.00  0.00    +0.000 N 
ATOM     12  H   UNL     1      -1.087  10.830  18.911  0.00  0.00    +0.000 HD
ATOM     13  H   UNL     1      -0.284  11.592  20.170  0.00  0.00    +0.000 HD
ENDBRANCH   5  11
BRANCH   1  14
ATOM     14  C   UNL     1       4.570   6.546  16.724  0.00  0.00    +0.000 C 
BRANCH  14  15
ATOM     15  C   UNL     1       6.011   6.751  17.204  0.00  0.00    +0.000 C 
BRANCH  15  17
ATOM     16  C   UNL     1       7.497   4.776  17.726  0.00  0.00    +0.000 C 
ATOM     17  C   UNL     1       6.953   5.688  16.636  0.00  0.00    +0.000 C 
ENDBRANCH  15  17
ENDBRANCH  14  15
ENDBRANCH   1  14
BRANCH  10  18
ATOM     18  C   UNL     1       3.632   5.672  19.608  0.00  0.00    +0.000 C 
BRANCH  18  19
ATOM     19  C   UNL     1       3.129   4.379  18.994  0.00  0.00    +0.000 A 
ATOM     20  C   UNL     1       3.941   3.669  18.085  0.00  0.00    +0.000 A 
ATOM     21  C   UNL     1       3.596   2.390  17.639  0.00  0.00    +0.000 A 
ATOM     22  C   UNL     1       2.434   1.784  18.096  0.00  0.00    +0.000 A 
ATOM     23  C   UNL     1       1.600   2.473  18.974  0.00  0.00    +0.000 A 
ATOM     24  C   UNL     1       1.938   3.760  19.416  0.00  0.00    +0.000 A 
ATOM     25 CL   UNL     1       0.840   4.519  20.514  0.00  0.00    +0.000 Cl
ENDBRANCH  18  19
ENDBRANCH  10  18
TORSDOF 6
ENDMDL
MODEL 5
REMARK VINA RESULT:      -7.3      2.387      6.002
REMARK  Name = 
REMARK  8 active torsions:
REMARK  status: ('A' for Active; 'I' for Inactive)
REMARK    1  A    between atoms: C_1  and  C_2
REMARK    2  A    between atoms: C_2  and  C_3
REMARK    3  A    between atoms: C_3  and  C_4
REMARK    4  A    between atoms: C_4  and  C_5
REMARK    5  A    between atoms: C_9  and  N_10
REMARK    6  A    between atoms: C_11  and  C_12
REMARK    7  A    between atoms: N_15  and  C_16
REMARK    8  A    between atoms: C_16  and  C_17
REMARK                            x       y       z     vdW  Elec       q    Type
REMARK                         _______ _______ _______ _____ _____    ______ ____
ROOT
ATOM      1  C   UNL     1       4.375   6.400  17.543  0.00  0.00    +0.000 A 
ATOM      2  N   UNL     1       3.860   7.483  16.983  0.00  0.00    +0.000 NA
ATOM      3  C   UNL     1       2.955   7.976  17.880  0.00  0.00    +0.000 A 
ATOM      4  C   UNL     1       2.096   9.075  17.818  0.00  0.00    +0.000 A 
ATOM      5  C   UNL     1       1.291   9.364  18.929  0.00  0.00    +0.000 A 
ATOM      6  C   UNL     1       1.313   8.456  20.013  0.00  0.00    +0.000 A 
ATOM      7  C   UNL     1       0.430   8.633  21.220  0.00  0.00    +0.000 C 
ATOM      8  N   UNL     1       2.125   7.359  20.098  0.00  0.00    +0.000 NA
ATOM      9  C   UNL     1       2.915   7.193  19.023  0.00  0.00    +0.000 A 
ATOM     10  N   UNL     1       3.843   6.201  18.807  0.00  0.00    +0.000 N 
ENDROOT
BRANCH   5  11
ATOM     11  N   UNL     1       0.354  10.408  18.810  0.00  0.00    +0.000 N 
ATOM     12  H   UNL     1      -0.173  10.380  17.942  0.00  0.00    +0.000 HD
ATOM     13  H   UNL     1       0.724  11.336  18.986  0.00  0.00    +0.000 HD
ENDBRANCH   5  11
BRANCH   1  14
ATOM     14  C   UNL     1       5.380   5.518  16.869  0.00  0.00    +0.000 C 
BRANCH  14  15
ATOM     15  C   UNL     1       5.366   5.706  15.349  0.00  0.00    +0.000 C 
BRANCH  15  17
ATOM     16  C   UNL     1       5.947   3.884  13.699  0.00  0.00    +0.000 C 
ATOM     17  C   UNL     1       6.491   4.921  14.671  0.00  0.00    +0.000 C 
ENDBRANCH  15  17
ENDBRANCH  14  15
ENDBRANCH   1  14
BRANCH  10  18
ATOM     18  C   UNL     1       4.016   5.043  19.675  0.00  0.00    +0.000 C 
BRANCH  18  19
ATOM     19  C   UNL     1       2.900   4.018  19.609  0.00  0.00    +0.000 A 
ATOM     20  C   UNL     1       1.803   4.113  20.491  0.00  0.00    +0.000 A 
ATOM     21  C   UNL     1       0.674   3.303  20.345  0.00  0.00    +0.000 A 
ATOM     22  C   UNL     1       0.608   2.381  19.309  0.00  0.00    +0.000 A 
ATOM     23  C   UNL     1       1.688   2.248  18.439  0.00  0.00    +0.000 A 
ATOM     24  C   UNL     1       2.826   3.052  18.588  0.00  0.00    +0.000 A 
ATOM     25 CL   UNL     1       4.102   2.813  17.447  0.00  0.00    +0.000 Cl
ENDBRANCH  18  19
ENDBRANCH  10  18
TORSDOF 6
ENDMDL
MODEL 6
REMARK VINA RESULT:      -7.3      2.523      6.259
REMARK  Name = 
REMARK  8 active torsions:
REMARK  status: ('A' for Active; 'I' for Inactive)
REMARK    1  A    between atoms: C_1  and  C_2
REMARK    2  A    between atoms: C_2  and  C_3
REMARK    3  A    between atoms: C_3  and  C_4
REMARK    4  A    between atoms: C_4  and  C_5
REMARK    5  A    between atoms: C_9  and  N_10
REMARK    6  A    between atoms: C_11  and  C_12
REMARK    7  A    between atoms: N_15  and  C_16
REMARK    8  A    between atoms: C_16  and  C_17
REMARK                            x       y       z     vdW  Elec       q    Type
REMARK                         _______ _______ _______ _____ _____    ______ ____
ROOT
ATOM      1  C   UNL     1       3.300   6.769  18.091  0.00  0.00    +0.000 A 
ATOM      2  N   UNL     1       2.749   7.858  17.578  0.00  0.00    +0.000 NA
ATOM      3  C   UNL     1       1.981   8.395  18.573  0.00  0.00    +0.000 A 
ATOM      4  C   UNL     1       1.154   9.519  18.598  0.00  0.00    +0.000 A 
ATOM      5  C   UNL     1       0.508   9.853  19.797  0.00  0.00    +0.000 A 
ATOM      6  C   UNL     1       0.643   8.964  20.889  0.00  0.00    +0.000 A 
ATOM      7  C   UNL     1      -0.071   9.191  22.195  0.00  0.00    +0.000 C 
ATOM      8  N   UNL     1       1.428   7.844  20.893  0.00  0.00    +0.000 NA
ATOM      9  C   UNL     1       2.068   7.635  19.729  0.00  0.00    +0.000 A 
ATOM     10  N   UNL     1       2.930   6.610  19.417  0.00  0.00    +0.000 N 
ENDROOT
BRANCH   5  11
ATOM     11  N   UNL     1      -0.406  10.924  19.777  0.00  0.00    +0.000 N 
ATOM     12  H   UNL     1       0.036  11.834  19.877  0.00  0.00    +0.000 HD
ATOM     13  H   UNL     1      -1.192  10.826  20.410  0.00  0.00    +0.000 HD
ENDBRANCH   5  11
BRANCH   1  14
ATOM     14  C   UNL     1       4.184   5.845  17.313  0.00  0.00    +0.000 C 
BRANCH  14  15
ATOM     15  C   UNL     1       5.647   5.958  17.755  0.00  0.00    +0.000 C 
BRANCH  15  17
ATOM     16  C   UNL     1       7.696   7.436  17.756  0.00  0.00    +0.000 C 
ATOM     17  C   UNL     1       6.332   7.177  17.133  0.00  0.00    +0.000 C 
ENDBRANCH  15  17
ENDBRANCH  14  15
ENDBRANCH   1  14
BRANCH  10  18
ATOM     18  C   UNL     1       3.180   5.463  20.281  0.00  0.00    +0.000 C 
BRANCH  18  19
ATOM     19  C   UNL     1       2.469   4.186  19.877  0.00  0.00    +0.000 A 
ATOM     20  C   UNL     1       1.060   4.157  19.808  0.00  0.00    +0.000 A 
ATOM     21  C   UNL     1       0.376   3.064  19.269  0.00  0.00    +0.000 A 
ATOM     22  C   UNL     1       1.083   1.975  18.777  0.00  0.00    +0.000 A 
ATOM     23  C   UNL     1       2.473   1.966  18.856  0.00  0.00    +0.000 A 
ATOM     24  C   UNL     1       3.163   3.056  19.405  0.00  0.00    +0.000 A 
ATOM     25 CL   UNL     1       4.887   2.947  19.443  0.00  0.00    +0.000 Cl
ENDBRANCH  18  19
ENDBRANCH  10  18
TORSDOF 6
ENDMDL
MODEL 7
REMARK VINA RESULT:      -7.3      2.200      5.637
REMARK  Name = 
REMARK  8 active torsions:
REMARK  status: ('A' for Active; 'I' for Inactive)
REMARK    1  A    between atoms: C_1  and  C_2
REMARK    2  A    between atoms: C_2  and  C_3
REMARK    3  A    between atoms: C_3  and  C_4
REMARK    4  A    between atoms: C_4  and  C_5
REMARK    5  A    between atoms: C_9  and  N_10
REMARK    6  A    between atoms: C_11  and  C_12
REMARK    7  A    between atoms: N_15  and  C_16
REMARK    8  A    between atoms: C_16  and  C_17
REMARK                            x       y       z     vdW  Elec       q    Type
REMARK                         _______ _______ _______ _____ _____    ______ ____
ROOT
ATOM      1  C   UNL     1       4.710   5.756  17.146  0.00  0.00    +0.000 A 
ATOM      2  N   UNL     1       4.218   6.878  16.644  0.00  0.00    +0.000 NA
ATOM      3  C   UNL     1       3.382   7.382  17.601  0.00  0.00    +0.000 A 
ATOM      4  C   UNL     1       2.573   8.520  17.614  0.00  0.00    +0.000 A 
ATOM      5  C   UNL     1       1.838   8.810  18.774  0.00  0.00    +0.000 A 
ATOM      6  C   UNL     1       1.872   7.867  19.828  0.00  0.00    +0.000 A 
ATOM      7  C   UNL     1       1.059   8.046  21.083  0.00  0.00    +0.000 C 
ATOM      8  N   UNL     1       2.636   6.733  19.839  0.00  0.00    +0.000 NA
ATOM      9  C   UNL     1       3.363   6.567  18.721  0.00  0.00    +0.000 A 
ATOM     10  N   UNL     1       4.232   5.541  18.428  0.00  0.00    +0.000 N 
ENDROOT
BRANCH   5  11
ATOM     11  N   UNL     1       0.945   9.898  18.733  0.00  0.00    +0.000 N 
ATOM     12  H   UNL     1       0.133   9.775  19.332  0.00  0.00    +0.000 HD
ATOM     13  H   UNL     1       0.675  10.194  17.802  0.00  0.00    +0.000 HD
ENDBRANCH   5  11
BRANCH   1  14
ATOM     14  C   UNL     1       5.638   4.852  16.396  0.00  0.00    +0.000 C 
BRANCH  14  15
ATOM     15  C   UNL     1       7.100   5.277  16.568  0.00  0.00    +0.000 C 
BRANCH  15  17
ATOM     16  C   UNL     1       7.850   5.948  18.886  0.00  0.00    +0.000 C 
ATOM     17  C   UNL     1       7.674   4.798  17.904  0.00  0.00    +0.000 C 
ENDBRANCH  15  17
ENDBRANCH  14  15
ENDBRANCH   1  14
BRANCH  10  18
ATOM     18  C   UNL     1       4.394   4.350  19.253  0.00  0.00    +0.000 C 
BRANCH  18  19
ATOM     19  C   UNL     1       3.108   3.618  19.583  0.00  0.00    +0.000 A 
ATOM     20  C   UNL     1       2.637   3.588  20.913  0.00  0.00    +0.000 A 
ATOM     21  C   UNL     1       1.373   3.083  21.230  0.00  0.00    +0.000 A 
ATOM     22  C   UNL     1       0.543   2.603  20.226  0.00  0.00    +0.000 A 
ATOM     23  C   UNL     1       0.993   2.596  18.908  0.00  0.00    +0.000 A 
ATOM     24  C   UNL     1       2.265   3.092  18.587  0.00  0.00    +0.000 A 
ATOM     25 CL   UNL     1       2.718   3.049  16.920  0.00  0.00    +0.000 Cl
ENDBRANCH  18  19
ENDBRANCH  10  18
TORSDOF 6
ENDMDL
MODEL 8
REMARK VINA RESULT:      -7.3      2.232      5.764
REMARK  Name = 
REMARK  8 active torsions:
REMARK  status: ('A' for Active; 'I' for Inactive)
REMARK    1  A    between atoms: C_1  and  C_2
REMARK    2  A    between atoms: C_2  and  C_3
REMARK    3  A    between atoms: C_3  and  C_4
REMARK    4  A    between atoms: C_4  and  C_5
REMARK    5  A    between atoms: C_9  and  N_10
REMARK    6  A    between atoms: C_11  and  C_12
REMARK    7  A    between atoms: N_15  and  C_16
REMARK    8  A    between atoms: C_16  and  C_17
REMARK                            x       y       z     vdW  Elec       q    Type
REMARK                         _______ _______ _______ _____ _____    ______ ____
ROOT
ATOM      1  C   UNL     1       5.267   5.306  17.208  0.00  0.00    +0.000 A 
ATOM      2  N   UNL     1       4.853   6.446  16.677  0.00  0.00    +0.000 NA
ATOM      3  C   UNL     1       3.928   6.950  17.548  0.00  0.00    +0.000 A 
ATOM      4  C   UNL     1       3.142   8.103  17.496  0.00  0.00    +0.000 A 
ATOM      5  C   UNL     1       2.292   8.388  18.575  0.00  0.00    +0.000 A 
ATOM      6  C   UNL     1       2.195   7.427  19.608  0.00  0.00    +0.000 A 
ATOM      7  C   UNL     1       1.255   7.601  20.772  0.00  0.00    +0.000 C 
ATOM      8  N   UNL     1       2.933   6.278  19.680  0.00  0.00    +0.000 NA
ATOM      9  C   UNL     1       3.774   6.116  18.644  0.00  0.00    +0.000 A 
ATOM     10  N   UNL     1       4.651   5.079  18.427  0.00  0.00    +0.000 N 
ENDROOT
BRANCH   5  11
ATOM     11  N   UNL     1       1.429   9.493  18.459  0.00  0.00    +0.000 N 
ATOM     12  H   UNL     1       1.432   9.913  17.533  0.00  0.00    +0.000 HD
ATOM     13  H   UNL     1       1.536  10.197  19.182  0.00  0.00    +0.000 HD
ENDBRANCH   5  11
BRANCH   1  14
ATOM     14  C   UNL     1       6.255   4.397  16.545  0.00  0.00    +0.000 C 
BRANCH  14  15
ATOM     15  C   UNL     1       6.492   4.790  15.083  0.00  0.00    +0.000 C 
BRANCH  15  17
ATOM     16  C   UNL     1       6.251   3.720  12.808  0.00  0.00    +0.000 C 
ATOM     17  C   UNL     1       5.569   4.022  14.135  0.00  0.00    +0.000 C 
ENDBRANCH  15  17
ENDBRANCH  14  15
ENDBRANCH   1  14
BRANCH  10  18
ATOM     18  C   UNL     1       4.702   3.871  19.242  0.00  0.00    +0.000 C 
BRANCH  18  19
ATOM     19  C   UNL     1       3.351   3.307  19.639  0.00  0.00    +0.000 A 
ATOM     20  C   UNL     1       2.992   3.236  21.001  0.00  0.00    +0.000 A 
ATOM     21  C   UNL     1       1.696   2.895  21.400  0.00  0.00    +0.000 A 
ATOM     22  C   UNL     1       0.725   2.622  20.447  0.00  0.00    +0.000 A 
ATOM     23  C   UNL     1       1.059   2.658  19.095  0.00  0.00    +0.000 A 
ATOM     24  C   UNL     1       2.360   2.991  18.692  0.00  0.00    +0.000 A 
ATOM     25 CL   UNL     1       2.664   3.019  16.991  0.00  0.00    +0.000 Cl
ENDBRANCH  18  19
ENDBRANCH  10  18
TORSDOF 6
ENDMDL
MODEL 9
REMARK VINA RESULT:      -7.2      1.986      5.880
REMARK  Name = 
REMARK  8 active torsions:
REMARK  status: ('A' for Active; 'I' for Inactive)
REMARK    1  A    between atoms: C_1  and  C_2
REMARK    2  A    between atoms: C_2  and  C_3
REMARK    3  A    between atoms: C_3  and  C_4
REMARK    4  A    between atoms: C_4  and  C_5
REMARK    5  A    between atoms: C_9  and  N_10
REMARK    6  A    between atoms: C_11  and  C_12
REMARK    7  A    between atoms: N_15  and  C_16
REMARK    8  A    between atoms: C_16  and  C_17
REMARK                            x       y       z     vdW  Elec       q    Type
REMARK                         _______ _______ _______ _____ _____    ______ ____
ROOT
ATOM      1  C   UNL     1       4.225   6.750  17.174  0.00  0.00    +0.000 A 
ATOM      2  N   UNL     1       3.619   7.853  16.764  0.00  0.00    +0.000 NA
ATOM      3  C   UNL     1       2.790   8.228  17.784  0.00  0.00    +0.000 A 
ATOM      4  C   UNL     1       1.891   9.290  17.902  0.00  0.00    +0.000 A 
ATOM      5  C   UNL     1       1.191   9.447  19.107  0.00  0.00    +0.000 A 
ATOM      6  C   UNL     1       1.353   8.452  20.099  0.00  0.00    +0.000 A 
ATOM      7  C   UNL     1       0.589   8.488  21.396  0.00  0.00    +0.000 C 
ATOM      8  N   UNL     1       2.208   7.389  20.008  0.00  0.00    +0.000 NA
ATOM      9  C   UNL     1       2.893   7.350  18.852  0.00  0.00    +0.000 A 
ATOM     10  N   UNL     1       3.829   6.422  18.460  0.00  0.00    +0.000 N 
ENDROOT
BRANCH   5  11
ATOM     11  N   UNL     1       0.210  10.455  19.172  0.00  0.00    +0.000 N 
ATOM     12  H   UNL     1      -0.095  10.661  20.120  0.00  0.00    +0.000 HD
ATOM     13  H   UNL     1      -0.582  10.322  18.552  0.00  0.00    +0.000 HD
ENDBRANCH   5  11
BRANCH   1  14
ATOM     14  C   UNL     1       5.189   5.975  16.331  0.00  0.00    +0.000 C 
BRANCH  14  15
ATOM     15  C   UNL     1       6.583   5.929  16.965  0.00  0.00    +0.000 C 
BRANCH  15  17
ATOM     16  C   UNL     1       8.124   7.279  18.444  0.00  0.00    +0.000 C 
ATOM     17  C   UNL     1       7.081   7.328  17.337  0.00  0.00    +0.000 C 
ENDBRANCH  15  17
ENDBRANCH  14  15
ENDBRANCH   1  14
BRANCH  10  18
ATOM     18  C   UNL     1       4.129   5.204  19.202  0.00  0.00    +0.000 C 
BRANCH  18  19
ATOM     19  C   UNL     1       3.139   4.071  19.005  0.00  0.00    +0.000 A 
ATOM     20  C   UNL     1       3.109   3.368  17.782  0.00  0.00    +0.000 A 
ATOM     21  C   UNL     1       2.345   2.209  17.623  0.00  0.00    +0.000 A 
ATOM     22  C   UNL     1       1.597   1.718  18.684  0.00  0.00    +0.000 A 
ATOM     23  C   UNL     1       1.587   2.407  19.895  0.00  0.00    +0.000 A 
ATOM     24  C   UNL     1       2.345   3.575  20.055  0.00  0.00    +0.000 A 
ATOM     25 CL   UNL     1       2.272   4.344  21.602  0.00  0.00    +0.000 Cl
ENDBRANCH  18  19
ENDBRANCH  10  18
TORSDOF 6
ENDMDL
