MODEL 1
REMARK VINA RESULT:      -7.3      0.000      0.000
REMARK  Name = 
REMARK  10 active torsions:
REMARK  status: ('A' for Active; 'I' for Inactive)
REMARK    1  A    between atoms: C_2  and  C_3
REMARK    2  A    between atoms: C_2  and  C_16
REMARK    3  A    between atoms: C_4  and  C_5
REMARK    4  A    between atoms: C_5  and  C_7
REMARK    5  A    between atoms: C_8  and  O_9
REMARK    6  A    between atoms: C_11  and  O_12
REMARK    7  A    between atoms: C_14  and  O_15
REMARK    8  A    between atoms: C_17  and  O_18
REMARK    9  A    between atoms: C_20  and  O_21
REMARK   10  A    between atoms: C_23  and  O_24
REMARK                            x       y       z     vdW  Elec       q    Type
REMARK                         _______ _______ _______ _____ _____    ______ ____
ROOT
ATOM      1  C   UNL     1       3.360   4.399  19.628  0.00  0.00    +0.000 C 
ATOM      2  C   UNL     1       3.383   5.728  19.803  0.00  0.00    +0.000 C 
ENDROOT
BRANCH   1   4
ATOM      3  O   UNL     1       5.041   2.746  19.893  0.00  0.00    +0.000 OA
ATOM      4  C   UNL     1       4.628   3.723  19.265  0.00  0.00    +0.000 C 
BRANCH   4   5
ATOM      5  C   UNL     1       5.372   4.156  18.060  0.00  0.00    +0.000 A 
ATOM      6  C   UNL     1       6.630   4.760  18.235  0.00  0.00    +0.000 A 
ATOM      7  C   UNL     1       7.389   5.173  17.142  0.00  0.00    +0.000 A 
ATOM      8  C   UNL     1       6.872   5.015  15.863  0.00  0.00    +0.000 A 
ATOM      9  C   UNL     1       5.612   4.458  15.662  0.00  0.00    +0.000 A 
ATOM     10  C   UNL     1       4.860   4.035  16.761  0.00  0.00    +0.000 A 
BRANCH   6  11
ATOM     11  O   UNL     1       7.187   4.986  19.471  0.00  0.00    +0.000 OA
ATOM     12  H   UNL     1       8.162   4.880  19.384  0.00  0.00    +0.000 HD
ENDBRANCH   6  11
BRANCH   8  13
ATOM     13  O   UNL     1       7.570   5.411  14.760  0.00  0.00    +0.000 OA
ATOM     14  H   UNL     1       6.969   5.415  13.997  0.00  0.00    +0.000 HD
ENDBRANCH   8  13
BRANCH  10  15
ATOM     15  O   UNL     1       3.602   3.541  16.550  0.00  0.00    +0.000 OA
ATOM     16  H   UNL     1       3.396   2.878  17.232  0.00  0.00    +0.000 HD
ENDBRANCH  10  15
ENDBRANCH   4   5
ENDBRANCH   1   4
BRANCH   2  17
ATOM     17  C   UNL     1       2.144   6.458  20.164  0.00  0.00    +0.000 C 
ATOM     18  O   UNL     1       1.269   5.925  20.849  0.00  0.00    +0.000 OA
BRANCH  17  19
ATOM     19  C   UNL     1       1.888   7.817  19.603  0.00  0.00    +0.000 A 
ATOM     20  C   UNL     1       1.201   8.744  20.414  0.00  0.00    +0.000 A 
ATOM     21  C   UNL     1       0.875  10.020  19.951  0.00  0.00    +0.000 A 
ATOM     22  C   UNL     1       1.256  10.390  18.669  0.00  0.00    +0.000 A 
ATOM     23  C   UNL     1       1.954   9.511  17.851  0.00  0.00    +0.000 A 
ATOM     24  C   UNL     1       2.280   8.235  18.321  0.00  0.00    +0.000 A 
BRANCH  20  25
ATOM     25  O   UNL     1       0.804   8.469  21.700  0.00  0.00    +0.000 OA
ATOM     26  H   UNL     1       0.407   7.567  21.707  0.00  0.00    +0.000 HD
ENDBRANCH  20  25
BRANCH  22  27
ATOM     27  O   UNL     1       0.980  11.630  18.173  0.00  0.00    +0.000 OA
ATOM     28  H   UNL     1       1.273  12.297  18.818  0.00  0.00    +0.000 HD
ENDBRANCH  22  27
BRANCH  24  29
ATOM     29  O   UNL     1       3.029   7.429  17.509  0.00  0.00    +0.000 OA
ATOM     30  H   UNL     1       3.146   7.852  16.640  0.00  0.00    +0.000 HD
ENDBRANCH  24  29
ENDBRANCH  17  19
ENDBRANCH   2  17
TORSDOF 10
ENDMDL
MODEL 2
REMARK VINA RESULT:      -7.2      3.178      6.243
REMARK  Name = 
REMARK  10 active torsions:
REMARK  status: ('A' for Active; 'I' for Inactive)
REMARK    1  A    between atoms: C_2  and  C_3
REMARK    2  A    between atoms: C_2  and  C_16
REMARK    3  A    between atoms: C_4  and  C_5
REMARK    4  A    between atoms: C_5  and  C_7
REMARK    5  A    between atoms: C_8  and  O_9
REMARK    6  A    between atoms: C_11  and  O_12
REMARK    7  A    between atoms: C_14  and  O_15
REMARK    8  A    between atoms: C_17  and  O_18
REMARK    9  A    between atoms: C_20  and  O_21
REMARK   10  A    between atoms: C_23  and  O_24
REMARK                            x       y       z     vdW  Elec       q    Type
REMARK                         _______ _______ _______ _____ _____    ______ ____
ROOT
ATOM      1  C   UNL     1       3.549   4.973  17.313  0.00  0.00    +0.000 C 
ATOM      2  C   UNL     1       4.254   4.053  16.640  0.00  0.00    +0.000 C 
ENDROOT
BRANCH   1   4
ATOM      3  O   UNL     1       1.202   4.818  17.002  0.00  0.00    +0.000 OA
ATOM      4  C   UNL     1       2.173   4.622  17.737  0.00  0.00    +0.000 C 
BRANCH   4   5
ATOM      5  C   UNL     1       1.956   3.924  19.024  0.00  0.00    +0.000 A 
ATOM      6  C   UNL     1       2.188   4.635  20.215  0.00  0.00    +0.000 A 
ATOM      7  C   UNL     1       1.986   4.041  21.459  0.00  0.00    +0.000 A 
ATOM      8  C   UNL     1       1.583   2.713  21.516  0.00  0.00    +0.000 A 
ATOM      9  C   UNL     1       1.385   1.973  20.354  0.00  0.00    +0.000 A 
ATOM     10  C   UNL     1       1.578   2.576  19.109  0.00  0.00    +0.000 A 
BRANCH   6  11
ATOM     11  O   UNL     1       2.627   5.936  20.237  0.00  0.00    +0.000 OA
ATOM     12  H   UNL     1       3.489   5.954  20.711  0.00  0.00    +0.000 HD
ENDBRANCH   6  11
BRANCH   8  13
ATOM     13  O   UNL     1       1.379   2.082  22.709  0.00  0.00    +0.000 OA
ATOM     14  H   UNL     1       1.223   1.138  22.538  0.00  0.00    +0.000 HD
ENDBRANCH   8  13
BRANCH  10  15
ATOM     15  O   UNL     1       1.433   1.820  17.979  0.00  0.00    +0.000 OA
ATOM     16  H   UNL     1       2.150   1.163  17.933  0.00  0.00    +0.000 HD
ENDBRANCH  10  15
ENDBRANCH   4   5
ENDBRANCH   1   4
BRANCH   2  17
ATOM     17  C   UNL     1       5.634   4.350  16.187  0.00  0.00    +0.000 C 
ATOM     18  O   UNL     1       6.188   3.649  15.337  0.00  0.00    +0.000 OA
BRANCH  17  19
ATOM     19  C   UNL     1       6.417   5.439  16.841  0.00  0.00    +0.000 A 
ATOM     20  C   UNL     1       7.385   5.069  17.798  0.00  0.00    +0.000 A 
ATOM     21  C   UNL     1       8.126   6.025  18.494  0.00  0.00    +0.000 A 
ATOM     22  C   UNL     1       7.919   7.370  18.222  0.00  0.00    +0.000 A 
ATOM     23  C   UNL     1       6.991   7.769  17.268  0.00  0.00    +0.000 A 
ATOM     24  C   UNL     1       6.253   6.807  16.572  0.00  0.00    +0.000 A 
BRANCH  20  25
ATOM     25  O   UNL     1       7.668   3.763  18.116  0.00  0.00    +0.000 OA
ATOM     26  H   UNL     1       6.895   3.214  17.848  0.00  0.00    +0.000 HD
ENDBRANCH  20  25
BRANCH  22  27
ATOM     27  O   UNL     1       8.629   8.344  18.858  0.00  0.00    +0.000 OA
ATOM     28  H   UNL     1       8.269   9.211  18.603  0.00  0.00    +0.000 HD
ENDBRANCH  22  27
BRANCH  24  29
ATOM     29  O   UNL     1       5.402   7.242  15.594  0.00  0.00    +0.000 OA
ATOM     30  H   UNL     1       5.636   6.828  14.744  0.00  0.00    +0.000 HD
ENDBRANCH  24  29
ENDBRANCH  17  19
ENDBRANCH   2  17
TORSDOF 10
ENDMDL
MODEL 3
REMARK VINA RESULT:      -7.1      3.146      6.494
REMARK  Name = 
REMARK  10 active torsions:
REMARK  status: ('A' for Active; 'I' for Inactive)
REMARK    1  A    between atoms: C_2  and  C_3
REMARK    2  A    between atoms: C_2  and  C_16
REMARK    3  A    between atoms: C_4  and  C_5
REMARK    4  A    between atoms: C_5  and  C_7
REMARK    5  A    between atoms: C_8  and  O_9
REMARK    6  A    between atoms: C_11  and  O_12
REMARK    7  A    between atoms: C_14  and  O_15
REMARK    8  A    between atoms: C_17  and  O_18
REMARK    9  A    between atoms: C_20  and  O_21
REMARK   10  A    between atoms: C_23  and  O_24
REMARK                            x       y       z     vdW  Elec       q    Type
REMARK                         _______ _______ _______ _____ _____    ______ ____
ROOT
ATOM      1  C   UNL     1       3.342   4.937  17.320  0.00  0.00    +0.000 C 
ATOM      2  C   UNL     1       4.116   3.978  16.791  0.00  0.00    +0.000 C 
ENDROOT
BRANCH   1   4
ATOM      3  O   UNL     1       1.002   4.662  17.037  0.00  0.00    +0.000 OA
ATOM      4  C   UNL     1       1.984   4.561  17.777  0.00  0.00    +0.000 C 
BRANCH   4   5
ATOM      5  C   UNL     1       1.801   3.952  19.115  0.00  0.00    +0.000 A 
ATOM      6  C   UNL     1       1.240   2.664  19.190  0.00  0.00    +0.000 A 
ATOM      7  C   UNL     1       1.058   2.029  20.417  0.00  0.00    +0.000 A 
ATOM      8  C   UNL     1       1.405   2.699  21.582  0.00  0.00    +0.000 A 
ATOM      9  C   UNL     1       1.925   3.989  21.540  0.00  0.00    +0.000 A 
ATOM     10  C   UNL     1       2.116   4.618  20.307  0.00  0.00    +0.000 A 
BRANCH   6  11
ATOM     11  O   UNL     1       0.834   1.959  18.083  0.00  0.00    +0.000 OA
ATOM     12  H   UNL     1       0.277   2.557  17.534  0.00  0.00    +0.000 HD
ENDBRANCH   6  11
BRANCH   8  13
ATOM     13  O   UNL     1       1.239   2.125  22.809  0.00  0.00    +0.000 OA
ATOM     14  H   UNL     1       1.906   2.488  23.414  0.00  0.00    +0.000 HD
ENDBRANCH   8  13
BRANCH  10  15
ATOM     15  O   UNL     1       2.576   5.906  20.286  0.00  0.00    +0.000 OA
ATOM     16  H   UNL     1       1.823   6.520  20.345  0.00  0.00    +0.000 HD
ENDBRANCH  10  15
ENDBRANCH   4   5
ENDBRANCH   1   4
BRANCH   2  17
ATOM     17  C   UNL     1       5.482   4.296  16.312  0.00  0.00    +0.000 C 
ATOM     18  O   UNL     1       5.988   3.672  15.378  0.00  0.00    +0.000 OA
BRANCH  17  19
ATOM     19  C   UNL     1       6.310   5.306  17.033  0.00  0.00    +0.000 A 
ATOM     20  C   UNL     1       6.392   6.603  16.484  0.00  0.00    +0.000 A 
ATOM     21  C   UNL     1       7.185   7.593  17.066  0.00  0.00    +0.000 A 
ATOM     22  C   UNL     1       7.892   7.300  18.223  0.00  0.00    +0.000 A 
ATOM     23  C   UNL     1       7.817   6.040  18.804  0.00  0.00    +0.000 A 
ATOM     24  C   UNL     1       7.019   5.052  18.219  0.00  0.00    +0.000 A 
BRANCH  20  25
ATOM     25  O   UNL     1       5.712   6.985  15.354  0.00  0.00    +0.000 OA
ATOM     26  H   UNL     1       4.860   7.391  15.639  0.00  0.00    +0.000 HD
ENDBRANCH  20  25
BRANCH  22  27
ATOM     27  O   UNL     1       8.666   8.235  18.843  0.00  0.00    +0.000 OA
ATOM     28  H   UNL     1       8.266   8.453  19.702  0.00  0.00    +0.000 HD
ENDBRANCH  22  27
BRANCH  24  29
ATOM     29  O   UNL     1       6.919   3.849  18.863  0.00  0.00    +0.000 OA
ATOM     30  H   UNL     1       6.052   3.446  18.676  0.00  0.00    +0.000 HD
ENDBRANCH  24  29
ENDBRANCH  17  19
ENDBRANCH   2  17
TORSDOF 10
ENDMDL
MODEL 4
REMARK VINA RESULT:      -7.1      0.107      6.544
REMARK  Name = 
REMARK  10 active torsions:
REMARK  status: ('A' for Active; 'I' for Inactive)
REMARK    1  A    between atoms: C_2  and  C_3
REMARK    2  A    between atoms: C_2  and  C_16
REMARK    3  A    between atoms: C_4  and  C_5
REMARK    4  A    between atoms: C_5  and  C_7
REMARK    5  A    between atoms: C_8  and  O_9
REMARK    6  A    between atoms: C_11  and  O_12
REMARK    7  A    between atoms: C_14  and  O_15
REMARK    8  A    between atoms: C_17  and  O_18
REMARK    9  A    between atoms: C_20  and  O_21
REMARK   10  A    between atoms: C_23  and  O_24
REMARK                            x       y       z     vdW  Elec       q    Type
REMARK                         _______ _______ _______ _____ _____    ______ ____
ROOT
ATOM      1  C   UNL     1       3.383   5.823  19.721  0.00  0.00    +0.000 C 
ATOM      2  C   UNL     1       3.365   4.484  19.649  0.00  0.00    +0.000 C 
ENDROOT
BRANCH   1   4
ATOM      3  O   UNL     1       1.346   6.021  20.921  0.00  0.00    +0.000 OA
ATOM      4  C   UNL     1       2.132   6.515  20.109  0.00  0.00    +0.000 C 
BRANCH   4   5
ATOM      5  C   UNL     1       1.856   7.877  19.596  0.00  0.00    +0.000 A 
ATOM      6  C   UNL     1       1.192   8.785  20.440  0.00  0.00    +0.000 A 
ATOM      7  C   UNL     1       0.918  10.086  20.024  0.00  0.00    +0.000 A 
ATOM      8  C   UNL     1       1.278  10.474  18.740  0.00  0.00    +0.000 A 
ATOM      9  C   UNL     1       1.900   9.584  17.869  0.00  0.00    +0.000 A 
ATOM     10  C   UNL     1       2.183   8.284  18.295  0.00  0.00    +0.000 A 
BRANCH   6  11
ATOM     11  O   UNL     1       0.769   8.459  21.706  0.00  0.00    +0.000 OA
ATOM     12  H   UNL     1       1.563   8.426  22.287  0.00  0.00    +0.000 HD
ENDBRANCH   6  11
BRANCH   8  13
ATOM     13  O   UNL     1       1.025  11.734  18.281  0.00  0.00    +0.000 OA
ATOM     14  H   UNL     1       0.679  12.268  19.016  0.00  0.00    +0.000 HD
ENDBRANCH   8  13
BRANCH  10  15
ATOM     15  O   UNL     1       2.744   7.406  17.409  0.00  0.00    +0.000 OA
ATOM     16  H   UNL     1       3.714   7.476  17.453  0.00  0.00    +0.000 HD
ENDBRANCH  10  15
ENDBRANCH   4   5
ENDBRANCH   1   4
BRANCH   2  17
ATOM     17  C   UNL     1       4.586   3.738  19.263  0.00  0.00    +0.000 C 
ATOM     18  O   UNL     1       4.989   2.788  19.937  0.00  0.00    +0.000 OA
BRANCH  17  19
ATOM     19  C   UNL     1       5.411   4.200  18.109  0.00  0.00    +0.000 A 
ATOM     20  C   UNL     1       4.880   4.036  16.813  0.00  0.00    +0.000 A 
ATOM     21  C   UNL     1       5.606   4.394  15.675  0.00  0.00    +0.000 A 
ATOM     22  C   UNL     1       6.871   4.944  15.826  0.00  0.00    +0.000 A 
ATOM     23  C   UNL     1       7.416   5.141  17.089  0.00  0.00    +0.000 A 
ATOM     24  C   UNL     1       6.684   4.783  18.225  0.00  0.00    +0.000 A 
BRANCH  20  25
ATOM     25  O   UNL     1       3.631   3.519  16.572  0.00  0.00    +0.000 OA
ATOM     26  H   UNL     1       3.717   2.540  16.509  0.00  0.00    +0.000 HD
ENDBRANCH  20  25
BRANCH  22  27
ATOM     27  O   UNL     1       7.614   5.329  14.750  0.00  0.00    +0.000 OA
ATOM     28  H   UNL     1       8.385   5.832  15.066  0.00  0.00    +0.000 HD
ENDBRANCH  22  27
BRANCH  24  29
ATOM     29  O   UNL     1       7.230   5.060  19.448  0.00  0.00    +0.000 OA
ATOM     30  H   UNL     1       6.595   5.566  19.986  0.00  0.00    +0.000 HD
ENDBRANCH  24  29
ENDBRANCH  17  19
ENDBRANCH   2  17
TORSDOF 10
ENDMDL
MODEL 5
REMARK VINA RESULT:      -7.0      0.281      1.734
REMARK  Name = 
REMARK  10 active torsions:
REMARK  status: ('A' for Active; 'I' for Inactive)
REMARK    1  A    between atoms: C_2  and  C_3
REMARK    2  A    between atoms: C_2  and  C_16
REMARK    3  A    between atoms: C_4  and  C_5
REMARK    4  A    between atoms: C_5  and  C_7
REMARK    5  A    between atoms: C_8  and  O_9
REMARK    6  A    between atoms: C_11  and  O_12
REMARK    7  A    between atoms: C_14  and  O_15
REMARK    8  A    between atoms: C_17  and  O_18
REMARK    9  A    between atoms: C_20  and  O_21
REMARK   10  A    between atoms: C_23  and  O_24
REMARK                            x       y       z     vdW  Elec       q    Type
REMARK                         _______ _______ _______ _____ _____    ______ ____
ROOT
ATOM      1  C   UNL     1       3.362   4.369  19.943  0.00  0.00    +0.000 C 
ATOM      2  C   UNL     1       3.272   5.693  19.753  0.00  0.00    +0.000 C 
ENDROOT
BRANCH   1   4
ATOM      3  O   UNL     1       4.959   2.615  19.971  0.00  0.00    +0.000 OA
ATOM      4  C   UNL     1       4.588   3.681  19.475  0.00  0.00    +0.000 C 
BRANCH   4   5
ATOM      5  C   UNL     1       5.338   4.221  18.318  0.00  0.00    +0.000 A 
ATOM      6  C   UNL     1       6.534   4.918  18.565  0.00  0.00    +0.000 A 
ATOM      7  C   UNL     1       7.295   5.436  17.519  0.00  0.00    +0.000 A 
ATOM      8  C   UNL     1       6.840   5.287  16.215  0.00  0.00    +0.000 A 
ATOM      9  C   UNL     1       5.640   4.638  15.944  0.00  0.00    +0.000 A 
ATOM     10  C   UNL     1       4.886   4.111  16.996  0.00  0.00    +0.000 A 
BRANCH   6  11
ATOM     11  O   UNL     1       7.024   5.140  19.829  0.00  0.00    +0.000 OA
ATOM     12  H   UNL     1       7.997   5.267  19.756  0.00  0.00    +0.000 HD
ENDBRANCH   6  11
BRANCH   8  13
ATOM     13  O   UNL     1       7.543   5.784  15.156  0.00  0.00    +0.000 OA
ATOM     14  H   UNL     1       7.821   6.691  15.367  0.00  0.00    +0.000 HD
ENDBRANCH   8  13
BRANCH  10  15
ATOM     15  O   UNL     1       3.682   3.524  16.717  0.00  0.00    +0.000 OA
ATOM     16  H   UNL     1       3.584   2.716  17.251  0.00  0.00    +0.000 HD
ENDBRANCH  10  15
ENDBRANCH   4   5
ENDBRANCH   1   4
BRANCH   2  17
ATOM     17  C   UNL     1       2.067   6.434  20.197  0.00  0.00    +0.000 C 
ATOM     18  O   UNL     1       1.223   5.899  20.919  0.00  0.00    +0.000 OA
BRANCH  17  19
ATOM     19  C   UNL     1       1.802   7.808  19.679  0.00  0.00    +0.000 A 
ATOM     20  C   UNL     1       2.237   8.114  18.373  0.00  0.00    +0.000 A 
ATOM     21  C   UNL     1       2.075   9.389  17.829  0.00  0.00    +0.000 A 
ATOM     22  C   UNL     1       1.453  10.372  18.585  0.00  0.00    +0.000 A 
ATOM     23  C   UNL     1       0.992  10.099  19.867  0.00  0.00    +0.000 A 
ATOM     24  C   UNL     1       1.153   8.819  20.407  0.00  0.00    +0.000 A 
BRANCH  20  25
ATOM     25  O   UNL     1       2.844   7.198  17.548  0.00  0.00    +0.000 OA
ATOM     26  H   UNL     1       2.291   7.111  16.737  0.00  0.00    +0.000 HD
ENDBRANCH  20  25
BRANCH  22  27
ATOM     27  O   UNL     1       1.252  11.628  18.096  0.00  0.00    +0.000 OA
ATOM     28  H   UNL     1       1.856  11.773  17.348  0.00  0.00    +0.000 HD
ENDBRANCH  22  27
BRANCH  24  29
ATOM     29  O   UNL     1       0.621   8.576  21.642  0.00  0.00    +0.000 OA
ATOM     30  H   UNL     1       0.939   9.244  22.276  0.00  0.00    +0.000 HD
ENDBRANCH  24  29
ENDBRANCH  17  19
ENDBRANCH   2  17
TORSDOF 10
ENDMDL
MODEL 6
REMARK VINA RESULT:      -7.0      2.406      4.508
REMARK  Name = 
REMARK  10 active torsions:
REMARK  status: ('A' for Active; 'I' for Inactive)
REMARK    1  A    between atoms: C_2  and  C_3
REMARK    2  A    between atoms: C_2  and  C_16
REMARK    3  A    between atoms: C_4  and  C_5
REMARK    4  A    between atoms: C_5  and  C_7
REMARK    5  A    between atoms: C_8  and  O_9
REMARK    6  A    between atoms: C_11  and  O_12
REMARK    7  A    between atoms: C_14  and  O_15
REMARK    8  A    between atoms: C_17  and  O_18
REMARK    9  A    between atoms: C_20  and  O_21
REMARK   10  A    between atoms: C_23  and  O_24
REMARK                            x       y       z     vdW  Elec       q    Type
REMARK                         _______ _______ _______ _____ _____    ______ ____
ROOT
ATOM      1  C   UNL     1       3.121   7.272  17.852  0.00  0.00    +0.000 C 
ATOM      2  C   UNL     1       1.912   7.746  18.186  0.00  0.00    +0.000 C 
ENDROOT
BRANCH   1   4
ATOM      3  O   UNL     1       4.019   5.307  16.872  0.00  0.00    +0.000 OA
ATOM      4  C   UNL     1       3.283   5.805  17.727  0.00  0.00    +0.000 C 
BRANCH   4   5
ATOM      5  C   UNL     1       2.632   4.907  18.709  0.00  0.00    +0.000 A 
ATOM      6  C   UNL     1       3.183   4.820  20.000  0.00  0.00    +0.000 A 
ATOM      7  C   UNL     1       2.608   4.007  20.974  0.00  0.00    +0.000 A 
ATOM      8  C   UNL     1       1.494   3.245  20.647  0.00  0.00    +0.000 A 
ATOM      9  C   UNL     1       0.953   3.280  19.365  0.00  0.00    +0.000 A 
ATOM     10  C   UNL     1       1.526   4.105  18.395  0.00  0.00    +0.000 A 
BRANCH   6  11
ATOM     11  O   UNL     1       4.306   5.512  20.383  0.00  0.00    +0.000 OA
ATOM     12  H   UNL     1       4.123   6.472  20.259  0.00  0.00    +0.000 HD
ENDBRANCH   6  11
BRANCH   8  13
ATOM     13  O   UNL     1       0.899   2.426  21.562  0.00  0.00    +0.000 OA
ATOM     14  H   UNL     1       0.411   1.734  21.087  0.00  0.00    +0.000 HD
ENDBRANCH   8  13
BRANCH  10  15
ATOM     15  O   UNL     1       1.016   4.086  17.126  0.00  0.00    +0.000 OA
ATOM     16  H   UNL     1       1.391   4.824  16.614  0.00  0.00    +0.000 HD
ENDBRANCH  10  15
ENDBRANCH   4   5
ENDBRANCH   1   4
BRANCH   2  17
ATOM     17  C   UNL     1       1.692   9.205  18.330  0.00  0.00    +0.000 C 
ATOM     18  O   UNL     1       2.223  10.006  17.558  0.00  0.00    +0.000 OA
BRANCH  17  19
ATOM     19  C   UNL     1       0.912   9.732  19.486  0.00  0.00    +0.000 A 
ATOM     20  C   UNL     1      -0.004  10.776  19.240  0.00  0.00    +0.000 A 
ATOM     21  C   UNL     1      -0.738  11.363  20.273  0.00  0.00    +0.000 A 
ATOM     22  C   UNL     1      -0.577  10.892  21.568  0.00  0.00    +0.000 A 
ATOM     23  C   UNL     1       0.300   9.850  21.843  0.00  0.00    +0.000 A 
ATOM     24  C   UNL     1       1.031   9.264  20.805  0.00  0.00    +0.000 A 
BRANCH  20  25
ATOM     25  O   UNL     1      -0.241  11.289  17.989  0.00  0.00    +0.000 OA
ATOM     26  H   UNL     1       0.136  12.199  17.960  0.00  0.00    +0.000 HD
ENDBRANCH  20  25
BRANCH  22  27
ATOM     27  O   UNL     1      -1.282  11.415  22.611  0.00  0.00    +0.000 OA
ATOM     28  H   UNL     1      -2.202  11.105  22.553  0.00  0.00    +0.000 HD
ENDBRANCH  22  27
BRANCH  24  29
ATOM     29  O   UNL     1       1.828   8.195  21.110  0.00  0.00    +0.000 OA
ATOM     30  H   UNL     1       2.626   8.501  21.575  0.00  0.00    +0.000 HD
ENDBRANCH  24  29
ENDBRANCH  17  19
ENDBRANCH   2  17
TORSDOF 10
ENDMDL
MODEL 7
REMARK VINA RESULT:      -7.0      0.358      1.736
REMARK  Name = 
REMARK  10 active torsions:
REMARK  status: ('A' for Active; 'I' for Inactive)
REMARK    1  A    between atoms: C_2  and  C_3
REMARK    2  A    between atoms: C_2  and  C_16
REMARK    3  A    between atoms: C_4  and  C_5
REMARK    4  A    between atoms: C_5  and  C_7
REMARK    5  A    between atoms: C_8  and  O_9
REMARK    6  A    between atoms: C_11  and  O_12
REMARK    7  A    between atoms: C_14  and  O_15
REMARK    8  A    between atoms: C_17  and  O_18
REMARK    9  A    between atoms: C_20  and  O_21
REMARK   10  A    between atoms: C_23  and  O_24
REMARK                            x       y       z     vdW  Elec       q    Type
REMARK                         _______ _______ _______ _____ _____    ______ ____
ROOT
ATOM      1  C   UNL     1       3.526   4.531  20.127  0.00  0.00    +0.000 C 
ATOM      2  C   UNL     1       3.219   5.701  19.549  0.00  0.00    +0.000 C 
ENDROOT
BRANCH   1   4
ATOM      3  O   UNL     1       4.887   2.598  19.934  0.00  0.00    +0.000 OA
ATOM      4  C   UNL     1       4.648   3.748  19.559  0.00  0.00    +0.000 C 
BRANCH   4   5
ATOM      5  C   UNL     1       5.445   4.308  18.444  0.00  0.00    +0.000 A 
ATOM      6  C   UNL     1       5.054   4.005  17.127  0.00  0.00    +0.000 A 
ATOM      7  C   UNL     1       5.751   4.515  16.034  0.00  0.00    +0.000 A 
ATOM      8  C   UNL     1       6.871   5.304  16.256  0.00  0.00    +0.000 A 
ATOM      9  C   UNL     1       7.305   5.586  17.548  0.00  0.00    +0.000 A 
ATOM     10  C   UNL     1       6.596   5.083  18.641  0.00  0.00    +0.000 A 
BRANCH   6  11
ATOM     11  O   UNL     1       3.982   3.198  16.832  0.00  0.00    +0.000 OA
ATOM     12  H   UNL     1       3.575   3.532  16.000  0.00  0.00    +0.000 HD
ENDBRANCH   6  11
BRANCH   8  13
ATOM     13  O   UNL     1       7.594   5.820  15.220  0.00  0.00    +0.000 OA
ATOM     14  H   UNL     1       7.121   5.637  14.391  0.00  0.00    +0.000 HD
ENDBRANCH   8  13
BRANCH  10  15
ATOM     15  O   UNL     1       7.068   5.324  19.902  0.00  0.00    +0.000 OA
ATOM     16  H   UNL     1       6.693   6.158  20.235  0.00  0.00    +0.000 HD
ENDBRANCH  10  15
ENDBRANCH   4   5
ENDBRANCH   1   4
BRANCH   2  17
ATOM     17  C   UNL     1       2.103   6.526  20.071  0.00  0.00    +0.000 C 
ATOM     18  O   UNL     1       1.293   6.061  20.875  0.00  0.00    +0.000 OA
BRANCH  17  19
ATOM     19  C   UNL     1       1.880   7.902  19.540  0.00  0.00    +0.000 A 
ATOM     20  C   UNL     1       1.218   8.828  20.373  0.00  0.00    +0.000 A 
ATOM     21  C   UNL     1       0.922  10.121  19.937  0.00  0.00    +0.000 A 
ATOM     22  C   UNL     1       1.308  10.509  18.662  0.00  0.00    +0.000 A 
ATOM     23  C   UNL     1       1.982   9.630  17.824  0.00  0.00    +0.000 A 
ATOM     24  C   UNL     1       2.278   8.337  18.265  0.00  0.00    +0.000 A 
BRANCH  20  25
ATOM     25  O   UNL     1       0.818   8.536  21.654  0.00  0.00    +0.000 OA
ATOM     26  H   UNL     1       1.615   8.567  22.233  0.00  0.00    +0.000 HD
ENDBRANCH  20  25
BRANCH  22  27
ATOM     27  O   UNL     1       1.062  11.765  18.193  0.00  0.00    +0.000 OA
ATOM     28  H   UNL     1       0.122  11.831  17.954  0.00  0.00    +0.000 HD
ENDBRANCH  22  27
BRANCH  24  29
ATOM     29  O   UNL     1       3.004   7.529  17.434  0.00  0.00    +0.000 OA
ATOM     30  H   UNL     1       2.433   7.186  16.725  0.00  0.00    +0.000 HD
ENDBRANCH  24  29
ENDBRANCH  17  19
ENDBRANCH   2  17
TORSDOF 10
ENDMDL
MODEL 8
REMARK VINA RESULT:      -7.0      3.133      6.260
REMARK  Name = 
REMARK  10 active torsions:
REMARK  status: ('A' for Active; 'I' for Inactive)
REMARK    1  A    between atoms: C_2  and  C_3
REMARK    2  A    between atoms: C_2  and  C_16
REMARK    3  A    between atoms: C_4  and  C_5
REMARK    4  A    between atoms: C_5  and  C_7
REMARK    5  A    between atoms: C_8  and  O_9
REMARK    6  A    between atoms: C_11  and  O_12
REMARK    7  A    between atoms: C_14  and  O_15
REMARK    8  A    between atoms: C_17  and  O_18
REMARK    9  A    between atoms: C_20  and  O_21
REMARK   10  A    between atoms: C_23  and  O_24
REMARK                            x       y       z     vdW  Elec       q    Type
REMARK                         _______ _______ _______ _____ _____    ______ ____
ROOT
ATOM      1  C   UNL     1       3.388   5.001  17.315  0.00  0.00    +0.000 C 
ATOM      2  C   UNL     1       4.161   4.039  16.791  0.00  0.00    +0.000 C 
ENDROOT
BRANCH   1   4
ATOM      3  O   UNL     1       1.037   4.820  17.048  0.00  0.00    +0.000 OA
ATOM      4  C   UNL     1       2.025   4.631  17.762  0.00  0.00    +0.000 C 
BRANCH   4   5
ATOM      5  C   UNL     1       1.840   3.923  19.050  0.00  0.00    +0.000 A 
ATOM      6  C   UNL     1       2.089   4.629  20.240  0.00  0.00    +0.000 A 
ATOM      7  C   UNL     1       1.917   4.025  21.484  0.00  0.00    +0.000 A 
ATOM      8  C   UNL     1       1.528   2.693  21.541  0.00  0.00    +0.000 A 
ATOM      9  C   UNL     1       1.314   1.959  20.378  0.00  0.00    +0.000 A 
ATOM     10  C   UNL     1       1.477   2.572  19.133  0.00  0.00    +0.000 A 
BRANCH   6  11
ATOM     11  O   UNL     1       2.516   5.934  20.261  0.00  0.00    +0.000 OA
ATOM     12  H   UNL     1       2.458   6.254  21.191  0.00  0.00    +0.000 HD
ENDBRANCH   6  11
BRANCH   8  13
ATOM     13  O   UNL     1       1.355   2.053  22.733  0.00  0.00    +0.000 OA
ATOM     14  H   UNL     1       0.413   2.088  22.969  0.00  0.00    +0.000 HD
ENDBRANCH   8  13
BRANCH  10  15
ATOM     15  O   UNL     1       1.316   1.821  18.001  0.00  0.00    +0.000 OA
ATOM     16  H   UNL     1       2.101   1.260  17.870  0.00  0.00    +0.000 HD
ENDBRANCH  10  15
ENDBRANCH   4   5
ENDBRANCH   1   4
BRANCH   2  17
ATOM     17  C   UNL     1       5.532   4.351  16.323  0.00  0.00    +0.000 C 
ATOM     18  O   UNL     1       6.052   3.708  15.408  0.00  0.00    +0.000 OA
BRANCH  17  19
ATOM     19  C   UNL     1       6.349   5.378  17.032  0.00  0.00    +0.000 A 
ATOM     20  C   UNL     1       6.308   6.701  16.545  0.00  0.00    +0.000 A 
ATOM     21  C   UNL     1       7.080   7.714  17.118  0.00  0.00    +0.000 A 
ATOM     22  C   UNL     1       7.890   7.414  18.204  0.00  0.00    +0.000 A 
ATOM     23  C   UNL     1       7.937   6.127  18.723  0.00  0.00    +0.000 A 
ATOM     24  C   UNL     1       7.160   5.116  18.149  0.00  0.00    +0.000 A 
BRANCH  20  25
ATOM     25  O   UNL     1       5.521   7.090  15.489  0.00  0.00    +0.000 OA
ATOM     26  H   UNL     1       6.037   6.948  14.661  0.00  0.00    +0.000 HD
ENDBRANCH  20  25
BRANCH  22  27
ATOM     27  O   UNL     1       8.649   8.369  18.812  0.00  0.00    +0.000 OA
ATOM     28  H   UNL     1       8.901   9.036  18.152  0.00  0.00    +0.000 HD
ENDBRANCH  22  27
BRANCH  24  29
ATOM     29  O   UNL     1       7.183   3.882  18.736  0.00  0.00    +0.000 OA
ATOM     30  H   UNL     1       6.274   3.583  18.913  0.00  0.00    +0.000 HD
ENDBRANCH  24  29
ENDBRANCH  17  19
ENDBRANCH   2  17
TORSDOF 10
ENDMDL
MODEL 9
REMARK VINA RESULT:      -7.0      0.102      6.527
REMARK  Name = 
REMARK  10 active torsions:
REMARK  status: ('A' for Active; 'I' for Inactive)
REMARK    1  A    between atoms: C_2  and  C_3
REMARK    2  A    between atoms: C_2  and  C_16
REMARK    3  A    between atoms: C_4  and  C_5
REMARK    4  A    between atoms: C_5  and  C_7
REMARK    5  A    between atoms: C_8  and  O_9
REMARK    6  A    between atoms: C_11  and  O_12
REMARK    7  A    between atoms: C_14  and  O_15
REMARK    8  A    between atoms: C_17  and  O_18
REMARK    9  A    between atoms: C_20  and  O_21
REMARK   10  A    between atoms: C_23  and  O_24
REMARK                            x       y       z     vdW  Elec       q    Type
REMARK                         _______ _______ _______ _____ _____    ______ ____
ROOT
ATOM      1  C   UNL     1       3.363   5.815  19.786  0.00  0.00    +0.000 C 
ATOM      2  C   UNL     1       3.355   4.487  19.603  0.00  0.00    +0.000 C 
ENDROOT
BRANCH   1   4
ATOM      3  O   UNL     1       1.297   5.945  20.943  0.00  0.00    +0.000 OA
ATOM      4  C   UNL     1       2.090   6.474  20.161  0.00  0.00    +0.000 C 
BRANCH   4   5
ATOM      5  C   UNL     1       1.798   7.841  19.675  0.00  0.00    +0.000 A 
ATOM      6  C   UNL     1       2.214   8.191  18.377  0.00  0.00    +0.000 A 
ATOM      7  C   UNL     1       1.954   9.456  17.855  0.00  0.00    +0.000 A 
ATOM      8  C   UNL     1       1.305  10.394  18.647  0.00  0.00    +0.000 A 
ATOM      9  C   UNL     1       0.918  10.089  19.948  0.00  0.00    +0.000 A 
ATOM     10  C   UNL     1       1.171   8.815  20.464  0.00  0.00    +0.000 A 
BRANCH   6  11
ATOM     11  O   UNL     1       2.897   7.330  17.553  0.00  0.00    +0.000 OA
ATOM     12  H   UNL     1       2.249   6.946  16.919  0.00  0.00    +0.000 HD
ENDBRANCH   6  11
BRANCH   8  13
ATOM     13  O   UNL     1       1.035  11.649  18.185  0.00  0.00    +0.000 OA
ATOM     14  H   UNL     1       1.190  11.667  17.226  0.00  0.00    +0.000 HD
ENDBRANCH   8  13
BRANCH  10  15
ATOM     15  O   UNL     1       0.834   8.550  21.763  0.00  0.00    +0.000 OA
ATOM     16  H   UNL     1      -0.103   8.774  21.907  0.00  0.00    +0.000 HD
ENDBRANCH  10  15
ENDBRANCH   4   5
ENDBRANCH   1   4
BRANCH   2  17
ATOM     17  C   UNL     1       4.598   3.775  19.223  0.00  0.00    +0.000 C 
ATOM     18  O   UNL     1       5.083   2.910  19.955  0.00  0.00    +0.000 OA
BRANCH  17  19
ATOM     19  C   UNL     1       5.345   4.178  17.997  0.00  0.00    +0.000 A 
ATOM     20  C   UNL     1       6.627   4.744  18.163  0.00  0.00    +0.000 A 
ATOM     21  C   UNL     1       7.373   5.195  17.073  0.00  0.00    +0.000 A 
ATOM     22  C   UNL     1       6.849   5.065  15.795  0.00  0.00    +0.000 A 
ATOM     23  C   UNL     1       5.600   4.492  15.593  0.00  0.00    +0.000 A 
ATOM     24  C   UNL     1       4.857   4.039  16.687  0.00  0.00    +0.000 A 
BRANCH  20  25
ATOM     25  O   UNL     1       7.230   4.892  19.388  0.00  0.00    +0.000 OA
ATOM     26  H   UNL     1       8.023   5.463  19.266  0.00  0.00    +0.000 HD
ENDBRANCH  20  25
BRANCH  22  27
ATOM     27  O   UNL     1       7.544   5.471  14.695  0.00  0.00    +0.000 OA
ATOM     28  H   UNL     1       6.911   5.752  14.012  0.00  0.00    +0.000 HD
ENDBRANCH  22  27
BRANCH  24  29
ATOM     29  O   UNL     1       3.665   3.418  16.436  0.00  0.00    +0.000 OA
ATOM     30  H   UNL     1       3.359   3.641  15.539  0.00  0.00    +0.000 HD
ENDBRANCH  24  29
ENDBRANCH  17  19
ENDBRANCH   2  17
TORSDOF 10
ENDMDL
