MODEL 1
REMARK VINA RESULT:      -7.9      0.000      0.000
REMARK  Name = 
REMARK  8 active torsions:
REMARK  status: ('A' for Active; 'I' for Inactive)
REMARK    1  A    between atoms: C_1  and  O_2
REMARK    2  A    between atoms: O_2  and  C_3
REMARK    3  A    between atoms: C_8  and  N_9
REMARK    4  A    between atoms: N_9  and  C_10
REMARK    5  A    between atoms: C_10  and  N_12
REMARK    6  A    between atoms: C_13  and  C_15
REMARK    7  A    between atoms: C_18  and  C_19
REMARK    8  A    between atoms: C_19  and  N_20
REMARK                            x       y       z     vdW  Elec       q    Type
REMARK                         _______ _______ _______ _____ _____    ______ ____
ROOT
ATOM      1  N   UNL     1       3.986   4.823  19.487  0.00  0.00    +0.000 N 
ATOM      2  C   UNL     1       2.904   5.234  18.728  0.00  0.00    +0.000 C 
ATOM      3  O   UNL     1       2.304   4.493  17.952  0.00  0.00    +0.000 OA
ATOM      4  H   UNL     1       4.395   5.457  20.159  0.00  0.00    +0.000 HD
ENDROOT
BRANCH   2   5
ATOM      5  C   UNL     1       2.457   6.640  18.871  0.00  0.00    +0.000 A 
ATOM      6  C   UNL     1       1.977   7.021  20.131  0.00  0.00    +0.000 A 
ATOM      7  C   UNL     1       1.562   8.329  20.363  0.00  0.00    +0.000 A 
ATOM      8  C   UNL     1       1.622   9.281  19.336  0.00  0.00    +0.000 A 
ATOM      9  C   UNL     1       2.109   8.895  18.077  0.00  0.00    +0.000 A 
ATOM     10  C   UNL     1       2.518   7.580  17.837  0.00  0.00    +0.000 A 
BRANCH   8  11
ATOM     11  C   UNL     1       1.190  10.701  19.597  0.00  0.00    +0.000 C 
BRANCH  11  12
ATOM     12  N   UNL     1      -0.111  10.998  19.012  0.00  0.00    +0.000 N 
ATOM     13  C   UNL     1      -1.128  10.106  18.793  0.00  0.00    +0.000 A 
ATOM     14  C   UNL     1      -2.077  10.804  18.097  0.00  0.00    +0.000 A 
ATOM     15 BR   UNL     1      -3.710  10.190  17.438  0.00  0.00    +0.000 Br
ATOM     16  C   UNL     1      -1.569  12.100  17.946  0.00  0.00    +0.000 A 
ATOM     17  N   UNL     1      -0.359  12.228  18.502  0.00  0.00    +0.000 NA
ENDBRANCH  11  12
ENDBRANCH   8  11
ENDBRANCH   2   5
BRANCH   1  18
ATOM     18  C   UNL     1       4.751   3.691  19.274  0.00  0.00    +0.000 C 
ATOM     19  S   UNL     1       4.159   2.250  19.891  0.00  0.00    +0.000 S 
BRANCH  18  20
ATOM     20  N   UNL     1       5.906   3.891  18.557  0.00  0.00    +0.000 N 
ATOM     21  H   UNL     1       6.372   3.040  18.241  0.00  0.00    +0.000 HD
BRANCH  20  27
ATOM     22  C   UNL     1       6.088   5.806  17.028  0.00  0.00    +0.000 A 
ATOM     23  C   UNL     1       6.664   7.054  16.747  0.00  0.00    +0.000 A 
ATOM     24  C   UNL     1       7.643   7.604  17.574  0.00  0.00    +0.000 A 
ATOM     25  C   UNL     1       8.047   6.917  18.711  0.00  0.00    +0.000 A 
ATOM     26  C   UNL     1       7.495   5.669  18.995  0.00  0.00    +0.000 A 
ATOM     27  C   UNL     1       6.530   5.091  18.154  0.00  0.00    +0.000 A 
BRANCH  22  29
ATOM     28  C   UNL     1       5.479   4.862  14.911  0.00  0.00    +0.000 C 
ATOM     29  O   UNL     1       5.101   5.461  16.144  0.00  0.00    +0.000 OA
ENDBRANCH  22  29
ENDBRANCH  20  27
ENDBRANCH  18  20
ENDBRANCH   1  18
TORSDOF 7
ENDMDL
MODEL 2
REMARK VINA RESULT:      -7.9      2.419      3.961
REMARK  Name = 
REMARK  8 active torsions:
REMARK  status: ('A' for Active; 'I' for Inactive)
REMARK    1  A    between atoms: C_1  and  O_2
REMARK    2  A    between atoms: O_2  and  C_3
REMARK    3  A    between atoms: C_8  and  N_9
REMARK    4  A    between atoms: N_9  and  C_10
REMARK    5  A    between atoms: C_10  and  N_12
REMARK    6  A    between atoms: C_13  and  C_15
REMARK    7  A    between atoms: C_18  and  C_19
REMARK    8  A    between atoms: C_19  and  N_20
REMARK                            x       y       z     vdW  Elec       q    Type
REMARK                         _______ _______ _______ _____ _____    ______ ____
ROOT
ATOM      1  N   UNL     1       3.596   5.292  17.294  0.00  0.00    +0.000 N 
ATOM      2  C   UNL     1       3.757   6.031  18.453  0.00  0.00    +0.000 C 
ATOM      3  O   UNL     1       4.587   5.759  19.318  0.00  0.00    +0.000 OA
ATOM      4  H   UNL     1       2.946   5.605  16.587  0.00  0.00    +0.000 HD
ENDROOT
BRANCH   2   5
ATOM      5  C   UNL     1       2.879   7.210  18.645  0.00  0.00    +0.000 A 
ATOM      6  C   UNL     1       2.180   7.281  19.857  0.00  0.00    +0.000 A 
ATOM      7  C   UNL     1       1.354   8.367  20.134  0.00  0.00    +0.000 A 
ATOM      8  C   UNL     1       1.216   9.404  19.201  0.00  0.00    +0.000 A 
ATOM      9  C   UNL     1       1.925   9.330  17.991  0.00  0.00    +0.000 A 
ATOM     10  C   UNL     1       2.748   8.238  17.706  0.00  0.00    +0.000 A 
BRANCH   8  11
ATOM     11  C   UNL     1       0.337  10.588  19.514  0.00  0.00    +0.000 C 
BRANCH  11  12
ATOM     12  N   UNL     1      -0.846  10.635  18.664  0.00  0.00    +0.000 N 
ATOM     13  C   UNL     1      -1.054   9.914  17.518  0.00  0.00    +0.000 A 
ATOM     14  C   UNL     1      -2.222  10.397  16.994  0.00  0.00    +0.000 A 
ATOM     15 BR   UNL     1      -3.077   9.891  15.415  0.00  0.00    +0.000 Br
ATOM     16  C   UNL     1      -2.660  11.389  17.879  0.00  0.00    +0.000 A 
ATOM     17  N   UNL     1      -1.818  11.545  18.907  0.00  0.00    +0.000 NA
ENDBRANCH  11  12
ENDBRANCH   8  11
ENDBRANCH   2   5
BRANCH   1  18
ATOM     18  C   UNL     1       4.063   4.009  17.071  0.00  0.00    +0.000 C 
ATOM     19  S   UNL     1       5.487   3.862  16.201  0.00  0.00    +0.000 S 
BRANCH  18  20
ATOM     20  N   UNL     1       3.300   3.005  17.616  0.00  0.00    +0.000 N 
ATOM     21  H   UNL     1       3.178   2.184  17.024  0.00  0.00    +0.000 HD
BRANCH  20  27
ATOM     22  C   UNL     1       3.437   2.631  20.042  0.00  0.00    +0.000 A 
ATOM     23  C   UNL     1       2.799   2.674  21.291  0.00  0.00    +0.000 A 
ATOM     24  C   UNL     1       1.453   3.018  21.406  0.00  0.00    +0.000 A 
ATOM     25  C   UNL     1       0.726   3.341  20.268  0.00  0.00    +0.000 A 
ATOM     26  C   UNL     1       1.341   3.286  19.018  0.00  0.00    +0.000 A 
ATOM     27  C   UNL     1       2.689   2.914  18.886  0.00  0.00    +0.000 A 
BRANCH  22  29
ATOM     28  C   UNL     1       5.155   1.092  20.696  0.00  0.00    +0.000 C 
ATOM     29  O   UNL     1       4.772   2.340  20.132  0.00  0.00    +0.000 OA
ENDBRANCH  22  29
ENDBRANCH  20  27
ENDBRANCH  18  20
ENDBRANCH   1  18
TORSDOF 7
ENDMDL
MODEL 3
REMARK VINA RESULT:      -7.8      2.956      4.620
REMARK  Name = 
REMARK  8 active torsions:
REMARK  status: ('A' for Active; 'I' for Inactive)
REMARK    1  A    between atoms: C_1  and  O_2
REMARK    2  A    between atoms: O_2  and  C_3
REMARK    3  A    between atoms: C_8  and  N_9
REMARK    4  A    between atoms: N_9  and  C_10
REMARK    5  A    between atoms: C_10  and  N_12
REMARK    6  A    between atoms: C_13  and  C_15
REMARK    7  A    between atoms: C_18  and  C_19
REMARK    8  A    between atoms: C_19  and  N_20
REMARK                            x       y       z     vdW  Elec       q    Type
REMARK                         _______ _______ _______ _____ _____    ______ ____
ROOT
ATOM      1  N   UNL     1       3.456   5.346  17.430  0.00  0.00    +0.000 N 
ATOM      2  C   UNL     1       3.704   6.064  18.587  0.00  0.00    +0.000 C 
ATOM      3  O   UNL     1       4.639   5.818  19.347  0.00  0.00    +0.000 OA
ATOM      4  H   UNL     1       2.716   5.639  16.809  0.00  0.00    +0.000 HD
ENDROOT
BRANCH   2   5
ATOM      5  C   UNL     1       2.790   7.185  18.911  0.00  0.00    +0.000 A 
ATOM      6  C   UNL     1       2.565   8.124  17.897  0.00  0.00    +0.000 A 
ATOM      7  C   UNL     1       1.699   9.195  18.104  0.00  0.00    +0.000 A 
ATOM      8  C   UNL     1       1.041   9.341  19.333  0.00  0.00    +0.000 A 
ATOM      9  C   UNL     1       1.266   8.394  20.344  0.00  0.00    +0.000 A 
ATOM     10  C   UNL     1       2.141   7.323  20.143  0.00  0.00    +0.000 A 
BRANCH   8  11
ATOM     11  C   UNL     1       0.089  10.490  19.546  0.00  0.00    +0.000 C 
BRANCH  11  12
ATOM     12  N   UNL     1       0.786  11.760  19.713  0.00  0.00    +0.000 N 
ATOM     13  C   UNL     1       0.983  12.712  18.748  0.00  0.00    +0.000 A 
ATOM     14  C   UNL     1       1.805  13.643  19.324  0.00  0.00    +0.000 A 
ATOM     15 BR   UNL     1       2.508  15.192  18.559  0.00  0.00    +0.000 Br
ATOM     16  C   UNL     1       2.047  13.191  20.626  0.00  0.00    +0.000 A 
ATOM     17  N   UNL     1       1.428  12.031  20.873  0.00  0.00    +0.000 NA
ENDBRANCH  11  12
ENDBRANCH   8  11
ENDBRANCH   2   5
BRANCH   1  18
ATOM     18  C   UNL     1       3.965   4.098  17.118  0.00  0.00    +0.000 C 
ATOM     19  S   UNL     1       5.354   4.060  16.181  0.00  0.00    +0.000 S 
BRANCH  18  20
ATOM     20  N   UNL     1       3.268   3.035  17.638  0.00  0.00    +0.000 N 
ATOM     21  H   UNL     1       3.211   2.216  17.032  0.00  0.00    +0.000 HD
BRANCH  20  27
ATOM     22  C   UNL     1       3.403   2.620  20.057  0.00  0.00    +0.000 A 
ATOM     23  C   UNL     1       2.751   2.600  21.300  0.00  0.00    +0.000 A 
ATOM     24  C   UNL     1       1.385   2.859  21.406  0.00  0.00    +0.000 A 
ATOM     25  C   UNL     1       0.652   3.160  20.266  0.00  0.00    +0.000 A 
ATOM     26  C   UNL     1       1.282   3.168  19.023  0.00  0.00    +0.000 A 
ATOM     27  C   UNL     1       2.651   2.881  18.899  0.00  0.00    +0.000 A 
BRANCH  22  29
ATOM     28  C   UNL     1       5.206   1.278  20.889  0.00  0.00    +0.000 C 
ATOM     29  O   UNL     1       4.752   2.409  20.157  0.00  0.00    +0.000 OA
ENDBRANCH  22  29
ENDBRANCH  20  27
ENDBRANCH  18  20
ENDBRANCH   1  18
TORSDOF 7
ENDMDL
MODEL 4
REMARK VINA RESULT:      -7.8      0.936      1.930
REMARK  Name = 
REMARK  8 active torsions:
REMARK  status: ('A' for Active; 'I' for Inactive)
REMARK    1  A    between atoms: C_1  and  O_2
REMARK    2  A    between atoms: O_2  and  C_3
REMARK    3  A    between atoms: C_8  and  N_9
REMARK    4  A    between atoms: N_9  and  C_10
REMARK    5  A    between atoms: C_10  and  N_12
REMARK    6  A    between atoms: C_13  and  C_15
REMARK    7  A    between atoms: C_18  and  C_19
REMARK    8  A    between atoms: C_19  and  N_20
REMARK                            x       y       z     vdW  Elec       q    Type
REMARK                         _______ _______ _______ _____ _____    ______ ____
ROOT
ATOM      1  N   UNL     1       3.908   4.898  19.517  0.00  0.00    +0.000 N 
ATOM      2  C   UNL     1       2.915   5.376  18.679  0.00  0.00    +0.000 C 
ATOM      3  O   UNL     1       2.447   4.726  17.747  0.00  0.00    +0.000 OA
ATOM      4  H   UNL     1       4.202   5.450  20.309  0.00  0.00    +0.000 HD
ENDROOT
BRANCH   2   5
ATOM      5  C   UNL     1       2.397   6.742  18.935  0.00  0.00    +0.000 A 
ATOM      6  C   UNL     1       1.936   7.006  20.231  0.00  0.00    +0.000 A 
ATOM      7  C   UNL     1       1.459   8.269  20.568  0.00  0.00    +0.000 A 
ATOM      8  C   UNL     1       1.436   9.293  19.611  0.00  0.00    +0.000 A 
ATOM      9  C   UNL     1       1.905   9.024  18.315  0.00  0.00    +0.000 A 
ATOM     10  C   UNL     1       2.377   7.755  17.971  0.00  0.00    +0.000 A 
BRANCH   8  11
ATOM     11  C   UNL     1       0.938  10.665  19.985  0.00  0.00    +0.000 C 
BRANCH  11  12
ATOM     12  N   UNL     1      -0.247  11.046  19.227  0.00  0.00    +0.000 N 
ATOM     13  C   UNL     1      -1.325  10.249  18.946  0.00  0.00    +0.000 A 
ATOM     14  C   UNL     1      -2.105  10.983  18.094  0.00  0.00    +0.000 A 
ATOM     15 BR   UNL     1      -3.710  10.489  17.283  0.00  0.00    +0.000 Br
ATOM     16  C   UNL     1      -1.443  12.204  17.921  0.00  0.00    +0.000 A 
ATOM     17  N   UNL     1      -0.297  12.251  18.610  0.00  0.00    +0.000 NA
ENDBRANCH  11  12
ENDBRANCH   8  11
ENDBRANCH   2   5
BRANCH   1  18
ATOM     18  C   UNL     1       4.737   3.820  19.267  0.00  0.00    +0.000 C 
ATOM     19  S   UNL     1       4.218   2.323  19.812  0.00  0.00    +0.000 S 
BRANCH  18  20
ATOM     20  N   UNL     1       5.889   4.115  18.578  0.00  0.00    +0.000 N 
ATOM     21  H   UNL     1       6.748   4.060  19.127  0.00  0.00    +0.000 HD
BRANCH  20  27
ATOM     22  C   UNL     1       7.012   5.414  16.820  0.00  0.00    +0.000 A 
ATOM     23  C   UNL     1       7.243   5.613  15.451  0.00  0.00    +0.000 A 
ATOM     24  C   UNL     1       6.584   4.852  14.486  0.00  0.00    +0.000 A 
ATOM     25  C   UNL     1       5.693   3.864  14.882  0.00  0.00    +0.000 A 
ATOM     26  C   UNL     1       5.440   3.666  16.238  0.00  0.00    +0.000 A 
ATOM     27  C   UNL     1       6.076   4.445  17.218  0.00  0.00    +0.000 A 
BRANCH  22  29
ATOM     28  C   UNL     1       7.615   7.615  17.555  0.00  0.00    +0.000 C 
ATOM     29  O   UNL     1       7.796   6.206  17.616  0.00  0.00    +0.000 OA
ENDBRANCH  22  29
ENDBRANCH  20  27
ENDBRANCH  18  20
ENDBRANCH   1  18
TORSDOF 7
ENDMDL
MODEL 5
REMARK VINA RESULT:      -7.8      1.658      2.636
REMARK  Name = 
REMARK  8 active torsions:
REMARK  status: ('A' for Active; 'I' for Inactive)
REMARK    1  A    between atoms: C_1  and  O_2
REMARK    2  A    between atoms: O_2  and  C_3
REMARK    3  A    between atoms: C_8  and  N_9
REMARK    4  A    between atoms: N_9  and  C_10
REMARK    5  A    between atoms: C_10  and  N_12
REMARK    6  A    between atoms: C_13  and  C_15
REMARK    7  A    between atoms: C_18  and  C_19
REMARK    8  A    between atoms: C_19  and  N_20
REMARK                            x       y       z     vdW  Elec       q    Type
REMARK                         _______ _______ _______ _____ _____    ______ ____
ROOT
ATOM      1  N   UNL     1       2.951   5.115  17.995  0.00  0.00    +0.000 N 
ATOM      2  C   UNL     1       3.036   5.873  19.150  0.00  0.00    +0.000 C 
ATOM      3  O   UNL     1       3.619   5.496  20.165  0.00  0.00    +0.000 OA
ATOM      4  H   UNL     1       2.521   5.506  17.171  0.00  0.00    +0.000 HD
ENDROOT
BRANCH   2   5
ATOM      5  C   UNL     1       2.390   7.207  19.146  0.00  0.00    +0.000 A 
ATOM      6  C   UNL     1       2.488   7.949  17.962  0.00  0.00    +0.000 A 
ATOM      7  C   UNL     1       1.886   9.201  17.860  0.00  0.00    +0.000 A 
ATOM      8  C   UNL     1       1.173   9.731  18.944  0.00  0.00    +0.000 A 
ATOM      9  C   UNL     1       1.073   8.980  20.126  0.00  0.00    +0.000 A 
ATOM     10  C   UNL     1       1.683   7.727  20.235  0.00  0.00    +0.000 A 
BRANCH   8  11
ATOM     11  C   UNL     1       0.507  11.077  18.822  0.00  0.00    +0.000 C 
BRANCH  11  12
ATOM     12  N   UNL     1      -0.868  10.970  18.350  0.00  0.00    +0.000 N 
ATOM     13  C   UNL     1      -1.910  11.794  18.686  0.00  0.00    +0.000 A 
ATOM     14  C   UNL     1      -3.020  11.219  18.127  0.00  0.00    +0.000 A 
ATOM     15 BR   UNL     1      -4.791  11.795  18.223  0.00  0.00    +0.000 Br
ATOM     16  C   UNL     1      -2.567  10.071  17.466  0.00  0.00    +0.000 A 
ATOM     17  N   UNL     1      -1.246   9.907  17.601  0.00  0.00    +0.000 NA
ENDBRANCH  11  12
ENDBRANCH   8  11
ENDBRANCH   2   5
BRANCH   1  18
ATOM     18  C   UNL     1       3.188   3.756  17.892  0.00  0.00    +0.000 C 
ATOM     19  S   UNL     1       1.890   2.737  18.183  0.00  0.00    +0.000 S 
BRANCH  18  20
ATOM     20  N   UNL     1       4.470   3.410  17.540  0.00  0.00    +0.000 N 
ATOM     21  H   UNL     1       4.829   2.566  17.987  0.00  0.00    +0.000 HD
BRANCH  20  27
ATOM     22  C   UNL     1       6.630   4.464  17.024  0.00  0.00    +0.000 A 
ATOM     23  C   UNL     1       7.516   4.947  16.049  0.00  0.00    +0.000 A 
ATOM     24  C   UNL     1       7.168   4.966  14.699  0.00  0.00    +0.000 A 
ATOM     25  C   UNL     1       5.929   4.484  14.302  0.00  0.00    +0.000 A 
ATOM     26  C   UNL     1       5.031   4.016  15.261  0.00  0.00    +0.000 A 
ATOM     27  C   UNL     1       5.358   4.018  16.626  0.00  0.00    +0.000 A 
BRANCH  22  29
ATOM     28  C   UNL     1       6.890   5.560  19.140  0.00  0.00    +0.000 C 
ATOM     29  O   UNL     1       7.169   4.461  18.283  0.00  0.00    +0.000 OA
ENDBRANCH  22  29
ENDBRANCH  20  27
ENDBRANCH  18  20
ENDBRANCH   1  18
TORSDOF 7
ENDMDL
MODEL 6
REMARK VINA RESULT:      -7.6      2.666      3.475
REMARK  Name = 
REMARK  8 active torsions:
REMARK  status: ('A' for Active; 'I' for Inactive)
REMARK    1  A    between atoms: C_1  and  O_2
REMARK    2  A    between atoms: O_2  and  C_3
REMARK    3  A    between atoms: C_8  and  N_9
REMARK    4  A    between atoms: N_9  and  C_10
REMARK    5  A    between atoms: C_10  and  N_12
REMARK    6  A    between atoms: C_13  and  C_15
REMARK    7  A    between atoms: C_18  and  C_19
REMARK    8  A    between atoms: C_19  and  N_20
REMARK                            x       y       z     vdW  Elec       q    Type
REMARK                         _______ _______ _______ _____ _____    ______ ____
ROOT
ATOM      1  N   UNL     1       2.585   5.158  17.929  0.00  0.00    +0.000 N 
ATOM      2  C   UNL     1       2.869   6.030  18.967  0.00  0.00    +0.000 C 
ATOM      3  O   UNL     1       3.608   5.744  19.906  0.00  0.00    +0.000 OA
ATOM      4  H   UNL     1       2.028   5.474  17.149  0.00  0.00    +0.000 HD
ENDROOT
BRANCH   2   5
ATOM      5  C   UNL     1       2.246   7.374  18.926  0.00  0.00    +0.000 A 
ATOM      6  C   UNL     1       1.743   7.870  20.135  0.00  0.00    +0.000 A 
ATOM      7  C   UNL     1       1.165   9.135  20.196  0.00  0.00    +0.000 A 
ATOM      8  C   UNL     1       1.084   9.929  19.043  0.00  0.00    +0.000 A 
ATOM      9  C   UNL     1       1.596   9.430  17.835  0.00  0.00    +0.000 A 
ATOM     10  C   UNL     1       2.169   8.156  17.769  0.00  0.00    +0.000 A 
BRANCH   8  11
ATOM     11  C   UNL     1       0.477  11.307  19.117  0.00  0.00    +0.000 C 
BRANCH  11  12
ATOM     12  N   UNL     1       1.482  12.341  19.328  0.00  0.00    +0.000 N 
ATOM     13  C   UNL     1       1.887  12.848  20.534  0.00  0.00    +0.000 A 
ATOM     14  C   UNL     1       2.724  13.887  20.227  0.00  0.00    +0.000 A 
ATOM     15 BR   UNL     1       3.604  15.046  21.393  0.00  0.00    +0.000 Br
ATOM     16  C   UNL     1       2.782  13.934  18.829  0.00  0.00    +0.000 A 
ATOM     17  N   UNL     1       2.018  12.990  18.267  0.00  0.00    +0.000 NA
ENDBRANCH  11  12
ENDBRANCH   8  11
ENDBRANCH   2   5
BRANCH   1  18
ATOM     18  C   UNL     1       2.786   3.790  17.935  0.00  0.00    +0.000 C 
ATOM     19  S   UNL     1       1.454   2.830  18.269  0.00  0.00    +0.000 S 
BRANCH  18  20
ATOM     20  N   UNL     1       4.066   3.385  17.643  0.00  0.00    +0.000 N 
ATOM     21  H   UNL     1       4.327   2.471  18.015  0.00  0.00    +0.000 HD
BRANCH  20  27
ATOM     22  C   UNL     1       6.243   4.513  17.464  0.00  0.00    +0.000 A 
ATOM     23  C   UNL     1       7.256   5.021  16.637  0.00  0.00    +0.000 A 
ATOM     24  C   UNL     1       7.129   5.017  15.248  0.00  0.00    +0.000 A 
ATOM     25  C   UNL     1       5.986   4.487  14.665  0.00  0.00    +0.000 A 
ATOM     26  C   UNL     1       4.963   3.994  15.474  0.00  0.00    +0.000 A 
ATOM     27  C   UNL     1       5.067   4.018  16.874  0.00  0.00    +0.000 A 
BRANCH  22  29
ATOM     28  C   UNL     1       7.301   5.656  19.286  0.00  0.00    +0.000 C 
ATOM     29  O   UNL     1       6.573   4.540  18.793  0.00  0.00    +0.000 OA
ENDBRANCH  22  29
ENDBRANCH  20  27
ENDBRANCH  18  20
ENDBRANCH   1  18
TORSDOF 7
ENDMDL
MODEL 7
REMARK VINA RESULT:      -7.6      2.495      2.893
REMARK  Name = 
REMARK  8 active torsions:
REMARK  status: ('A' for Active; 'I' for Inactive)
REMARK    1  A    between atoms: C_1  and  O_2
REMARK    2  A    between atoms: O_2  and  C_3
REMARK    3  A    between atoms: C_8  and  N_9
REMARK    4  A    between atoms: N_9  and  C_10
REMARK    5  A    between atoms: C_10  and  N_12
REMARK    6  A    between atoms: C_13  and  C_15
REMARK    7  A    between atoms: C_18  and  C_19
REMARK    8  A    between atoms: C_19  and  N_20
REMARK                            x       y       z     vdW  Elec       q    Type
REMARK                         _______ _______ _______ _____ _____    ______ ____
ROOT
ATOM      1  N   UNL     1       3.184   5.641  17.881  0.00  0.00    +0.000 N 
ATOM      2  C   UNL     1       2.829   6.165  19.112  0.00  0.00    +0.000 C 
ATOM      3  O   UNL     1       3.039   5.589  20.178  0.00  0.00    +0.000 OA
ATOM      4  H   UNL     1       3.050   6.192  17.046  0.00  0.00    +0.000 HD
ENDROOT
BRANCH   2   5
ATOM      5  C   UNL     1       2.166   7.491  19.131  0.00  0.00    +0.000 A 
ATOM      6  C   UNL     1       1.641   7.913  20.359  0.00  0.00    +0.000 A 
ATOM      7  C   UNL     1       1.026   9.157  20.475  0.00  0.00    +0.000 A 
ATOM      8  C   UNL     1       0.928  10.002  19.361  0.00  0.00    +0.000 A 
ATOM      9  C   UNL     1       1.461   9.575  18.134  0.00  0.00    +0.000 A 
ATOM     10  C   UNL     1       2.072   8.324  18.012  0.00  0.00    +0.000 A 
BRANCH   8  11
ATOM     11  C   UNL     1       0.279  11.355  19.496  0.00  0.00    +0.000 C 
BRANCH  11  12
ATOM     12  N   UNL     1       1.260  12.425  19.630  0.00  0.00    +0.000 N 
ATOM     13  C   UNL     1       1.833  13.137  18.609  0.00  0.00    +0.000 A 
ATOM     14  C   UNL     1       2.789  13.916  19.204  0.00  0.00    +0.000 A 
ATOM     15 BR   UNL     1       3.975  15.106  18.396  0.00  0.00    +0.000 Br
ATOM     16  C   UNL     1       2.722  13.629  20.573  0.00  0.00    +0.000 A 
ATOM     17  N   UNL     1       1.789  12.710  20.844  0.00  0.00    +0.000 NA
ENDBRANCH  11  12
ENDBRANCH   8  11
ENDBRANCH   2   5
BRANCH   1  18
ATOM     18  C   UNL     1       3.501   4.321  17.616  0.00  0.00    +0.000 C 
ATOM     19  S   UNL     1       2.221   3.250  17.468  0.00  0.00    +0.000 S 
BRANCH  18  20
ATOM     20  N   UNL     1       4.843   4.056  17.488  0.00  0.00    +0.000 N 
ATOM     21  H   UNL     1       5.068   3.144  17.090  0.00  0.00    +0.000 HD
BRANCH  20  27
ATOM     22  C   UNL     1       6.514   5.733  16.826  0.00  0.00    +0.000 A 
ATOM     23  C   UNL     1       7.547   6.601  17.212  0.00  0.00    +0.000 A 
ATOM     24  C   UNL     1       8.012   6.636  18.526  0.00  0.00    +0.000 A 
ATOM     25  C   UNL     1       7.436   5.809  19.480  0.00  0.00    +0.000 A 
ATOM     26  C   UNL     1       6.421   4.929  19.109  0.00  0.00    +0.000 A 
ATOM     27  C   UNL     1       5.962   4.865  17.783  0.00  0.00    +0.000 A 
BRANCH  22  29
ATOM     28  C   UNL     1       6.647   4.960  14.561  0.00  0.00    +0.000 C 
ATOM     29  O   UNL     1       6.147   5.887  15.516  0.00  0.00    +0.000 OA
ENDBRANCH  22  29
ENDBRANCH  20  27
ENDBRANCH  18  20
ENDBRANCH   1  18
TORSDOF 7
ENDMDL
MODEL 8
REMARK VINA RESULT:      -7.6      4.226      8.634
REMARK  Name = 
REMARK  8 active torsions:
REMARK  status: ('A' for Active; 'I' for Inactive)
REMARK    1  A    between atoms: C_1  and  O_2
REMARK    2  A    between atoms: O_2  and  C_3
REMARK    3  A    between atoms: C_8  and  N_9
REMARK    4  A    between atoms: N_9  and  C_10
REMARK    5  A    between atoms: C_10  and  N_12
REMARK    6  A    between atoms: C_13  and  C_15
REMARK    7  A    between atoms: C_18  and  C_19
REMARK    8  A    between atoms: C_19  and  N_20
REMARK                            x       y       z     vdW  Elec       q    Type
REMARK                         _______ _______ _______ _____ _____    ______ ____
ROOT
ATOM      1  N   UNL     1       1.814   8.455  18.727  0.00  0.00    +0.000 N 
ATOM      2  C   UNL     1       2.265   7.351  19.430  0.00  0.00    +0.000 C 
ATOM      3  O   UNL     1       1.758   6.966  20.482  0.00  0.00    +0.000 OA
ATOM      4  H   UNL     1       2.226   8.680  17.833  0.00  0.00    +0.000 HD
ENDROOT
BRANCH   2   5
ATOM      5  C   UNL     1       3.417   6.603  18.872  0.00  0.00    +0.000 A 
ATOM      6  C   UNL     1       4.011   7.133  17.719  0.00  0.00    +0.000 A 
ATOM      7  C   UNL     1       5.115   6.511  17.143  0.00  0.00    +0.000 A 
ATOM      8  C   UNL     1       5.647   5.347  17.715  0.00  0.00    +0.000 A 
ATOM      9  C   UNL     1       5.052   4.824  18.874  0.00  0.00    +0.000 A 
ATOM     10  C   UNL     1       3.938   5.441  19.450  0.00  0.00    +0.000 A 
BRANCH   8  11
ATOM     11  C   UNL     1       6.856   4.689  17.100  0.00  0.00    +0.000 C 
BRANCH  11  12
ATOM     12  N   UNL     1       6.764   4.617  15.647  0.00  0.00    +0.000 N 
ATOM     13  C   UNL     1       5.962   3.774  14.923  0.00  0.00    +0.000 A 
ATOM     14  C   UNL     1       6.325   3.963  13.617  0.00  0.00    +0.000 A 
ATOM     15 BR   UNL     1       5.663   3.106  12.099  0.00  0.00    +0.000 Br
ATOM     16  C   UNL     1       7.334   4.934  13.634  0.00  0.00    +0.000 A 
ATOM     17  N   UNL     1       7.613   5.339  14.878  0.00  0.00    +0.000 NA
ENDBRANCH  11  12
ENDBRANCH   8  11
ENDBRANCH   2   5
BRANCH   1  18
ATOM     18  C   UNL     1       0.996   9.456  19.216  0.00  0.00    +0.000 C 
ATOM     19  S   UNL     1      -0.184  10.043  18.181  0.00  0.00    +0.000 S 
BRANCH  18  20
ATOM     20  N   UNL     1       1.246   9.835  20.513  0.00  0.00    +0.000 N 
ATOM     21  H   UNL     1       2.124   9.492  20.903  0.00  0.00    +0.000 HD
BRANCH  20  27
ATOM     22  C   UNL     1       0.435  12.051  21.201  0.00  0.00    +0.000 A 
ATOM     23  C   UNL     1      -0.423  12.804  22.016  0.00  0.00    +0.000 A 
ATOM     24  C   UNL     1      -1.231  12.196  22.976  0.00  0.00    +0.000 A 
ATOM     25  C   UNL     1      -1.204  10.816  23.122  0.00  0.00    +0.000 A 
ATOM     26  C   UNL     1      -0.344  10.055  22.331  0.00  0.00    +0.000 A 
ATOM     27  C   UNL     1       0.495  10.658  21.380  0.00  0.00    +0.000 A 
BRANCH  22  29
ATOM     28  C   UNL     1       2.314  13.439  20.663  0.00  0.00    +0.000 C 
ATOM     29  O   UNL     1       1.099  12.812  20.276  0.00  0.00    +0.000 OA
ENDBRANCH  22  29
ENDBRANCH  20  27
ENDBRANCH  18  20
ENDBRANCH   1  18
TORSDOF 7
ENDMDL
MODEL 9
REMARK VINA RESULT:      -7.5      1.418      1.621
REMARK  Name = 
REMARK  8 active torsions:
REMARK  status: ('A' for Active; 'I' for Inactive)
REMARK    1  A    between atoms: C_1  and  O_2
REMARK    2  A    between atoms: O_2  and  C_3
REMARK    3  A    between atoms: C_8  and  N_9
REMARK    4  A    between atoms: N_9  and  C_10
REMARK    5  A    between atoms: C_10  and  N_12
REMARK    6  A    between atoms: C_13  and  C_15
REMARK    7  A    between atoms: C_18  and  C_19
REMARK    8  A    between atoms: C_19  and  N_20
REMARK                            x       y       z     vdW  Elec       q    Type
REMARK                         _______ _______ _______ _____ _____    ______ ____
ROOT
ATOM      1  N   UNL     1       3.173   5.557  17.865  0.00  0.00    +0.000 N 
ATOM      2  C   UNL     1       2.902   6.193  19.065  0.00  0.00    +0.000 C 
ATOM      3  O   UNL     1       3.233   5.742  20.159  0.00  0.00    +0.000 OA
ATOM      4  H   UNL     1       2.939   6.010  16.995  0.00  0.00    +0.000 HD
ENDROOT
BRANCH   2   5
ATOM      5  C   UNL     1       2.179   7.486  19.009  0.00  0.00    +0.000 A 
ATOM      6  C   UNL     1       1.565   7.913  20.194  0.00  0.00    +0.000 A 
ATOM      7  C   UNL     1       0.888   9.129  20.241  0.00  0.00    +0.000 A 
ATOM      8  C   UNL     1       0.816   9.941  19.100  0.00  0.00    +0.000 A 
ATOM      9  C   UNL     1       1.439   9.510  17.918  0.00  0.00    +0.000 A 
ATOM     10  C   UNL     1       2.112   8.287  17.864  0.00  0.00    +0.000 A 
BRANCH   8  11
ATOM     11  C   UNL     1       0.100  11.265  19.161  0.00  0.00    +0.000 C 
BRANCH  11  12
ATOM     12  N   UNL     1      -1.259  11.181  18.639  0.00  0.00    +0.000 N 
ATOM     13  C   UNL     1      -2.330  11.940  19.032  0.00  0.00    +0.000 A 
ATOM     14  C   UNL     1      -3.409  11.407  18.380  0.00  0.00    +0.000 A 
ATOM     15 BR   UNL     1      -5.195  11.929  18.485  0.00  0.00    +0.000 Br
ATOM     16  C   UNL     1      -2.909  10.348  17.611  0.00  0.00    +0.000 A 
ATOM     17  N   UNL     1      -1.589  10.200  17.767  0.00  0.00    +0.000 NA
ENDBRANCH  11  12
ENDBRANCH   8  11
ENDBRANCH   2   5
BRANCH   1  18
ATOM     18  C   UNL     1       3.530   4.230  17.708  0.00  0.00    +0.000 C 
ATOM     19  S   UNL     1       2.290   3.103  17.743  0.00  0.00    +0.000 S 
BRANCH  18  20
ATOM     20  N   UNL     1       4.872   4.003  17.521  0.00  0.00    +0.000 N 
ATOM     21  H   UNL     1       5.104   3.105  17.095  0.00  0.00    +0.000 HD
BRANCH  20  27
ATOM     22  C   UNL     1       6.487   5.719  16.822  0.00  0.00    +0.000 A 
ATOM     23  C   UNL     1       7.511   6.607  17.184  0.00  0.00    +0.000 A 
ATOM     24  C   UNL     1       8.012   6.647  18.485  0.00  0.00    +0.000 A 
ATOM     25  C   UNL     1       7.480   5.803  19.451  0.00  0.00    +0.000 A 
ATOM     26  C   UNL     1       6.474   4.903  19.103  0.00  0.00    +0.000 A 
ATOM     27  C   UNL     1       5.981   4.834  17.790  0.00  0.00    +0.000 A 
BRANCH  22  29
ATOM     28  C   UNL     1       6.553   4.942  14.555  0.00  0.00    +0.000 C 
ATOM     29  O   UNL     1       6.081   5.870  15.523  0.00  0.00    +0.000 OA
ENDBRANCH  22  29
ENDBRANCH  20  27
ENDBRANCH  18  20
ENDBRANCH   1  18
TORSDOF 7
ENDMDL
