MODEL 1
REMARK VINA RESULT:      -7.6      0.000      0.000
REMARK  Name = 
REMARK  3 active torsions:
REMARK  status: ('A' for Active; 'I' for Inactive)
REMARK    1  A    between atoms: C_2  and  C_3
REMARK    2  A    between atoms: C_4  and  C_5
REMARK    3  A    between atoms: C_8  and  C_9
REMARK                            x       y       z     vdW  Elec       q    Type
REMARK                         _______ _______ _______ _____ _____    ______ ____
ROOT
ATOM      1  C   UNL     1       8.604   9.626  18.230  0.00  0.00    +0.000 A 
ATOM      2  C   UNL     1       8.996   9.695  19.560  0.00  0.00    +0.000 A 
ATOM      3  C   UNL     1       9.669  10.926  19.753  0.00  0.00    +0.000 A 
ATOM      4  C   UNL     1       9.668  11.568  18.535  0.00  0.00    +0.000 A 
ATOM      5  O   UNL     1       9.047  10.776  17.611  0.00  0.00    +0.000 OA
ENDROOT
BRANCH   4   6
ATOM      6  C   UNL     1      10.148  12.867  18.067  0.00  0.00    +0.000 A 
ATOM      7  C   UNL     1      11.368  12.966  17.373  0.00  0.00    +0.000 A 
ATOM      8  C   UNL     1      11.855  14.206  16.947  0.00  0.00    +0.000 A 
ATOM      9  C   UNL     1      11.125  15.356  17.213  0.00  0.00    +0.000 A 
ATOM     10  F   UNL     1      11.596  16.544  16.815  0.00  0.00    +0.000 F 
ATOM     11  C   UNL     1       9.914  15.290  17.890  0.00  0.00    +0.000 A 
ATOM     12  C   UNL     1       9.428  14.049  18.314  0.00  0.00    +0.000 A 
ENDBRANCH   4   6
BRANCH   1  14
ATOM     13  C   UNL     1       7.919   7.336  17.981  0.00  0.00    +0.000 C 
ATOM     14  C   UNL     1       7.843   8.613  17.586  0.00  0.00    +0.000 C 
BRANCH  13  16
ATOM     15  O   UNL     1       7.434   6.199  15.972  0.00  0.00    +0.000 OA
ATOM     16  C   UNL     1       7.246   6.285  17.184  0.00  0.00    +0.000 C 
ATOM     17  N   UNL     1       6.441   5.415  17.883  0.00  0.00    +0.000 N 
ATOM     18  C   UNL     1       5.847   4.257  17.240  0.00  0.00    +0.000 C 
ATOM     19  C   UNL     1       4.531   4.067  17.974  0.00  0.00    +0.000 C 
ATOM     20  C   UNL     1       4.866   4.498  19.397  0.00  0.00    +0.000 C 
ATOM     21  C   UNL     1       5.883   5.621  19.213  0.00  0.00    +0.000 C 
ENDBRANCH  13  16
ENDBRANCH   1  14
TORSDOF 3
ENDMDL
MODEL 2
REMARK VINA RESULT:      -7.5      0.246      1.063
REMARK  Name = 
REMARK  3 active torsions:
REMARK  status: ('A' for Active; 'I' for Inactive)
REMARK    1  A    between atoms: C_2  and  C_3
REMARK    2  A    between atoms: C_4  and  C_5
REMARK    3  A    between atoms: C_8  and  C_9
REMARK                            x       y       z     vdW  Elec       q    Type
REMARK                         _______ _______ _______ _____ _____    ______ ____
ROOT
ATOM      1  C   UNL     1       8.604   9.666  18.238  0.00  0.00    +0.000 A 
ATOM      2  C   UNL     1       9.020   9.694  19.562  0.00  0.00    +0.000 A 
ATOM      3  C   UNL     1       9.657  10.936  19.793  0.00  0.00    +0.000 A 
ATOM      4  C   UNL     1       9.611  11.628  18.603  0.00  0.00    +0.000 A 
ATOM      5  O   UNL     1       8.997  10.854  17.660  0.00  0.00    +0.000 OA
ENDROOT
BRANCH   4   6
ATOM      6  C   UNL     1      10.039  12.961  18.181  0.00  0.00    +0.000 A 
ATOM      7  C   UNL     1       9.425  14.107  18.717  0.00  0.00    +0.000 A 
ATOM      8  C   UNL     1       9.801  15.387  18.299  0.00  0.00    +0.000 A 
ATOM      9  C   UNL     1      10.795  15.529  17.340  0.00  0.00    +0.000 A 
ATOM     10  F   UNL     1      11.149  16.754  16.932  0.00  0.00    +0.000 F 
ATOM     11  C   UNL     1      11.425  14.417  16.798  0.00  0.00    +0.000 A 
ATOM     12  C   UNL     1      11.048  13.137  17.218  0.00  0.00    +0.000 A 
ENDBRANCH   4   6
BRANCH   1  14
ATOM     13  C   UNL     1       7.891   7.384  17.987  0.00  0.00    +0.000 C 
ATOM     14  C   UNL     1       7.863   8.656  17.568  0.00  0.00    +0.000 C 
BRANCH  13  16
ATOM     15  O   UNL     1       7.459   6.258  15.961  0.00  0.00    +0.000 OA
ATOM     16  C   UNL     1       7.246   6.332  17.169  0.00  0.00    +0.000 C 
ATOM     17  N   UNL     1       6.437   5.448  17.846  0.00  0.00    +0.000 N 
ATOM     18  C   UNL     1       5.870   4.288  17.183  0.00  0.00    +0.000 C 
ATOM     19  C   UNL     1       4.542   4.077  17.889  0.00  0.00    +0.000 C 
ATOM     20  C   UNL     1       4.844   4.501  19.321  0.00  0.00    +0.000 C 
ATOM     21  C   UNL     1       5.851   5.637  19.166  0.00  0.00    +0.000 C 
ENDBRANCH  13  16
ENDBRANCH   1  14
TORSDOF 3
ENDMDL
MODEL 3
REMARK VINA RESULT:      -7.5      7.722      9.202
REMARK  Name = 
REMARK  3 active torsions:
REMARK  status: ('A' for Active; 'I' for Inactive)
REMARK    1  A    between atoms: C_2  and  C_3
REMARK    2  A    between atoms: C_4  and  C_5
REMARK    3  A    between atoms: C_8  and  C_9
REMARK                            x       y       z     vdW  Elec       q    Type
REMARK                         _______ _______ _______ _____ _____    ______ ____
ROOT
ATOM      1  C   UNL     1       1.920   8.555  18.740  0.00  0.00    +0.000 A 
ATOM      2  C   UNL     1       1.943   9.687  17.937  0.00  0.00    +0.000 A 
ATOM      3  C   UNL     1       1.130  10.671  18.548  0.00  0.00    +0.000 A 
ATOM      4  C   UNL     1       0.634  10.109  19.702  0.00  0.00    +0.000 A 
ATOM      5  O   UNL     1       1.092   8.826  19.808  0.00  0.00    +0.000 OA
ENDROOT
BRANCH   4   6
ATOM      6  C   UNL     1      -0.212  10.594  20.791  0.00  0.00    +0.000 A 
ATOM      7  C   UNL     1      -1.080  11.682  20.586  0.00  0.00    +0.000 A 
ATOM      8  C   UNL     1      -1.872  12.177  21.626  0.00  0.00    +0.000 A 
ATOM      9  C   UNL     1      -1.801  11.588  22.881  0.00  0.00    +0.000 A 
ATOM     10  F   UNL     1      -2.552  12.069  23.880  0.00  0.00    +0.000 F 
ATOM     11  C   UNL     1      -0.959  10.508  23.113  0.00  0.00    +0.000 A 
ATOM     12  C   UNL     1      -0.168  10.013  22.071  0.00  0.00    +0.000 A 
ENDBRANCH   4   6
BRANCH   1  14
ATOM     13  C   UNL     1       2.687   6.425  19.549  0.00  0.00    +0.000 C 
ATOM     14  C   UNL     1       2.636   7.339  18.571  0.00  0.00    +0.000 C 
BRANCH  13  16
ATOM     15  O   UNL     1       4.800   5.381  19.441  0.00  0.00    +0.000 OA
ATOM     16  C   UNL     1       3.578   5.251  19.404  0.00  0.00    +0.000 C 
ATOM     17  N   UNL     1       2.956   4.032  19.259  0.00  0.00    +0.000 N 
ATOM     18  C   UNL     1       3.715   2.795  19.257  0.00  0.00    +0.000 C 
ATOM     19  C   UNL     1       2.924   1.882  18.338  0.00  0.00    +0.000 C 
ATOM     20  C   UNL     1       1.482   2.300  18.598  0.00  0.00    +0.000 C 
ATOM     21  C   UNL     1       1.574   3.800  18.863  0.00  0.00    +0.000 C 
ENDBRANCH  13  16
ENDBRANCH   1  14
TORSDOF 3
ENDMDL
MODEL 4
REMARK VINA RESULT:      -7.4      8.534     11.291
REMARK  Name = 
REMARK  3 active torsions:
REMARK  status: ('A' for Active; 'I' for Inactive)
REMARK    1  A    between atoms: C_2  and  C_3
REMARK    2  A    between atoms: C_4  and  C_5
REMARK    3  A    between atoms: C_8  and  C_9
REMARK                            x       y       z     vdW  Elec       q    Type
REMARK                         _______ _______ _______ _____ _____    ______ ____
ROOT
ATOM      1  C   UNL     1       1.743   7.993  20.181  0.00  0.00    +0.000 A 
ATOM      2  C   UNL     1       1.976   8.475  18.900  0.00  0.00    +0.000 A 
ATOM      3  C   UNL     1       2.457   7.402  18.112  0.00  0.00    +0.000 A 
ATOM      4  C   UNL     1       2.504   6.300  18.936  0.00  0.00    +0.000 A 
ATOM      5  O   UNL     1       2.095   6.661  20.188  0.00  0.00    +0.000 OA
ENDROOT
BRANCH   4   6
ATOM      6  C   UNL     1       2.856   4.895  18.740  0.00  0.00    +0.000 A 
ATOM      7  C   UNL     1       2.260   4.150  17.706  0.00  0.00    +0.000 A 
ATOM      8  C   UNL     1       2.562   2.797  17.527  0.00  0.00    +0.000 A 
ATOM      9  C   UNL     1       3.464   2.178  18.382  0.00  0.00    +0.000 A 
ATOM     10  F   UNL     1       3.746   0.880  18.218  0.00  0.00    +0.000 F 
ATOM     11  C   UNL     1       4.074   2.888  19.408  0.00  0.00    +0.000 A 
ATOM     12  C   UNL     1       3.771   4.243  19.585  0.00  0.00    +0.000 A 
ENDBRANCH   4   6
BRANCH   1  14
ATOM     13  C   UNL     1       0.203   9.569  21.142  0.00  0.00    +0.000 C 
ATOM     14  C   UNL     1       1.196   8.683  21.296  0.00  0.00    +0.000 C 
BRANCH  13  16
ATOM     15  O   UNL     1       0.043  10.048  23.446  0.00  0.00    +0.000 OA
ATOM     16  C   UNL     1      -0.227  10.390  22.296  0.00  0.00    +0.000 C 
ATOM     17  N   UNL     1      -0.906  11.549  21.996  0.00  0.00    +0.000 N 
ATOM     18  C   UNL     1      -1.248  12.510  23.030  0.00  0.00    +0.000 C 
ATOM     19  C   UNL     1      -2.550  13.121  22.544  0.00  0.00    +0.000 C 
ATOM     20  C   UNL     1      -2.379  13.132  21.029  0.00  0.00    +0.000 C 
ATOM     21  C   UNL     1      -1.568  11.873  20.740  0.00  0.00    +0.000 C 
ENDBRANCH  13  16
ENDBRANCH   1  14
TORSDOF 3
ENDMDL
MODEL 5
REMARK VINA RESULT:      -7.4      7.263      9.925
REMARK  Name = 
REMARK  3 active torsions:
REMARK  status: ('A' for Active; 'I' for Inactive)
REMARK    1  A    between atoms: C_2  and  C_3
REMARK    2  A    between atoms: C_4  and  C_5
REMARK    3  A    between atoms: C_8  and  C_9
REMARK                            x       y       z     vdW  Elec       q    Type
REMARK                         _______ _______ _______ _____ _____    ______ ____
ROOT
ATOM      1  C   UNL     1       1.841   7.199  20.446  0.00  0.00    +0.000 A 
ATOM      2  C   UNL     1       1.485   5.884  20.709  0.00  0.00    +0.000 A 
ATOM      3  C   UNL     1       2.104   5.062  19.736  0.00  0.00    +0.000 A 
ATOM      4  C   UNL     1       2.816   5.901  18.909  0.00  0.00    +0.000 A 
ATOM      5  O   UNL     1       2.641   7.191  19.323  0.00  0.00    +0.000 OA
ENDROOT
BRANCH   4   6
ATOM      6  C   UNL     1       3.696   5.695  17.760  0.00  0.00    +0.000 A 
ATOM      7  C   UNL     1       3.955   4.396  17.288  0.00  0.00    +0.000 A 
ATOM      8  C   UNL     1       4.820   4.181  16.210  0.00  0.00    +0.000 A 
ATOM      9  C   UNL     1       5.432   5.265  15.597  0.00  0.00    +0.000 A 
ATOM     10  F   UNL     1       6.268   5.059  14.572  0.00  0.00    +0.000 F 
ATOM     11  C   UNL     1       5.191   6.560  16.036  0.00  0.00    +0.000 A 
ATOM     12  C   UNL     1       4.324   6.774  17.114  0.00  0.00    +0.000 A 
ENDBRANCH   4   6
BRANCH   1  14
ATOM     13  C   UNL     1       0.278   8.568  21.655  0.00  0.00    +0.000 C 
ATOM     14  C   UNL     1       1.518   8.366  21.190  0.00  0.00    +0.000 C 
BRANCH  13  16
ATOM     15  O   UNL     1       0.014  10.020  23.494  0.00  0.00    +0.000 OA
ATOM     16  C   UNL     1      -0.065   9.867  22.277  0.00  0.00    +0.000 C 
ATOM     17  N   UNL     1      -0.439  10.872  21.415  0.00  0.00    +0.000 N 
ATOM     18  C   UNL     1      -0.654  12.228  21.888  0.00  0.00    +0.000 C 
ATOM     19  C   UNL     1      -1.737  12.767  20.971  0.00  0.00    +0.000 C 
ATOM     20  C   UNL     1      -1.428  12.091  19.641  0.00  0.00    +0.000 C 
ATOM     21  C   UNL     1      -0.892  10.719  20.040  0.00  0.00    +0.000 C 
ENDBRANCH  13  16
ENDBRANCH   1  14
TORSDOF 3
ENDMDL
MODEL 6
REMARK VINA RESULT:      -7.4      4.250      9.190
REMARK  Name = 
REMARK  3 active torsions:
REMARK  status: ('A' for Active; 'I' for Inactive)
REMARK    1  A    between atoms: C_2  and  C_3
REMARK    2  A    between atoms: C_4  and  C_5
REMARK    3  A    between atoms: C_8  and  C_9
REMARK                            x       y       z     vdW  Elec       q    Type
REMARK                         _______ _______ _______ _____ _____    ______ ____
ROOT
ATOM      1  C   UNL     1       7.549   8.009  17.927  0.00  0.00    +0.000 A 
ATOM      2  C   UNL     1       8.265   6.933  18.433  0.00  0.00    +0.000 A 
ATOM      3  C   UNL     1       7.382   5.831  18.535  0.00  0.00    +0.000 A 
ATOM      4  C   UNL     1       6.155   6.269  18.090  0.00  0.00    +0.000 A 
ATOM      5  O   UNL     1       6.249   7.587  17.745  0.00  0.00    +0.000 OA
ENDROOT
BRANCH   4   6
ATOM      6  C   UNL     1       4.853   5.632  17.898  0.00  0.00    +0.000 A 
ATOM      7  C   UNL     1       3.672   6.308  18.255  0.00  0.00    +0.000 A 
ATOM      8  C   UNL     1       2.422   5.700  18.107  0.00  0.00    +0.000 A 
ATOM      9  C   UNL     1       2.344   4.410  17.601  0.00  0.00    +0.000 A 
ATOM     10  F   UNL     1       1.148   3.823  17.469  0.00  0.00    +0.000 F 
ATOM     11  C   UNL     1       3.491   3.719  17.234  0.00  0.00    +0.000 A 
ATOM     12  C   UNL     1       4.741   4.330  17.381  0.00  0.00    +0.000 A 
ENDBRANCH   4   6
BRANCH   1  14
ATOM     13  C   UNL     1       8.704  10.044  18.477  0.00  0.00    +0.000 C 
ATOM     14  C   UNL     1       8.025   9.305  17.590  0.00  0.00    +0.000 C 
BRANCH  13  16
ATOM     15  O   UNL     1       8.335  12.098  17.378  0.00  0.00    +0.000 OA
ATOM     16  C   UNL     1       9.036  11.449  18.152  0.00  0.00    +0.000 C 
ATOM     17  N   UNL     1      10.140  11.974  18.785  0.00  0.00    +0.000 N 
ATOM     18  C   UNL     1      10.480  13.380  18.663  0.00  0.00    +0.000 C 
ATOM     19  C   UNL     1      11.995  13.398  18.752  0.00  0.00    +0.000 C 
ATOM     20  C   UNL     1      12.296  12.262  19.722  0.00  0.00    +0.000 C 
ATOM     21  C   UNL     1      11.214  11.228  19.427  0.00  0.00    +0.000 C 
ENDBRANCH  13  16
ENDBRANCH   1  14
TORSDOF 3
ENDMDL
MODEL 7
REMARK VINA RESULT:      -7.3      7.769      9.097
REMARK  Name = 
REMARK  3 active torsions:
REMARK  status: ('A' for Active; 'I' for Inactive)
REMARK    1  A    between atoms: C_2  and  C_3
REMARK    2  A    between atoms: C_4  and  C_5
REMARK    3  A    between atoms: C_8  and  C_9
REMARK                            x       y       z     vdW  Elec       q    Type
REMARK                         _______ _______ _______ _____ _____    ______ ____
ROOT
ATOM      1  C   UNL     1       2.035   8.228  18.857  0.00  0.00    +0.000 A 
ATOM      2  C   UNL     1       1.694   9.091  17.825  0.00  0.00    +0.000 A 
ATOM      3  C   UNL     1       0.793  10.053  18.340  0.00  0.00    +0.000 A 
ATOM      4  C   UNL     1       0.610   9.746  19.670  0.00  0.00    +0.000 A 
ATOM      5  O   UNL     1       1.341   8.633  19.977  0.00  0.00    +0.000 OA
ENDROOT
BRANCH   4   6
ATOM      6  C   UNL     1      -0.144  10.357  20.764  0.00  0.00    +0.000 A 
ATOM      7  C   UNL     1      -0.137   9.774  22.044  0.00  0.00    +0.000 A 
ATOM      8  C   UNL     1      -0.879  10.328  23.091  0.00  0.00    +0.000 A 
ATOM      9  C   UNL     1      -1.633  11.471  22.865  0.00  0.00    +0.000 A 
ATOM     10  F   UNL     1      -2.352  11.996  23.865  0.00  0.00    +0.000 F 
ATOM     11  C   UNL     1      -1.655  12.074  21.615  0.00  0.00    +0.000 A 
ATOM     12  C   UNL     1      -0.911  11.518  20.568  0.00  0.00    +0.000 A 
ENDBRANCH   4   6
BRANCH   1  14
ATOM     13  C   UNL     1       2.896   6.204  17.887  0.00  0.00    +0.000 C 
ATOM     14  C   UNL     1       2.959   7.148  18.835  0.00  0.00    +0.000 C 
BRANCH  13  16
ATOM     15  O   UNL     1       4.948   5.062  17.670  0.00  0.00    +0.000 OA
ATOM     16  C   UNL     1       3.763   5.008  17.990  0.00  0.00    +0.000 C 
ATOM     17  N   UNL     1       3.170   3.871  18.488  0.00  0.00    +0.000 N 
ATOM     18  C   UNL     1       3.949   2.680  18.776  0.00  0.00    +0.000 C 
ATOM     19  C   UNL     1       2.984   1.539  18.510  0.00  0.00    +0.000 C 
ATOM     20  C   UNL     1       1.641   2.118  18.938  0.00  0.00    +0.000 C 
ATOM     21  C   UNL     1       1.742   3.596  18.570  0.00  0.00    +0.000 C 
ENDBRANCH  13  16
ENDBRANCH   1  14
TORSDOF 3
ENDMDL
MODEL 8
REMARK VINA RESULT:      -7.3      7.231      9.776
REMARK  Name = 
REMARK  3 active torsions:
REMARK  status: ('A' for Active; 'I' for Inactive)
REMARK    1  A    between atoms: C_2  and  C_3
REMARK    2  A    between atoms: C_4  and  C_5
REMARK    3  A    between atoms: C_8  and  C_9
REMARK                            x       y       z     vdW  Elec       q    Type
REMARK                         _______ _______ _______ _____ _____    ______ ____
ROOT
ATOM      1  C   UNL     1       1.807   6.805  20.313  0.00  0.00    +0.000 A 
ATOM      2  C   UNL     1       1.824   5.490  20.758  0.00  0.00    +0.000 A 
ATOM      3  C   UNL     1       2.612   4.735  19.856  0.00  0.00    +0.000 A 
ATOM      4  C   UNL     1       3.049   5.612  18.889  0.00  0.00    +0.000 A 
ATOM      5  O   UNL     1       2.547   6.855  19.151  0.00  0.00    +0.000 OA
ENDROOT
BRANCH   4   6
ATOM      6  C   UNL     1       3.919   5.490  17.719  0.00  0.00    +0.000 A 
ATOM      7  C   UNL     1       4.454   6.639  17.110  0.00  0.00    +0.000 A 
ATOM      8  C   UNL     1       5.261   6.540  15.972  0.00  0.00    +0.000 A 
ATOM      9  C   UNL     1       5.538   5.290  15.436  0.00  0.00    +0.000 A 
ATOM     10  F   UNL     1       6.302   5.196  14.340  0.00  0.00    +0.000 F 
ATOM     11  C   UNL     1       5.030   4.137  16.019  0.00  0.00    +0.000 A 
ATOM     12  C   UNL     1       4.223   4.238  17.158  0.00  0.00    +0.000 A 
ENDBRANCH   4   6
BRANCH   1  14
ATOM     13  C   UNL     1       1.035   9.081  20.253  0.00  0.00    +0.000 C 
ATOM     14  C   UNL     1       1.205   7.936  20.928  0.00  0.00    +0.000 C 
BRANCH  13  16
ATOM     15  O   UNL     1       0.991  10.560  22.090  0.00  0.00    +0.000 OA
ATOM     16  C   UNL     1       0.562  10.286  20.971  0.00  0.00    +0.000 C 
ATOM     17  N   UNL     1      -0.346  11.074  20.300  0.00  0.00    +0.000 N 
ATOM     18  C   UNL     1      -0.770  12.355  20.835  0.00  0.00    +0.000 C 
ATOM     19  C   UNL     1      -2.201  12.498  20.347  0.00  0.00    +0.000 C 
ATOM     20  C   UNL     1      -2.169  11.819  18.983  0.00  0.00    +0.000 C 
ATOM     21  C   UNL     1      -1.164  10.684  19.160  0.00  0.00    +0.000 C 
ENDBRANCH  13  16
ENDBRANCH   1  14
TORSDOF 3
ENDMDL
MODEL 9
REMARK VINA RESULT:      -7.2      7.492      8.995
REMARK  Name = 
REMARK  3 active torsions:
REMARK  status: ('A' for Active; 'I' for Inactive)
REMARK    1  A    between atoms: C_2  and  C_3
REMARK    2  A    between atoms: C_4  and  C_5
REMARK    3  A    between atoms: C_8  and  C_9
REMARK                            x       y       z     vdW  Elec       q    Type
REMARK                         _______ _______ _______ _____ _____    ______ ____
ROOT
ATOM      1  C   UNL     1       2.029   8.093  18.892  0.00  0.00    +0.000 A 
ATOM      2  C   UNL     1       1.954   9.089  17.928  0.00  0.00    +0.000 A 
ATOM      3  C   UNL     1       1.149  10.133  18.442  0.00  0.00    +0.000 A 
ATOM      4  C   UNL     1       0.756   9.742  19.702  0.00  0.00    +0.000 A 
ATOM      5  O   UNL     1       1.268   8.503  19.966  0.00  0.00    +0.000 OA
ENDROOT
BRANCH   4   6
ATOM      6  C   UNL     1      -0.031  10.366  20.765  0.00  0.00    +0.000 A 
ATOM      7  C   UNL     1      -0.056   9.802  22.054  0.00  0.00    +0.000 A 
ATOM      8  C   UNL     1      -0.829  10.369  23.072  0.00  0.00    +0.000 A 
ATOM      9  C   UNL     1      -1.583  11.504  22.808  0.00  0.00    +0.000 A 
ATOM     10  F   UNL     1      -2.331  12.041  23.780  0.00  0.00    +0.000 F 
ATOM     11  C   UNL     1      -1.573  12.087  21.548  0.00  0.00    +0.000 A 
ATOM     12  C   UNL     1      -0.798  11.520  20.531  0.00  0.00    +0.000 A 
ENDBRANCH   4   6
BRANCH   1  14
ATOM     13  C   UNL     1       3.654   6.645  17.873  0.00  0.00    +0.000 C 
ATOM     14  C   UNL     1       2.777   6.885  18.856  0.00  0.00    +0.000 C 
BRANCH  13  16
ATOM     15  O   UNL     1       4.250   4.524  18.717  0.00  0.00    +0.000 OA
ATOM     16  C   UNL     1       4.289   5.311  17.773  0.00  0.00    +0.000 C 
ATOM     17  N   UNL     1       4.883   5.011  16.569  0.00  0.00    +0.000 N 
ATOM     18  C   UNL     1       5.407   3.684  16.297  0.00  0.00    +0.000 C 
ATOM     19  C   UNL     1       6.582   3.938  15.371  0.00  0.00    +0.000 C 
ATOM     20  C   UNL     1       6.122   5.139  14.554  0.00  0.00    +0.000 C 
ATOM     21  C   UNL     1       5.286   5.955  15.535  0.00  0.00    +0.000 C 
ENDBRANCH  13  16
ENDBRANCH   1  14
TORSDOF 3
ENDMDL
