MODEL 1
REMARK VINA RESULT:      -6.4      0.000      0.000
REMARK  Name = 
REMARK  10 active torsions:
REMARK  status: ('A' for Active; 'I' for Inactive)
REMARK    1  A    between atoms: C_1  and  C_2
REMARK    2  A    between atoms: C_2  and  O_3
REMARK    3  A    between atoms: O_3  and  C_4
REMARK    4  A    between atoms: C_4  and  C_6
REMARK    5  A    between atoms: C_6  and  C_7
REMARK    6  A    between atoms: C_12  and  C_14
REMARK    7  A    between atoms: C_14  and  S_15
REMARK    8  A    between atoms: S_15  and  C_16
REMARK    9  A    between atoms: C_19  and  C_20
REMARK   10  A    between atoms: N_21  and  C_22
REMARK                            x       y       z     vdW  Elec       q    Type
REMARK                         _______ _______ _______ _____ _____    ______ ____
ROOT
ATOM      1  C   UNL     1       0.876   9.911  19.572  0.00  0.00    +0.000 A 
ATOM      2  C   UNL     1       0.611  10.135  20.910  0.00  0.00    +0.000 A 
ATOM      3  S   UNL     1       1.211   8.828  21.850  0.00  0.00    +0.000 S 
ATOM      4  C   UNL     1       1.675   8.031  20.410  0.00  0.00    +0.000 A 
ATOM      5  N   UNL     1       2.202   6.786  20.591  0.00  0.00    +0.000 N 
ATOM      6  C   UNL     1       2.458   5.941  19.525  0.00  0.00    +0.000 C 
ATOM      7  O   UNL     1       2.214   6.160  18.343  0.00  0.00    +0.000 OA
ATOM      8  N   UNL     1       1.473   8.693  19.297  0.00  0.00    +0.000 NA
ATOM      9  H   UNL     1       2.477   6.546  21.537  0.00  0.00    +0.000 HD
ENDROOT
BRANCH   1  10
ATOM     10  C   UNL     1       0.571  10.818  18.426  0.00  0.00    +0.000 C 
BRANCH  10  11
ATOM     11  C   UNL     1      -0.721  11.562  18.661  0.00  0.00    +0.000 C 
ATOM     12  O   UNL     1      -0.811  12.741  18.972  0.00  0.00    +0.000 OA
BRANCH  11  13
ATOM     13  O   UNL     1      -1.776  10.719  18.467  0.00  0.00    +0.000 OA
BRANCH  13  15
ATOM     14  C   UNL     1      -2.449  10.208  16.237  0.00  0.00    +0.000 C 
ATOM     15  C   UNL     1      -2.680  11.120  17.429  0.00  0.00    +0.000 C 
ENDBRANCH  13  15
ENDBRANCH  11  13
ENDBRANCH  10  11
ENDBRANCH   1  10
BRANCH   6  16
ATOM     16  C   UNL     1       3.093   4.624  19.956  0.00  0.00    +0.000 C 
BRANCH  16  17
ATOM     17  S   UNL     1       4.005   3.865  18.580  0.00  0.00    +0.000 S 
BRANCH  17  18
ATOM     18  C   UNL     1       5.479   4.759  18.648  0.00  0.00    +0.000 A 
ATOM     19  N   UNL     1       6.382   4.691  19.597  0.00  0.00    +0.000 NA
ATOM     20  N   UNL     1       7.329   5.653  19.333  0.00  0.00    +0.000 NA
ATOM     21  C   UNL     1       6.980   6.284  18.228  0.00  0.00    +0.000 A 
ATOM     22  C   UNL     1       7.682   7.432  17.608  0.00  0.00    +0.000 C 
ATOM     23  N   UNL     1       5.822   5.723  17.744  0.00  0.00    +0.000 N 
ATOM     24  C   UNL     1       5.094   6.101  16.561  0.00  0.00    +0.000 C 
ENDBRANCH  17  18
ENDBRANCH  16  17
ENDBRANCH   6  16
TORSDOF 7
ENDMDL
MODEL 2
REMARK VINA RESULT:      -6.3      0.924      1.457
REMARK  Name = 
REMARK  10 active torsions:
REMARK  status: ('A' for Active; 'I' for Inactive)
REMARK    1  A    between atoms: C_1  and  C_2
REMARK    2  A    between atoms: C_2  and  O_3
REMARK    3  A    between atoms: O_3  and  C_4
REMARK    4  A    between atoms: C_4  and  C_6
REMARK    5  A    between atoms: C_6  and  C_7
REMARK    6  A    between atoms: C_12  and  C_14
REMARK    7  A    between atoms: C_14  and  S_15
REMARK    8  A    between atoms: S_15  and  C_16
REMARK    9  A    between atoms: C_19  and  C_20
REMARK   10  A    between atoms: N_21  and  C_22
REMARK                            x       y       z     vdW  Elec       q    Type
REMARK                         _______ _______ _______ _____ _____    ______ ____
ROOT
ATOM      1  C   UNL     1       0.734  10.015  19.658  0.00  0.00    +0.000 A 
ATOM      2  C   UNL     1       0.466  10.171  21.005  0.00  0.00    +0.000 A 
ATOM      3  S   UNL     1       1.161   8.874  21.892  0.00  0.00    +0.000 S 
ATOM      4  C   UNL     1       1.665   8.164  20.420  0.00  0.00    +0.000 A 
ATOM      5  N   UNL     1       2.276   6.952  20.552  0.00  0.00    +0.000 N 
ATOM      6  C   UNL     1       2.580   6.166  19.453  0.00  0.00    +0.000 C 
ATOM      7  O   UNL     1       2.312   6.411  18.281  0.00  0.00    +0.000 OA
ATOM      8  N   UNL     1       1.410   8.851  19.334  0.00  0.00    +0.000 NA
ATOM      9  H   UNL     1       2.576   6.696  21.486  0.00  0.00    +0.000 HD
ENDROOT
BRANCH   1  10
ATOM     10  C   UNL     1       0.358  10.941  18.549  0.00  0.00    +0.000 C 
BRANCH  10  11
ATOM     11  C   UNL     1      -1.140  10.988  18.375  0.00  0.00    +0.000 C 
ATOM     12  O   UNL     1      -1.835  10.062  17.981  0.00  0.00    +0.000 OA
BRANCH  11  13
ATOM     13  O   UNL     1      -1.603  12.221  18.730  0.00  0.00    +0.000 OA
BRANCH  13  15
ATOM     14  C   UNL     1      -2.534  13.280  20.653  0.00  0.00    +0.000 C 
ATOM     15  C   UNL     1      -2.741  12.204  19.602  0.00  0.00    +0.000 C 
ENDBRANCH  13  15
ENDBRANCH  11  13
ENDBRANCH  10  11
ENDBRANCH   1  10
BRANCH   6  16
ATOM     16  C   UNL     1       3.306   4.880  19.830  0.00  0.00    +0.000 C 
BRANCH  16  17
ATOM     17  S   UNL     1       4.180   4.186  18.396  0.00  0.00    +0.000 S 
BRANCH  17  18
ATOM     18  C   UNL     1       5.664   5.063  18.478  0.00  0.00    +0.000 A 
ATOM     19  N   UNL     1       6.604   4.910  19.380  0.00  0.00    +0.000 NA
ATOM     20  N   UNL     1       7.549   5.885  19.159  0.00  0.00    +0.000 NA
ATOM     21  C   UNL     1       7.161   6.609  18.125  0.00  0.00    +0.000 A 
ATOM     22  C   UNL     1       7.848   7.800  17.575  0.00  0.00    +0.000 C 
ATOM     23  N   UNL     1       5.979   6.097  17.644  0.00  0.00    +0.000 N 
ATOM     24  C   UNL     1       5.207   6.577  16.528  0.00  0.00    +0.000 C 
ENDBRANCH  17  18
ENDBRANCH  16  17
ENDBRANCH   6  16
TORSDOF 7
ENDMDL
MODEL 3
REMARK VINA RESULT:      -6.2      3.033      4.474
REMARK  Name = 
REMARK  10 active torsions:
REMARK  status: ('A' for Active; 'I' for Inactive)
REMARK    1  A    between atoms: C_1  and  C_2
REMARK    2  A    between atoms: C_2  and  O_3
REMARK    3  A    between atoms: O_3  and  C_4
REMARK    4  A    between atoms: C_4  and  C_6
REMARK    5  A    between atoms: C_6  and  C_7
REMARK    6  A    between atoms: C_12  and  C_14
REMARK    7  A    between atoms: C_14  and  S_15
REMARK    8  A    between atoms: S_15  and  C_16
REMARK    9  A    between atoms: C_19  and  C_20
REMARK   10  A    between atoms: N_21  and  C_22
REMARK                            x       y       z     vdW  Elec       q    Type
REMARK                         _______ _______ _______ _____ _____    ______ ____
ROOT
ATOM      1  C   UNL     1       1.552   8.678  20.444  0.00  0.00    +0.000 A 
ATOM      2  C   UNL     1       0.943   9.547  19.559  0.00  0.00    +0.000 A 
ATOM      3  S   UNL     1       1.336   9.107  17.945  0.00  0.00    +0.000 S 
ATOM      4  C   UNL     1       2.357   7.876  18.551  0.00  0.00    +0.000 A 
ATOM      5  N   UNL     1       3.044   7.184  17.597  0.00  0.00    +0.000 N 
ATOM      6  C   UNL     1       4.042   6.283  17.927  0.00  0.00    +0.000 C 
ATOM      7  O   UNL     1       4.459   6.033  19.054  0.00  0.00    +0.000 OA
ATOM      8  N   UNL     1       2.374   7.733  19.853  0.00  0.00    +0.000 NA
ATOM      9  H   UNL     1       2.726   7.297  16.641  0.00  0.00    +0.000 HD
ENDROOT
BRANCH   1  10
ATOM     10  C   UNL     1       1.432   8.672  21.932  0.00  0.00    +0.000 C 
BRANCH  10  11
ATOM     11  C   UNL     1       0.044   9.082  22.359  0.00  0.00    +0.000 C 
ATOM     12  O   UNL     1      -0.969   8.415  22.204  0.00  0.00    +0.000 OA
BRANCH  11  13
ATOM     13  O   UNL     1       0.091  10.311  22.950  0.00  0.00    +0.000 OA
BRANCH  13  15
ATOM     14  C   UNL     1      -1.300  11.971  21.952  0.00  0.00    +0.000 C 
ATOM     15  C   UNL     1      -1.180  10.962  23.080  0.00  0.00    +0.000 C 
ENDBRANCH  13  15
ENDBRANCH  11  13
ENDBRANCH  10  11
ENDBRANCH   1  10
BRANCH   6  16
ATOM     16  C   UNL     1       4.636   5.587  16.708  0.00  0.00    +0.000 C 
BRANCH  16  17
ATOM     17  S   UNL     1       4.703   3.789  16.958  0.00  0.00    +0.000 S 
BRANCH  17  18
ATOM     18  C   UNL     1       3.163   3.515  17.684  0.00  0.00    +0.000 A 
ATOM     19  N   UNL     1       1.996   3.795  17.154  0.00  0.00    +0.000 NA
ATOM     20  N   UNL     1       1.039   3.540  18.108  0.00  0.00    +0.000 NA
ATOM     21  C   UNL     1       1.646   3.109  19.198  0.00  0.00    +0.000 A 
ATOM     22  C   UNL     1       1.006   2.771  20.489  0.00  0.00    +0.000 C 
ATOM     23  N   UNL     1       2.999   3.049  18.957  0.00  0.00    +0.000 N 
ATOM     24  C   UNL     1       4.032   2.632  19.868  0.00  0.00    +0.000 C 
ENDBRANCH  17  18
ENDBRANCH  16  17
ENDBRANCH   6  16
TORSDOF 7
ENDMDL
MODEL 4
REMARK VINA RESULT:      -6.2      2.803      8.262
REMARK  Name = 
REMARK  10 active torsions:
REMARK  status: ('A' for Active; 'I' for Inactive)
REMARK    1  A    between atoms: C_1  and  C_2
REMARK    2  A    between atoms: C_2  and  O_3
REMARK    3  A    between atoms: O_3  and  C_4
REMARK    4  A    between atoms: C_4  and  C_6
REMARK    5  A    between atoms: C_6  and  C_7
REMARK    6  A    between atoms: C_12  and  C_14
REMARK    7  A    between atoms: C_14  and  S_15
REMARK    8  A    between atoms: S_15  and  C_16
REMARK    9  A    between atoms: C_19  and  C_20
REMARK   10  A    between atoms: N_21  and  C_22
REMARK                            x       y       z     vdW  Elec       q    Type
REMARK                         _______ _______ _______ _____ _____    ______ ____
ROOT
ATOM      1  C   UNL     1       4.620   4.451  18.370  0.00  0.00    +0.000 A 
ATOM      2  C   UNL     1       5.344   4.480  17.194  0.00  0.00    +0.000 A 
ATOM      3  S   UNL     1       5.129   5.996  16.414  0.00  0.00    +0.000 S 
ATOM      4  C   UNL     1       4.020   6.445  17.636  0.00  0.00    +0.000 A 
ATOM      5  N   UNL     1       3.433   7.662  17.455  0.00  0.00    +0.000 N 
ATOM      6  C   UNL     1       2.385   8.092  18.251  0.00  0.00    +0.000 C 
ATOM      7  O   UNL     1       1.837   7.455  19.146  0.00  0.00    +0.000 OA
ATOM      8  N   UNL     1       3.852   5.579  18.605  0.00  0.00    +0.000 NA
ATOM      9  H   UNL     1       3.860   8.271  16.765  0.00  0.00    +0.000 HD
ENDROOT
BRANCH   1  10
ATOM     10  C   UNL     1       4.569   3.345  19.372  0.00  0.00    +0.000 C 
BRANCH  10  11
ATOM     11  C   UNL     1       3.453   2.381  19.050  0.00  0.00    +0.000 C 
ATOM     12  O   UNL     1       3.389   1.685  18.047  0.00  0.00    +0.000 OA
BRANCH  11  13
ATOM     13  O   UNL     1       2.528   2.400  20.052  0.00  0.00    +0.000 OA
BRANCH  13  15
ATOM     14  C   UNL     1       1.076   4.234  20.513  0.00  0.00    +0.000 C 
ATOM     15  C   UNL     1       1.264   2.971  19.690  0.00  0.00    +0.000 C 
ENDBRANCH  13  15
ENDBRANCH  11  13
ENDBRANCH  10  11
ENDBRANCH   1  10
BRANCH   6  16
ATOM     16  C   UNL     1       1.920   9.501  17.905  0.00  0.00    +0.000 C 
BRANCH  16  17
ATOM     17  S   UNL     1       0.992  10.234  19.284  0.00  0.00    +0.000 S 
BRANCH  17  18
ATOM     18  C   UNL     1      -0.588  10.309  18.595  0.00  0.00    +0.000 A 
ATOM     19  N   UNL     1      -0.978   9.723  17.488  0.00  0.00    +0.000 NA
ATOM     20  N   UNL     1      -2.263  10.141  17.233  0.00  0.00    +0.000 NA
ATOM     21  C   UNL     1      -2.626  10.972  18.192  0.00  0.00    +0.000 A 
ATOM     22  C   UNL     1      -3.910  11.705  18.285  0.00  0.00    +0.000 C 
ATOM     23  N   UNL     1      -1.597  11.081  19.096  0.00  0.00    +0.000 N 
ATOM     24  C   UNL     1      -1.565  11.878  20.295  0.00  0.00    +0.000 C 
ENDBRANCH  17  18
ENDBRANCH  16  17
ENDBRANCH   6  16
TORSDOF 7
ENDMDL
MODEL 5
REMARK VINA RESULT:      -6.1      4.318      7.250
REMARK  Name = 
REMARK  10 active torsions:
REMARK  status: ('A' for Active; 'I' for Inactive)
REMARK    1  A    between atoms: C_1  and  C_2
REMARK    2  A    between atoms: C_2  and  O_3
REMARK    3  A    between atoms: O_3  and  C_4
REMARK    4  A    between atoms: C_4  and  C_6
REMARK    5  A    between atoms: C_6  and  C_7
REMARK    6  A    between atoms: C_12  and  C_14
REMARK    7  A    between atoms: C_14  and  S_15
REMARK    8  A    between atoms: S_15  and  C_16
REMARK    9  A    between atoms: C_19  and  C_20
REMARK   10  A    between atoms: N_21  and  C_22
REMARK                            x       y       z     vdW  Elec       q    Type
REMARK                         _______ _______ _______ _____ _____    ______ ____
ROOT
ATOM      1  C   UNL     1       6.980   5.517  17.251  0.00  0.00    +0.000 A 
ATOM      2  C   UNL     1       7.046   5.304  15.887  0.00  0.00    +0.000 A 
ATOM      3  S   UNL     1       5.899   4.110  15.428  0.00  0.00    +0.000 S 
ATOM      4  C   UNL     1       5.487   3.900  17.074  0.00  0.00    +0.000 A 
ATOM      5  N   UNL     1       4.570   2.919  17.313  0.00  0.00    +0.000 N 
ATOM      6  C   UNL     1       4.266   2.503  18.597  0.00  0.00    +0.000 C 
ATOM      7  O   UNL     1       4.784   2.898  19.637  0.00  0.00    +0.000 OA
ATOM      8  N   UNL     1       6.092   4.694  17.923  0.00  0.00    +0.000 NA
ATOM      9  H   UNL     1       4.060   2.572  16.508  0.00  0.00    +0.000 HD
ENDROOT
BRANCH   1  10
ATOM     10  C   UNL     1       7.765   6.504  18.050  0.00  0.00    +0.000 C 
BRANCH  10  11
ATOM     11  C   UNL     1       7.503   7.910  17.571  0.00  0.00    +0.000 C 
ATOM     12  O   UNL     1       6.433   8.327  17.152  0.00  0.00    +0.000 OA
BRANCH  11  13
ATOM     13  O   UNL     1       8.644   8.651  17.682  0.00  0.00    +0.000 OA
BRANCH  13  15
ATOM     14  C   UNL     1       9.586  10.749  18.313  0.00  0.00    +0.000 C 
ATOM     15  C   UNL     1       8.608   9.655  18.705  0.00  0.00    +0.000 C 
ENDBRANCH  13  15
ENDBRANCH  11  13
ENDBRANCH  10  11
ENDBRANCH   1  10
BRANCH   6  16
ATOM     16  C   UNL     1       3.179   1.435  18.630  0.00  0.00    +0.000 C 
BRANCH  16  17
ATOM     17  S   UNL     1       1.655   2.084  19.376  0.00  0.00    +0.000 S 
BRANCH  17  18
ATOM     18  C   UNL     1       1.731   3.730  18.863  0.00  0.00    +0.000 A 
ATOM     19  N   UNL     1       1.641   4.160  17.627  0.00  0.00    +0.000 NA
ATOM     20  N   UNL     1       1.878   5.515  17.646  0.00  0.00    +0.000 NA
ATOM     21  C   UNL     1       2.106   5.877  18.894  0.00  0.00    +0.000 A 
ATOM     22  C   UNL     1       2.462   7.235  19.367  0.00  0.00    +0.000 C 
ATOM     23  N   UNL     1       1.990   4.773  19.705  0.00  0.00    +0.000 N 
ATOM     24  C   UNL     1       2.156   4.715  21.133  0.00  0.00    +0.000 C 
ENDBRANCH  17  18
ENDBRANCH  16  17
ENDBRANCH   6  16
TORSDOF 7
ENDMDL
MODEL 6
REMARK VINA RESULT:      -6.0      2.749      8.020
REMARK  Name = 
REMARK  10 active torsions:
REMARK  status: ('A' for Active; 'I' for Inactive)
REMARK    1  A    between atoms: C_1  and  C_2
REMARK    2  A    between atoms: C_2  and  O_3
REMARK    3  A    between atoms: O_3  and  C_4
REMARK    4  A    between atoms: C_4  and  C_6
REMARK    5  A    between atoms: C_6  and  C_7
REMARK    6  A    between atoms: C_12  and  C_14
REMARK    7  A    between atoms: C_14  and  S_15
REMARK    8  A    between atoms: S_15  and  C_16
REMARK    9  A    between atoms: C_19  and  C_20
REMARK   10  A    between atoms: N_21  and  C_22
REMARK                            x       y       z     vdW  Elec       q    Type
REMARK                         _______ _______ _______ _____ _____    ______ ____
ROOT
ATOM      1  C   UNL     1       3.871   5.342  18.051  0.00  0.00    +0.000 A 
ATOM      2  C   UNL     1       3.680   4.763  19.291  0.00  0.00    +0.000 A 
ATOM      3  S   UNL     1       2.509   5.656  20.176  0.00  0.00    +0.000 S 
ATOM      4  C   UNL     1       2.431   6.786  18.895  0.00  0.00    +0.000 A 
ATOM      5  N   UNL     1       1.613   7.853  19.124  0.00  0.00    +0.000 N 
ATOM      6  C   UNL     1       1.578   8.942  18.269  0.00  0.00    +0.000 C 
ATOM      7  O   UNL     1       2.273   9.112  17.272  0.00  0.00    +0.000 OA
ATOM      8  N   UNL     1       3.160   6.511  17.842  0.00  0.00    +0.000 NA
ATOM      9  H   UNL     1       0.970   7.770  19.903  0.00  0.00    +0.000 HD
ENDROOT
BRANCH   1  10
ATOM     10  C   UNL     1       4.761   4.855  16.955  0.00  0.00    +0.000 C 
BRANCH  10  11
ATOM     11  C   UNL     1       5.784   5.903  16.591  0.00  0.00    +0.000 C 
ATOM     12  O   UNL     1       6.198   6.125  15.462  0.00  0.00    +0.000 OA
BRANCH  11  13
ATOM     13  O   UNL     1       6.173   6.572  17.714  0.00  0.00    +0.000 OA
BRANCH  13  15
ATOM     14  C   UNL     1       7.767   8.347  17.685  0.00  0.00    +0.000 C 
ATOM     15  C   UNL     1       7.579   6.843  17.792  0.00  0.00    +0.000 C 
ENDBRANCH  13  15
ENDBRANCH  11  13
ENDBRANCH  10  11
ENDBRANCH   1  10
BRANCH   6  16
ATOM     16  C   UNL     1       0.557   9.991  18.691  0.00  0.00    +0.000 C 
BRANCH  16  17
ATOM     17  S   UNL     1       1.356  11.340  19.610  0.00  0.00    +0.000 S 
BRANCH  17  18
ATOM     18  C   UNL     1       0.501  11.251  21.105  0.00  0.00    +0.000 A 
ATOM     19  N   UNL     1       0.795  10.472  22.120  0.00  0.00    +0.000 NA
ATOM     20  N   UNL     1      -0.204  10.618  23.053  0.00  0.00    +0.000 NA
ATOM     21  C   UNL     1      -1.084  11.484  22.585  0.00  0.00    +0.000 A 
ATOM     22  C   UNL     1      -2.348  11.896  23.236  0.00  0.00    +0.000 C 
ATOM     23  N   UNL     1      -0.654  11.934  21.359  0.00  0.00    +0.000 N 
ATOM     24  C   UNL     1      -1.305  12.886  20.499  0.00  0.00    +0.000 C 
ENDBRANCH  17  18
ENDBRANCH  16  17
ENDBRANCH   6  16
TORSDOF 7
ENDMDL
MODEL 7
REMARK VINA RESULT:      -6.0      2.802      4.379
REMARK  Name = 
REMARK  10 active torsions:
REMARK  status: ('A' for Active; 'I' for Inactive)
REMARK    1  A    between atoms: C_1  and  C_2
REMARK    2  A    between atoms: C_2  and  O_3
REMARK    3  A    between atoms: O_3  and  C_4
REMARK    4  A    between atoms: C_4  and  C_6
REMARK    5  A    between atoms: C_6  and  C_7
REMARK    6  A    between atoms: C_12  and  C_14
REMARK    7  A    between atoms: C_14  and  S_15
REMARK    8  A    between atoms: S_15  and  C_16
REMARK    9  A    between atoms: C_19  and  C_20
REMARK   10  A    between atoms: N_21  and  C_22
REMARK                            x       y       z     vdW  Elec       q    Type
REMARK                         _______ _______ _______ _____ _____    ______ ____
ROOT
ATOM      1  C   UNL     1       1.251   8.793  20.090  0.00  0.00    +0.000 A 
ATOM      2  C   UNL     1       1.016   9.577  18.977  0.00  0.00    +0.000 A 
ATOM      3  S   UNL     1       1.773   8.877  17.602  0.00  0.00    +0.000 S 
ATOM      4  C   UNL     1       2.431   7.661  18.607  0.00  0.00    +0.000 A 
ATOM      5  N   UNL     1       3.258   6.781  17.972  0.00  0.00    +0.000 N 
ATOM      6  C   UNL     1       4.009   5.852  18.672  0.00  0.00    +0.000 C 
ATOM      7  O   UNL     1       4.072   5.731  19.892  0.00  0.00    +0.000 OA
ATOM      8  N   UNL     1       2.077   7.704  19.868  0.00  0.00    +0.000 NA
ATOM      9  H   UNL     1       3.227   6.784  16.959  0.00  0.00    +0.000 HD
ENDROOT
BRANCH   1  10
ATOM     10  C   UNL     1       0.733   9.011  21.473  0.00  0.00    +0.000 C 
BRANCH  10  11
ATOM     11  C   UNL     1       0.384  10.462  21.692  0.00  0.00    +0.000 C 
ATOM     12  O   UNL     1       1.178  11.391  21.673  0.00  0.00    +0.000 OA
BRANCH  11  13
ATOM     13  O   UNL     1      -0.958  10.583  21.908  0.00  0.00    +0.000 OA
BRANCH  13  15
ATOM     14  C   UNL     1      -2.528  11.995  23.015  0.00  0.00    +0.000 C 
ATOM     15  C   UNL     1      -1.312  11.104  23.196  0.00  0.00    +0.000 C 
ENDBRANCH  13  15
ENDBRANCH  11  13
ENDBRANCH  10  11
ENDBRANCH   1  10
BRANCH   6  16
ATOM     16  C   UNL     1       4.819   4.940  17.759  0.00  0.00    +0.000 C 
BRANCH  16  17
ATOM     17  S   UNL     1       3.770   3.638  17.048  0.00  0.00    +0.000 S 
BRANCH  17  18
ATOM     18  C   UNL     1       2.625   3.428  18.321  0.00  0.00    +0.000 A 
ATOM     19  N   UNL     1       1.409   3.921  18.357  0.00  0.00    +0.000 NA
ATOM     20  N   UNL     1       0.884   3.627  19.594  0.00  0.00    +0.000 NA
ATOM     21  C   UNL     1       1.792   2.961  20.281  0.00  0.00    +0.000 A 
ATOM     22  C   UNL     1       1.672   2.495  21.682  0.00  0.00    +0.000 C 
ATOM     23  N   UNL     1       2.905   2.786  19.493  0.00  0.00    +0.000 N 
ATOM     24  C   UNL     1       4.129   2.114  19.843  0.00  0.00    +0.000 C 
ENDBRANCH  17  18
ENDBRANCH  16  17
ENDBRANCH   6  16
TORSDOF 7
ENDMDL
MODEL 8
REMARK VINA RESULT:      -6.0      2.874      8.394
REMARK  Name = 
REMARK  10 active torsions:
REMARK  status: ('A' for Active; 'I' for Inactive)
REMARK    1  A    between atoms: C_1  and  C_2
REMARK    2  A    between atoms: C_2  and  O_3
REMARK    3  A    between atoms: O_3  and  C_4
REMARK    4  A    between atoms: C_4  and  C_6
REMARK    5  A    between atoms: C_6  and  C_7
REMARK    6  A    between atoms: C_12  and  C_14
REMARK    7  A    between atoms: C_14  and  S_15
REMARK    8  A    between atoms: S_15  and  C_16
REMARK    9  A    between atoms: C_19  and  C_20
REMARK   10  A    between atoms: N_21  and  C_22
REMARK                            x       y       z     vdW  Elec       q    Type
REMARK                         _______ _______ _______ _____ _____    ______ ____
ROOT
ATOM      1  C   UNL     1       4.092   5.147  17.538  0.00  0.00    +0.000 A 
ATOM      2  C   UNL     1       4.278   4.404  18.688  0.00  0.00    +0.000 A 
ATOM      3  S   UNL     1       3.384   5.098  19.981  0.00  0.00    +0.000 S 
ATOM      4  C   UNL     1       2.914   6.374  18.945  0.00  0.00    +0.000 A 
ATOM      5  N   UNL     1       2.168   7.348  19.541  0.00  0.00    +0.000 N 
ATOM      6  C   UNL     1       1.861   8.532  18.892  0.00  0.00    +0.000 C 
ATOM      7  O   UNL     1       2.238   8.873  17.775  0.00  0.00    +0.000 OA
ATOM      8  N   UNL     1       3.320   6.285  17.703  0.00  0.00    +0.000 NA
ATOM      9  H   UNL     1       1.775   7.123  20.449  0.00  0.00    +0.000 HD
ENDROOT
BRANCH   1  10
ATOM     10  C   UNL     1       4.645   4.864  16.180  0.00  0.00    +0.000 C 
BRANCH  10  11
ATOM     11  C   UNL     1       5.754   5.830  15.842  0.00  0.00    +0.000 C 
ATOM     12  O   UNL     1       6.052   6.820  16.493  0.00  0.00    +0.000 OA
BRANCH  11  13
ATOM     13  O   UNL     1       6.380   5.425  14.698  0.00  0.00    +0.000 OA
BRANCH  13  15
ATOM     14  C   UNL     1       6.251   3.778  12.979  0.00  0.00    +0.000 C 
ATOM     15  C   UNL     1       6.363   4.009  14.476  0.00  0.00    +0.000 C 
ENDBRANCH  13  15
ENDBRANCH  11  13
ENDBRANCH  10  11
ENDBRANCH   1  10
BRANCH   6  16
ATOM     16  C   UNL     1       0.975   9.449  19.726  0.00  0.00    +0.000 C 
BRANCH  16  17
ATOM     17  S   UNL     1       0.642  11.003  18.845  0.00  0.00    +0.000 S 
BRANCH  17  18
ATOM     18  C   UNL     1      -0.973  10.720  18.307  0.00  0.00    +0.000 A 
ATOM     19  N   UNL     1      -1.346   9.846  17.403  0.00  0.00    +0.000 NA
ATOM     20  N   UNL     1      -2.690  10.032  17.181  0.00  0.00    +0.000 NA
ATOM     21  C   UNL     1      -3.105  11.016  17.957  0.00  0.00    +0.000 A 
ATOM     22  C   UNL     1      -4.470  11.588  18.002  0.00  0.00    +0.000 C 
ATOM     23  N   UNL     1      -2.046  11.460  18.713  0.00  0.00    +0.000 N 
ATOM     24  C   UNL     1      -2.052  12.517  19.691  0.00  0.00    +0.000 C 
ENDBRANCH  17  18
ENDBRANCH  16  17
ENDBRANCH   6  16
TORSDOF 7
ENDMDL
MODEL 9
REMARK VINA RESULT:      -6.0      2.989      8.218
REMARK  Name = 
REMARK  10 active torsions:
REMARK  status: ('A' for Active; 'I' for Inactive)
REMARK    1  A    between atoms: C_1  and  C_2
REMARK    2  A    between atoms: C_2  and  O_3
REMARK    3  A    between atoms: O_3  and  C_4
REMARK    4  A    between atoms: C_4  and  C_6
REMARK    5  A    between atoms: C_6  and  C_7
REMARK    6  A    between atoms: C_12  and  C_14
REMARK    7  A    between atoms: C_14  and  S_15
REMARK    8  A    between atoms: S_15  and  C_16
REMARK    9  A    between atoms: C_19  and  C_20
REMARK   10  A    between atoms: N_21  and  C_22
REMARK                            x       y       z     vdW  Elec       q    Type
REMARK                         _______ _______ _______ _____ _____    ______ ____
ROOT
ATOM      1  C   UNL     1       3.470   3.508  19.296  0.00  0.00    +0.000 A 
ATOM      2  C   UNL     1       3.255   2.688  20.387  0.00  0.00    +0.000 A 
ATOM      3  S   UNL     1       2.251   3.489  21.529  0.00  0.00    +0.000 S 
ATOM      4  C   UNL     1       2.272   4.883  20.539  0.00  0.00    +0.000 A 
ATOM      5  N   UNL     1       1.614   5.960  21.057  0.00  0.00    +0.000 N 
ATOM      6  C   UNL     1       1.689   7.211  20.469  0.00  0.00    +0.000 C 
ATOM      7  O   UNL     1       2.358   7.520  19.488  0.00  0.00    +0.000 OA
ATOM      8  N   UNL     1       2.913   4.771  19.403  0.00  0.00    +0.000 NA
ATOM      9  H   UNL     1       0.998   5.779  21.842  0.00  0.00    +0.000 HD
ENDROOT
BRANCH   1  10
ATOM     10  C   UNL     1       4.240   3.182  18.059  0.00  0.00    +0.000 C 
BRANCH  10  11
ATOM     11  C   UNL     1       5.100   4.349  17.640  0.00  0.00    +0.000 C 
ATOM     12  O   UNL     1       6.060   4.779  18.263  0.00  0.00    +0.000 OA
BRANCH  11  13
ATOM     13  O   UNL     1       4.646   4.849  16.455  0.00  0.00    +0.000 OA
BRANCH  13  15
ATOM     14  C   UNL     1       5.626   4.230  14.371  0.00  0.00    +0.000 C 
ATOM     15  C   UNL     1       5.675   5.214  15.526  0.00  0.00    +0.000 C 
ENDBRANCH  13  15
ENDBRANCH  11  13
ENDBRANCH  10  11
ENDBRANCH   1  10
BRANCH   6  16
ATOM     16  C   UNL     1       0.835   8.252  21.184  0.00  0.00    +0.000 C 
BRANCH  16  17
ATOM     17  S   UNL     1       0.863   9.835  20.294  0.00  0.00    +0.000 S 
BRANCH  17  18
ATOM     18  C   UNL     1      -0.054  10.819  21.375  0.00  0.00    +0.000 A 
ATOM     19  N   UNL     1       0.115  10.909  22.672  0.00  0.00    +0.000 NA
ATOM     20  N   UNL     1      -0.898  11.696  23.166  0.00  0.00    +0.000 NA
ATOM     21  C   UNL     1      -1.661  12.069  22.155  0.00  0.00    +0.000 A 
ATOM     22  C   UNL     1      -2.899  12.878  22.236  0.00  0.00    +0.000 C 
ATOM     23  N   UNL     1      -1.138  11.556  20.992  0.00  0.00    +0.000 N 
ATOM     24  C   UNL     1      -1.650  11.717  19.657  0.00  0.00    +0.000 C 
ENDBRANCH  17  18
ENDBRANCH  16  17
ENDBRANCH   6  16
TORSDOF 7
ENDMDL
