MODEL 1
REMARK VINA RESULT:      -8.7      0.000      0.000
REMARK  Name = 
REMARK  7 active torsions:
REMARK  status: ('A' for Active; 'I' for Inactive)
REMARK    1  A    between atoms: C_1  and  C_2
REMARK    2  A    between atoms: C_6  and  N_7
REMARK    3  A    between atoms: C_8  and  C_10
REMARK    4  A    between atoms: C_10  and  N_11
REMARK    5  A    between atoms: C_13  and  C_14
REMARK    6  A    between atoms: C_14  and  C_16
REMARK    7  A    between atoms: C_25  and  C_26
REMARK                            x       y       z     vdW  Elec       q    Type
REMARK                         _______ _______ _______ _____ _____    ______ ____
ROOT
ATOM      1  N   UNL     1       3.229   6.524  17.851  0.00  0.00    +0.000 N 
ATOM      2  C   UNL     1       4.586   6.551  17.605  0.00  0.00    +0.000 A 
ATOM      3  C   UNL     1       5.064   5.250  17.560  0.00  0.00    +0.000 A 
ATOM      4  C   UNL     1       3.920   4.404  17.750  0.00  0.00    +0.000 A 
ATOM      5  C   UNL     1       3.754   3.000  17.799  0.00  0.00    +0.000 A 
ATOM      6  C   UNL     1       2.483   2.446  17.966  0.00  0.00    +0.000 A 
ATOM      7  C   UNL     1       1.371   3.274  18.066  0.00  0.00    +0.000 A 
ATOM      8  C   UNL     1       1.503   4.664  18.016  0.00  0.00    +0.000 A 
ATOM      9  C   UNL     1       2.788   5.217  17.881  0.00  0.00    +0.000 A 
ENDROOT
BRANCH   3  10
ATOM     10  C   UNL     1       6.437   4.796  17.337  0.00  0.00    +0.000 C 
ATOM     11  O   UNL     1       7.168   4.411  18.243  0.00  0.00    +0.000 OA
BRANCH  10  12
ATOM     12  C   UNL     1       6.944   4.781  15.929  0.00  0.00    +0.000 C 
ATOM     13  C   UNL     1       6.437   3.738  14.954  0.00  0.00    +0.000 C 
ATOM     14  C   UNL     1       6.011   5.170  14.803  0.00  0.00    +0.000 C 
ENDBRANCH  10  12
ENDBRANCH   3  10
BRANCH   1  15
ATOM     15  C   UNL     1       2.404   7.725  17.939  0.00  0.00    +0.000 C 
BRANCH  15  17
ATOM     16  N   UNL     1       1.092   9.172  19.426  0.00  0.00    +0.000 N 
ATOM     17  C   UNL     1       1.922   8.056  19.340  0.00  0.00    +0.000 C 
ATOM     18  O   UNL     1       2.250   7.329  20.277  0.00  0.00    +0.000 OA
ATOM     19  H   UNL     1       1.021   9.739  18.595  0.00  0.00    +0.000 HD
BRANCH  16  25
ATOM     20  C   UNL     1      -0.608  12.971  22.286  0.00  0.00    +0.000 C 
ATOM     21  C   UNL     1      -0.367  11.508  22.004  0.00  0.00    +0.000 A 
ATOM     22  C   UNL     1      -0.738  10.587  22.993  0.00  0.00    +0.000 A 
ATOM     23  C   UNL     1      -0.556   9.231  22.786  0.00  0.00    +0.000 A 
ATOM     24  C   UNL     1       0.021   8.780  21.602  0.00  0.00    +0.000 A 
ATOM     25  C   UNL     1       0.450   9.665  20.601  0.00  0.00    +0.000 A 
ATOM     26  C   UNL     1       0.227  11.055  20.789  0.00  0.00    +0.000 A 
ATOM     27  C   UNL     1       0.606  12.104  19.772  0.00  0.00    +0.000 C 
ENDBRANCH  16  25
ENDBRANCH  15  17
ENDBRANCH   1  15
TORSDOF 5
ENDMDL
MODEL 2
REMARK VINA RESULT:      -8.5      1.175      1.695
REMARK  Name = 
REMARK  7 active torsions:
REMARK  status: ('A' for Active; 'I' for Inactive)
REMARK    1  A    between atoms: C_1  and  C_2
REMARK    2  A    between atoms: C_6  and  N_7
REMARK    3  A    between atoms: C_8  and  C_10
REMARK    4  A    between atoms: C_10  and  N_11
REMARK    5  A    between atoms: C_13  and  C_14
REMARK    6  A    between atoms: C_14  and  C_16
REMARK    7  A    between atoms: C_25  and  C_26
REMARK                            x       y       z     vdW  Elec       q    Type
REMARK                         _______ _______ _______ _____ _____    ______ ____
ROOT
ATOM      1  N   UNL     1       3.295   6.930  17.671  0.00  0.00    +0.000 N 
ATOM      2  C   UNL     1       4.620   7.146  17.353  0.00  0.00    +0.000 A 
ATOM      3  C   UNL     1       5.262   5.922  17.235  0.00  0.00    +0.000 A 
ATOM      4  C   UNL     1       4.253   4.925  17.454  0.00  0.00    +0.000 A 
ATOM      5  C   UNL     1       4.277   3.510  17.460  0.00  0.00    +0.000 A 
ATOM      6  C   UNL     1       3.102   2.787  17.675  0.00  0.00    +0.000 A 
ATOM      7  C   UNL     1       1.898   3.455  17.864  0.00  0.00    +0.000 A 
ATOM      8  C   UNL     1       1.842   4.852  17.859  0.00  0.00    +0.000 A 
ATOM      9  C   UNL     1       3.033   5.575  17.676  0.00  0.00    +0.000 A 
ENDROOT
BRANCH   3  10
ATOM     10  C   UNL     1       6.668   5.663  16.923  0.00  0.00    +0.000 C 
ATOM     11  O   UNL     1       7.125   5.737  15.788  0.00  0.00    +0.000 OA
BRANCH  10  12
ATOM     12  C   UNL     1       7.580   5.320  18.060  0.00  0.00    +0.000 C 
ATOM     13  C   UNL     1       8.131   6.419  18.945  0.00  0.00    +0.000 C 
ATOM     14  C   UNL     1       7.085   5.485  19.481  0.00  0.00    +0.000 C 
ENDBRANCH  10  12
ENDBRANCH   3  10
BRANCH   1  15
ATOM     15  C   UNL     1       2.325   8.006  17.847  0.00  0.00    +0.000 C 
BRANCH  15  17
ATOM     16  N   UNL     1       1.028   9.308  19.475  0.00  0.00    +0.000 N 
ATOM     17  C   UNL     1       1.874   8.218  19.281  0.00  0.00    +0.000 C 
ATOM     18  O   UNL     1       2.237   7.426  20.150  0.00  0.00    +0.000 OA
ATOM     19  H   UNL     1       0.927   9.938  18.693  0.00  0.00    +0.000 HD
BRANCH  16  25
ATOM     20  C   UNL     1      -2.029  12.319  22.136  0.00  0.00    +0.000 C 
ATOM     21  C   UNL     1      -1.066  11.165  22.004  0.00  0.00    +0.000 A 
ATOM     22  C   UNL     1      -0.711  10.479  23.173  0.00  0.00    +0.000 A 
ATOM     23  C   UNL     1       0.156   9.402  23.114  0.00  0.00    +0.000 A 
ATOM     24  C   UNL     1       0.698   9.013  21.891  0.00  0.00    +0.000 A 
ATOM     25  C   UNL     1       0.408   9.696  20.699  0.00  0.00    +0.000 A 
ATOM     26  C   UNL     1      -0.514  10.775  20.748  0.00  0.00    +0.000 A 
ATOM     27  C   UNL     1      -0.938  11.564  19.532  0.00  0.00    +0.000 C 
ENDBRANCH  16  25
ENDBRANCH  15  17
ENDBRANCH   1  15
TORSDOF 5
ENDMDL
MODEL 3
REMARK VINA RESULT:      -8.4      2.354      4.093
REMARK  Name = 
REMARK  7 active torsions:
REMARK  status: ('A' for Active; 'I' for Inactive)
REMARK    1  A    between atoms: C_1  and  C_2
REMARK    2  A    between atoms: C_6  and  N_7
REMARK    3  A    between atoms: C_8  and  C_10
REMARK    4  A    between atoms: C_10  and  N_11
REMARK    5  A    between atoms: C_13  and  C_14
REMARK    6  A    between atoms: C_14  and  C_16
REMARK    7  A    between atoms: C_25  and  C_26
REMARK                            x       y       z     vdW  Elec       q    Type
REMARK                         _______ _______ _______ _____ _____    ______ ____
ROOT
ATOM      1  N   UNL     1       2.809   6.897  17.965  0.00  0.00    +0.000 N 
ATOM      2  C   UNL     1       1.848   6.152  18.617  0.00  0.00    +0.000 A 
ATOM      3  C   UNL     1       2.113   4.804  18.424  0.00  0.00    +0.000 A 
ATOM      4  C   UNL     1       3.319   4.747  17.649  0.00  0.00    +0.000 A 
ATOM      5  C   UNL     1       4.091   3.676  17.140  0.00  0.00    +0.000 A 
ATOM      6  C   UNL     1       5.267   3.930  16.431  0.00  0.00    +0.000 A 
ATOM      7  C   UNL     1       5.695   5.238  16.239  0.00  0.00    +0.000 A 
ATOM      8  C   UNL     1       4.956   6.317  16.733  0.00  0.00    +0.000 A 
ATOM      9  C   UNL     1       3.756   6.056  17.417  0.00  0.00    +0.000 A 
ENDROOT
BRANCH   3  10
ATOM     10  C   UNL     1       1.357   3.652  18.918  0.00  0.00    +0.000 C 
ATOM     11  O   UNL     1       0.988   2.735  18.194  0.00  0.00    +0.000 OA
BRANCH  10  12
ATOM     12  C   UNL     1       1.057   3.595  20.384  0.00  0.00    +0.000 C 
ATOM     13  C   UNL     1       1.704   2.532  21.248  0.00  0.00    +0.000 C 
ATOM     14  C   UNL     1       2.140   3.963  21.376  0.00  0.00    +0.000 C 
ENDBRANCH  10  12
ENDBRANCH   3  10
BRANCH   1  15
ATOM     15  C   UNL     1       2.842   8.356  17.982  0.00  0.00    +0.000 C 
BRANCH  15  17
ATOM     16  N   UNL     1       0.869   9.801  17.771  0.00  0.00    +0.000 N 
ATOM     17  C   UNL     1       1.630   9.006  18.626  0.00  0.00    +0.000 C 
ATOM     18  O   UNL     1       1.380   8.775  19.808  0.00  0.00    +0.000 OA
ATOM     19  H   UNL     1       1.273   9.998  16.868  0.00  0.00    +0.000 HD
BRANCH  16  25
ATOM     20  C   UNL     1      -1.677  13.484  20.107  0.00  0.00    +0.000 C 
ATOM     21  C   UNL     1      -1.596  12.252  19.239  0.00  0.00    +0.000 A 
ATOM     22  C   UNL     1      -2.798  11.700  18.780  0.00  0.00    +0.000 A 
ATOM     23  C   UNL     1      -2.787  10.580  17.968  0.00  0.00    +0.000 A 
ATOM     24  C   UNL     1      -1.576   9.984  17.623  0.00  0.00    +0.000 A 
ATOM     25  C   UNL     1      -0.348  10.472  18.094  0.00  0.00    +0.000 A 
ATOM     26  C   UNL     1      -0.351  11.646  18.893  0.00  0.00    +0.000 A 
ATOM     27  C   UNL     1       0.904  12.293  19.428  0.00  0.00    +0.000 C 
ENDBRANCH  16  25
ENDBRANCH  15  17
ENDBRANCH   1  15
TORSDOF 5
ENDMDL
MODEL 4
REMARK VINA RESULT:      -8.4      2.475      4.253
REMARK  Name = 
REMARK  7 active torsions:
REMARK  status: ('A' for Active; 'I' for Inactive)
REMARK    1  A    between atoms: C_1  and  C_2
REMARK    2  A    between atoms: C_6  and  N_7
REMARK    3  A    between atoms: C_8  and  C_10
REMARK    4  A    between atoms: C_10  and  N_11
REMARK    5  A    between atoms: C_13  and  C_14
REMARK    6  A    between atoms: C_14  and  C_16
REMARK    7  A    between atoms: C_25  and  C_26
REMARK                            x       y       z     vdW  Elec       q    Type
REMARK                         _______ _______ _______ _____ _____    ______ ____
ROOT
ATOM      1  N   UNL     1       2.719   7.053  17.946  0.00  0.00    +0.000 N 
ATOM      2  C   UNL     1       1.702   6.242  18.405  0.00  0.00    +0.000 A 
ATOM      3  C   UNL     1       2.159   4.934  18.468  0.00  0.00    +0.000 A 
ATOM      4  C   UNL     1       3.535   4.978  18.062  0.00  0.00    +0.000 A 
ATOM      5  C   UNL     1       4.535   3.987  17.925  0.00  0.00    +0.000 A 
ATOM      6  C   UNL     1       5.829   4.339  17.534  0.00  0.00    +0.000 A 
ATOM      7  C   UNL     1       6.145   5.671  17.296  0.00  0.00    +0.000 A 
ATOM      8  C   UNL     1       5.180   6.674  17.428  0.00  0.00    +0.000 A 
ATOM      9  C   UNL     1       3.872   6.310  17.789  0.00  0.00    +0.000 A 
ENDROOT
BRANCH   3  10
ATOM     10  C   UNL     1       1.428   3.737  18.884  0.00  0.00    +0.000 C 
ATOM     11  O   UNL     1       1.098   2.851  18.104  0.00  0.00    +0.000 OA
BRANCH  10  12
ATOM     12  C   UNL     1       1.102   3.593  20.338  0.00  0.00    +0.000 C 
ATOM     13  C   UNL     1       1.895   2.631  21.199  0.00  0.00    +0.000 C 
ATOM     14  C   UNL     1       2.081   4.111  21.370  0.00  0.00    +0.000 C 
ENDBRANCH  10  12
ENDBRANCH   3  10
BRANCH   1  15
ATOM     15  C   UNL     1       2.584   8.497  17.782  0.00  0.00    +0.000 C 
BRANCH  15  17
ATOM     16  N   UNL     1       0.718  10.074  18.021  0.00  0.00    +0.000 N 
ATOM     17  C   UNL     1       1.523   9.134  18.661  0.00  0.00    +0.000 C 
ATOM     18  O   UNL     1       1.414   8.772  19.832  0.00  0.00    +0.000 OA
ATOM     19  H   UNL     1       1.012  10.358  17.099  0.00  0.00    +0.000 HD
BRANCH  16  25
ATOM     20  C   UNL     1      -4.147  11.428  18.009  0.00  0.00    +0.000 C 
ATOM     21  C   UNL     1      -2.751  11.448  18.582  0.00  0.00    +0.000 A 
ATOM     22  C   UNL     1      -2.519  12.257  19.702  0.00  0.00    +0.000 A 
ATOM     23  C   UNL     1      -1.264  12.305  20.281  0.00  0.00    +0.000 A 
ATOM     24  C   UNL     1      -0.219  11.563  19.736  0.00  0.00    +0.000 A 
ATOM     25  C   UNL     1      -0.389  10.772  18.589  0.00  0.00    +0.000 A 
ATOM     26  C   UNL     1      -1.685  10.687  18.015  0.00  0.00    +0.000 A 
ATOM     27  C   UNL     1      -2.007   9.841  16.807  0.00  0.00    +0.000 C 
ENDBRANCH  16  25
ENDBRANCH  15  17
ENDBRANCH   1  15
TORSDOF 5
ENDMDL
MODEL 5
REMARK VINA RESULT:      -8.3      3.591      8.328
REMARK  Name = 
REMARK  7 active torsions:
REMARK  status: ('A' for Active; 'I' for Inactive)
REMARK    1  A    between atoms: C_1  and  C_2
REMARK    2  A    between atoms: C_6  and  N_7
REMARK    3  A    between atoms: C_8  and  C_10
REMARK    4  A    between atoms: C_10  and  N_11
REMARK    5  A    between atoms: C_13  and  C_14
REMARK    6  A    between atoms: C_14  and  C_16
REMARK    7  A    between atoms: C_25  and  C_26
REMARK                            x       y       z     vdW  Elec       q    Type
REMARK                         _______ _______ _______ _____ _____    ______ ____
ROOT
ATOM      1  N   UNL     1       5.525   5.225  18.839  0.00  0.00    +0.000 N 
ATOM      2  C   UNL     1       5.098   4.082  19.482  0.00  0.00    +0.000 A 
ATOM      3  C   UNL     1       3.725   4.150  19.663  0.00  0.00    +0.000 A 
ATOM      4  C   UNL     1       3.308   5.384  19.059  0.00  0.00    +0.000 A 
ATOM      5  C   UNL     1       2.049   6.012  18.912  0.00  0.00    +0.000 A 
ATOM      6  C   UNL     1       1.942   7.225  18.229  0.00  0.00    +0.000 A 
ATOM      7  C   UNL     1       3.072   7.812  17.673  0.00  0.00    +0.000 A 
ATOM      8  C   UNL     1       4.329   7.213  17.797  0.00  0.00    +0.000 A 
ATOM      9  C   UNL     1       4.436   6.010  18.514  0.00  0.00    +0.000 A 
ENDROOT
BRANCH   3  10
ATOM     10  C   UNL     1       2.846   3.173  20.306  0.00  0.00    +0.000 C 
ATOM     11  O   UNL     1       2.599   3.185  21.507  0.00  0.00    +0.000 OA
BRANCH  10  12
ATOM     12  C   UNL     1       2.205   2.136  19.436  0.00  0.00    +0.000 C 
ATOM     13  C   UNL     1       0.942   2.468  18.670  0.00  0.00    +0.000 C 
ATOM     14  C   UNL     1       2.240   2.309  17.933  0.00  0.00    +0.000 C 
ENDBRANCH  10  12
ENDBRANCH   3  10
BRANCH   1  15
ATOM     15  C   UNL     1       6.916   5.470  18.472  0.00  0.00    +0.000 C 
BRANCH  15  17
ATOM     16  N   UNL     1       6.578   5.343  16.044  0.00  0.00    +0.000 N 
ATOM     17  C   UNL     1       7.324   4.890  17.129  0.00  0.00    +0.000 C 
ATOM     18  O   UNL     1       8.276   4.113  17.074  0.00  0.00    +0.000 OA
ATOM     19  H   UNL     1       5.749   5.876  16.264  0.00  0.00    +0.000 HD
BRANCH  16  25
ATOM     20  C   UNL     1       5.476   2.660  11.910  0.00  0.00    +0.000 C 
ATOM     21  C   UNL     1       6.268   3.704  12.660  0.00  0.00    +0.000 A 
ATOM     22  C   UNL     1       7.316   4.337  11.980  0.00  0.00    +0.000 A 
ATOM     23  C   UNL     1       8.067   5.313  12.610  0.00  0.00    +0.000 A 
ATOM     24  C   UNL     1       7.797   5.652  13.934  0.00  0.00    +0.000 A 
ATOM     25  C   UNL     1       6.787   5.015  14.672  0.00  0.00    +0.000 A 
ATOM     26  C   UNL     1       5.985   4.042  14.017  0.00  0.00    +0.000 A 
ATOM     27  C   UNL     1       4.845   3.315  14.688  0.00  0.00    +0.000 C 
ENDBRANCH  16  25
ENDBRANCH  15  17
ENDBRANCH   1  15
TORSDOF 5
ENDMDL
MODEL 6
REMARK VINA RESULT:      -8.3      1.799      3.622
REMARK  Name = 
REMARK  7 active torsions:
REMARK  status: ('A' for Active; 'I' for Inactive)
REMARK    1  A    between atoms: C_1  and  C_2
REMARK    2  A    between atoms: C_6  and  N_7
REMARK    3  A    between atoms: C_8  and  C_10
REMARK    4  A    between atoms: C_10  and  N_11
REMARK    5  A    between atoms: C_13  and  C_14
REMARK    6  A    between atoms: C_14  and  C_16
REMARK    7  A    between atoms: C_25  and  C_26
REMARK                            x       y       z     vdW  Elec       q    Type
REMARK                         _______ _______ _______ _____ _____    ______ ____
ROOT
ATOM      1  N   UNL     1       2.799   6.947  17.884  0.00  0.00    +0.000 N 
ATOM      2  C   UNL     1       1.916   6.150  18.582  0.00  0.00    +0.000 A 
ATOM      3  C   UNL     1       2.263   4.820  18.398  0.00  0.00    +0.000 A 
ATOM      4  C   UNL     1       3.440   4.830  17.578  0.00  0.00    +0.000 A 
ATOM      5  C   UNL     1       4.264   3.806  17.055  0.00  0.00    +0.000 A 
ATOM      6  C   UNL     1       5.393   4.126  16.298  0.00  0.00    +0.000 A 
ATOM      7  C   UNL     1       5.725   5.456  16.072  0.00  0.00    +0.000 A 
ATOM      8  C   UNL     1       4.934   6.491  16.580  0.00  0.00    +0.000 A 
ATOM      9  C   UNL     1       3.780   6.163  17.312  0.00  0.00    +0.000 A 
ENDROOT
BRANCH   3  10
ATOM     10  C   UNL     1       1.605   3.628  18.936  0.00  0.00    +0.000 C 
ATOM     11  O   UNL     1       1.448   2.602  18.285  0.00  0.00    +0.000 OA
BRANCH  10  12
ATOM     12  C   UNL     1       1.136   3.676  20.357  0.00  0.00    +0.000 C 
ATOM     13  C   UNL     1       1.525   2.573  21.319  0.00  0.00    +0.000 C 
ATOM     14  C   UNL     1       2.140   3.935  21.459  0.00  0.00    +0.000 C 
ENDBRANCH  10  12
ENDBRANCH   3  10
BRANCH   1  15
ATOM     15  C   UNL     1       2.735   8.405  17.880  0.00  0.00    +0.000 C 
BRANCH  15  17
ATOM     16  N   UNL     1       1.746   9.097  20.017  0.00  0.00    +0.000 N 
ATOM     17  C   UNL     1       1.557   8.986  18.642  0.00  0.00    +0.000 C 
ATOM     18  O   UNL     1       0.557   9.344  18.022  0.00  0.00    +0.000 OA
ATOM     19  H   UNL     1       2.565   8.642  20.393  0.00  0.00    +0.000 HD
BRANCH  16  25
ATOM     20  C   UNL     1      -0.533  13.073  22.137  0.00  0.00    +0.000 C 
ATOM     21  C   UNL     1      -0.267  11.594  22.004  0.00  0.00    +0.000 A 
ATOM     22  C   UNL     1      -0.907  10.735  22.907  0.00  0.00    +0.000 A 
ATOM     23  C   UNL     1      -0.714   9.367  22.825  0.00  0.00    +0.000 A 
ATOM     24  C   UNL     1       0.137   8.842  21.856  0.00  0.00    +0.000 A 
ATOM     25  C   UNL     1       0.835   9.664  20.958  0.00  0.00    +0.000 A 
ATOM     26  C   UNL     1       0.609  11.065  21.010  0.00  0.00    +0.000 A 
ATOM     27  C   UNL     1       1.267  12.051  20.074  0.00  0.00    +0.000 C 
ENDBRANCH  16  25
ENDBRANCH  15  17
ENDBRANCH   1  15
TORSDOF 5
ENDMDL
MODEL 7
REMARK VINA RESULT:      -8.2      2.187      3.920
REMARK  Name = 
REMARK  7 active torsions:
REMARK  status: ('A' for Active; 'I' for Inactive)
REMARK    1  A    between atoms: C_1  and  C_2
REMARK    2  A    between atoms: C_6  and  N_7
REMARK    3  A    between atoms: C_8  and  C_10
REMARK    4  A    between atoms: C_10  and  N_11
REMARK    5  A    between atoms: C_13  and  C_14
REMARK    6  A    between atoms: C_14  and  C_16
REMARK    7  A    between atoms: C_25  and  C_26
REMARK                            x       y       z     vdW  Elec       q    Type
REMARK                         _______ _______ _______ _____ _____    ______ ____
ROOT
ATOM      1  N   UNL     1       4.524   4.063  17.596  0.00  0.00    +0.000 N 
ATOM      2  C   UNL     1       4.653   3.904  16.233  0.00  0.00    +0.000 A 
ATOM      3  C   UNL     1       5.810   4.542  15.810  0.00  0.00    +0.000 A 
ATOM      4  C   UNL     1       6.422   5.074  16.995  0.00  0.00    +0.000 A 
ATOM      5  C   UNL     1       7.607   5.813  17.223  0.00  0.00    +0.000 A 
ATOM      6  C   UNL     1       7.974   6.172  18.522  0.00  0.00    +0.000 A 
ATOM      7  C   UNL     1       7.185   5.788  19.599  0.00  0.00    +0.000 A 
ATOM      8  C   UNL     1       6.011   5.054  19.406  0.00  0.00    +0.000 A 
ATOM      9  C   UNL     1       5.629   4.724  18.095  0.00  0.00    +0.000 A 
ENDROOT
BRANCH   3  10
ATOM     10  C   UNL     1       6.344   4.646  14.451  0.00  0.00    +0.000 C 
ATOM     11  O   UNL     1       7.007   5.602  14.066  0.00  0.00    +0.000 OA
BRANCH  10  12
ATOM     12  C   UNL     1       6.081   3.509  13.513  0.00  0.00    +0.000 C 
ATOM     13  C   UNL     1       5.103   3.682  12.370  0.00  0.00    +0.000 C 
ATOM     14  C   UNL     1       6.574   3.598  12.086  0.00  0.00    +0.000 C 
ENDBRANCH  10  12
ENDBRANCH   3  10
BRANCH   1  15
ATOM     15  C   UNL     1       3.425   3.497  18.371  0.00  0.00    +0.000 C 
BRANCH  15  17
ATOM     16  N   UNL     1       2.941   5.763  19.180  0.00  0.00    +0.000 N 
ATOM     17  C   UNL     1       2.412   4.514  18.864  0.00  0.00    +0.000 C 
ATOM     18  O   UNL     1       1.223   4.201  18.921  0.00  0.00    +0.000 OA
ATOM     19  H   UNL     1       3.948   5.827  19.207  0.00  0.00    +0.000 HD
BRANCH  16  25
ATOM     20  C   UNL     1       1.311  10.488  18.461  0.00  0.00    +0.000 C 
ATOM     21  C   UNL     1       1.426   9.217  19.267  0.00  0.00    +0.000 A 
ATOM     22  C   UNL     1       0.833   9.197  20.536  0.00  0.00    +0.000 A 
ATOM     23  C   UNL     1       0.892   8.055  21.315  0.00  0.00    +0.000 A 
ATOM     24  C   UNL     1       1.563   6.928  20.847  0.00  0.00    +0.000 A 
ATOM     25  C   UNL     1       2.211   6.914  19.602  0.00  0.00    +0.000 A 
ATOM     26  C   UNL     1       2.118   8.068  18.780  0.00  0.00    +0.000 A 
ATOM     27  C   UNL     1       2.737   8.165  17.406  0.00  0.00    +0.000 C 
ENDBRANCH  16  25
ENDBRANCH  15  17
ENDBRANCH   1  15
TORSDOF 5
ENDMDL
MODEL 8
REMARK VINA RESULT:      -8.1      3.462      8.225
REMARK  Name = 
REMARK  7 active torsions:
REMARK  status: ('A' for Active; 'I' for Inactive)
REMARK    1  A    between atoms: C_1  and  C_2
REMARK    2  A    between atoms: C_6  and  N_7
REMARK    3  A    between atoms: C_8  and  C_10
REMARK    4  A    between atoms: C_10  and  N_11
REMARK    5  A    between atoms: C_13  and  C_14
REMARK    6  A    between atoms: C_14  and  C_16
REMARK    7  A    between atoms: C_25  and  C_26
REMARK                            x       y       z     vdW  Elec       q    Type
REMARK                         _______ _______ _______ _____ _____    ______ ____
ROOT
ATOM      1  N   UNL     1       5.247   5.633  18.464  0.00  0.00    +0.000 N 
ATOM      2  C   UNL     1       5.489   4.281  18.586  0.00  0.00    +0.000 A 
ATOM      3  C   UNL     1       4.485   3.710  19.354  0.00  0.00    +0.000 A 
ATOM      4  C   UNL     1       3.576   4.775  19.670  0.00  0.00    +0.000 A 
ATOM      5  C   UNL     1       2.371   4.831  20.409  0.00  0.00    +0.000 A 
ATOM      6  C   UNL     1       1.668   6.032  20.521  0.00  0.00    +0.000 A 
ATOM      7  C   UNL     1       2.141   7.176  19.889  0.00  0.00    +0.000 A 
ATOM      8  C   UNL     1       3.326   7.152  19.149  0.00  0.00    +0.000 A 
ATOM      9  C   UNL     1       4.047   5.948  19.067  0.00  0.00    +0.000 A 
ENDROOT
BRANCH   3  10
ATOM     10  C   UNL     1       4.334   2.310  19.754  0.00  0.00    +0.000 C 
ATOM     11  O   UNL     1       4.883   1.835  20.742  0.00  0.00    +0.000 OA
BRANCH  10  12
ATOM     12  C   UNL     1       3.442   1.442  18.922  0.00  0.00    +0.000 C 
ATOM     13  C   UNL     1       1.943   1.655  18.947  0.00  0.00    +0.000 C 
ATOM     14  C   UNL     1       2.730   2.042  17.729  0.00  0.00    +0.000 C 
ENDBRANCH  10  12
ENDBRANCH   3  10
BRANCH   1  15
ATOM     15  C   UNL     1       6.101   6.535  17.698  0.00  0.00    +0.000 C 
BRANCH  15  17
ATOM     16  N   UNL     1       6.910   5.443  15.654  0.00  0.00    +0.000 N 
ATOM     17  C   UNL     1       6.012   6.361  16.192  0.00  0.00    +0.000 C 
ATOM     18  O   UNL     1       5.160   6.988  15.563  0.00  0.00    +0.000 OA
ATOM     19  H   UNL     1       7.631   5.107  16.275  0.00  0.00    +0.000 HD
BRANCH  16  25
ATOM     20  C   UNL     1       5.497   2.506  11.797  0.00  0.00    +0.000 C 
ATOM     21  C   UNL     1       6.327   3.607  12.410  0.00  0.00    +0.000 A 
ATOM     22  C   UNL     1       7.291   4.222  11.600  0.00  0.00    +0.000 A 
ATOM     23  C   UNL     1       8.072   5.248  12.101  0.00  0.00    +0.000 A 
ATOM     24  C   UNL     1       7.918   5.656  13.423  0.00  0.00    +0.000 A 
ATOM     25  C   UNL     1       6.999   5.041  14.288  0.00  0.00    +0.000 A 
ATOM     26  C   UNL     1       6.165   4.016  13.767  0.00  0.00    +0.000 A 
ATOM     27  C   UNL     1       5.111   3.305  14.582  0.00  0.00    +0.000 C 
ENDBRANCH  16  25
ENDBRANCH  15  17
ENDBRANCH   1  15
TORSDOF 5
ENDMDL
MODEL 9
REMARK VINA RESULT:      -8.0      1.902      3.926
REMARK  Name = 
REMARK  7 active torsions:
REMARK  status: ('A' for Active; 'I' for Inactive)
REMARK    1  A    between atoms: C_1  and  C_2
REMARK    2  A    between atoms: C_6  and  N_7
REMARK    3  A    between atoms: C_8  and  C_10
REMARK    4  A    between atoms: C_10  and  N_11
REMARK    5  A    between atoms: C_13  and  C_14
REMARK    6  A    between atoms: C_14  and  C_16
REMARK    7  A    between atoms: C_25  and  C_26
REMARK                            x       y       z     vdW  Elec       q    Type
REMARK                         _______ _______ _______ _____ _____    ______ ____
ROOT
ATOM      1  N   UNL     1       2.874   6.943  17.867  0.00  0.00    +0.000 N 
ATOM      2  C   UNL     1       1.909   6.235  18.552  0.00  0.00    +0.000 A 
ATOM      3  C   UNL     1       2.146   4.878  18.395  0.00  0.00    +0.000 A 
ATOM      4  C   UNL     1       3.340   4.775  17.606  0.00  0.00    +0.000 A 
ATOM      5  C   UNL     1       4.086   3.676  17.120  0.00  0.00    +0.000 A 
ATOM      6  C   UNL     1       5.257   3.887  16.389  0.00  0.00    +0.000 A 
ATOM      7  C   UNL     1       5.707   5.180  16.153  0.00  0.00    +0.000 A 
ATOM      8  C   UNL     1       4.994   6.286  16.625  0.00  0.00    +0.000 A 
ATOM      9  C   UNL     1       3.799   6.069  17.331  0.00  0.00    +0.000 A 
ENDROOT
BRANCH   3  10
ATOM     10  C   UNL     1       1.376   3.755  18.932  0.00  0.00    +0.000 C 
ATOM     11  O   UNL     1       0.950   2.842  18.234  0.00  0.00    +0.000 OA
BRANCH  10  12
ATOM     12  C   UNL     1       1.132   3.724  20.409  0.00  0.00    +0.000 C 
ATOM     13  C   UNL     1       1.896   2.749  21.281  0.00  0.00    +0.000 C 
ATOM     14  C   UNL     1       2.212   4.216  21.348  0.00  0.00    +0.000 C 
ENDBRANCH  10  12
ENDBRANCH   3  10
BRANCH   1  15
ATOM     15  C   UNL     1       2.935   8.401  17.841  0.00  0.00    +0.000 C 
BRANCH  15  17
ATOM     16  N   UNL     1       1.719   9.852  19.403  0.00  0.00    +0.000 N 
ATOM     17  C   UNL     1       1.643   9.092  18.238  0.00  0.00    +0.000 C 
ATOM     18  O   UNL     1       0.652   8.976  17.518  0.00  0.00    +0.000 OA
ATOM     19  H   UNL     1       2.559   9.744  19.952  0.00  0.00    +0.000 HD
BRANCH  16  25
ATOM     20  C   UNL     1      -1.417  11.028  23.183  0.00  0.00    +0.000 C 
ATOM     21  C   UNL     1      -0.858  11.221  21.794  0.00  0.00    +0.000 A 
ATOM     22  C   UNL     1      -1.447  12.204  20.988  0.00  0.00    +0.000 A 
ATOM     23  C   UNL     1      -0.968  12.439  19.711  0.00  0.00    +0.000 A 
ATOM     24  C   UNL     1       0.087  11.678  19.215  0.00  0.00    +0.000 A 
ATOM     25  C   UNL     1       0.680  10.651  19.966  0.00  0.00    +0.000 A 
ATOM     26  C   UNL     1       0.222  10.435  21.292  0.00  0.00    +0.000 A 
ATOM     27  C   UNL     1       0.803   9.390  22.215  0.00  0.00    +0.000 C 
ENDBRANCH  16  25
ENDBRANCH  15  17
ENDBRANCH   1  15
TORSDOF 5
ENDMDL
