MODEL 1
REMARK VINA RESULT:      -9.7      0.000      0.000
REMARK  Name = 
REMARK  6 active torsions:
REMARK  status: ('A' for Active; 'I' for Inactive)
REMARK    1  A    between atoms: C_1  and  N_2
REMARK    2  A    between atoms: N_2  and  C_3
REMARK    3  A    between atoms: N_7  and  C_8
REMARK    4  A    between atoms: C_8  and  C_9
REMARK    5  A    between atoms: C_12  and  N_13
REMARK    6  A    between atoms: C_14  and  C_16
REMARK                            x       y       z     vdW  Elec       q    Type
REMARK                         _______ _______ _______ _____ _____    ______ ____
ROOT
ATOM      1  C   UNL     1       1.613   8.950  18.822  0.00  0.00    +0.000 A 
ATOM      2  C   UNL     1       1.491   8.708  20.196  0.00  0.00    +0.000 A 
ATOM      3  C   UNL     1       0.764   9.583  21.007  0.00  0.00    +0.000 A 
ATOM      4  C   UNL     1       0.139  10.707  20.467  0.00  0.00    +0.000 A 
ATOM      5  C   UNL     1       0.212  10.922  19.085  0.00  0.00    +0.000 A 
ATOM      6  C   UNL     1       0.951  10.053  18.272  0.00  0.00    +0.000 A 
ENDROOT
BRANCH   4   7
ATOM      7  N   UNL     1      -0.585  11.638  21.249  0.00  0.00    +0.000 N 
ATOM      8  C   UNL     1      -0.845  11.515  22.603  0.00  0.00    +0.000 C 
ATOM      9  O   UNL     1      -0.393  10.652  23.347  0.00  0.00    +0.000 OA
ATOM     10  H   UNL     1      -0.905  12.462  20.759  0.00  0.00    +0.000 HD
BRANCH   8  11
ATOM     11  C   UNL     1      -1.771  12.516  23.207  0.00  0.00    +0.000 A 
ATOM     12  C   UNL     1      -1.242  13.796  23.472  0.00  0.00    +0.000 A 
ATOM     13  C   UNL     1      -2.030  14.786  24.060  0.00  0.00    +0.000 A 
ATOM     14  C   UNL     1      -3.352  14.504  24.372  0.00  0.00    +0.000 A 
ATOM     15  F   UNL     1      -4.108  15.449  24.941  0.00  0.00    +0.000 F 
ATOM     16  C   UNL     1      -3.902  13.254  24.097  0.00  0.00    +0.000 A 
ATOM     17  C   UNL     1      -3.115  12.258  23.509  0.00  0.00    +0.000 A 
ENDBRANCH   8  11
ENDBRANCH   4   7
BRANCH   1  18
ATOM     18  C   UNL     1       2.460   8.038  17.963  0.00  0.00    +0.000 C 
BRANCH  18  25
ATOM     19  C   UNL     1       7.421   4.599  16.702  0.00  0.00    +0.000 C 
ATOM     20  N   UNL     1       6.416   5.616  16.930  0.00  0.00    +0.000 N 
ATOM     21  C   UNL     1       6.820   6.929  17.391  0.00  0.00    +0.000 C 
ATOM     22  C   UNL     1       5.168   5.182  17.358  0.00  0.00    +0.000 A 
ATOM     23  N   UNL     1       4.215   6.097  17.577  0.00  0.00    +0.000 NA
ATOM     24  C   UNL     1       2.982   5.692  17.940  0.00  0.00    +0.000 A 
ATOM     25  N   UNL     1       1.961   6.668  18.046  0.00  0.00    +0.000 N 
ATOM     26  C   UNL     1       2.682   4.332  18.130  0.00  0.00    +0.000 A 
ATOM     27  C   UNL     1       1.425   3.798  18.524  0.00  0.00    +0.000 A 
ATOM     28  C   UNL     1       1.251   2.423  18.693  0.00  0.00    +0.000 A 
ATOM     29  C   UNL     1       2.320   1.568  18.464  0.00  0.00    +0.000 A 
ATOM     30  C   UNL     1       3.549   2.094  18.068  0.00  0.00    +0.000 A 
ATOM     31  C   UNL     1       3.748   3.459  17.898  0.00  0.00    +0.000 A 
ATOM     32  N   UNL     1       4.956   3.870  17.510  0.00  0.00    +0.000 NA
ATOM     33  H   UNL     1       1.416   6.521  18.887  0.00  0.00    +0.000 HD
ENDBRANCH  18  25
ENDBRANCH   1  18
TORSDOF 4
ENDMDL
MODEL 2
REMARK VINA RESULT:      -9.5      0.404      1.259
REMARK  Name = 
REMARK  6 active torsions:
REMARK  status: ('A' for Active; 'I' for Inactive)
REMARK    1  A    between atoms: C_1  and  N_2
REMARK    2  A    between atoms: N_2  and  C_3
REMARK    3  A    between atoms: N_7  and  C_8
REMARK    4  A    between atoms: C_8  and  C_9
REMARK    5  A    between atoms: C_12  and  N_13
REMARK    6  A    between atoms: C_14  and  C_16
REMARK                            x       y       z     vdW  Elec       q    Type
REMARK                         _______ _______ _______ _____ _____    ______ ____
ROOT
ATOM      1  C   UNL     1       1.874   9.204  18.650  0.00  0.00    +0.000 A 
ATOM      2  C   UNL     1       1.727  10.539  18.256  0.00  0.00    +0.000 A 
ATOM      3  C   UNL     1       1.003  11.435  19.046  0.00  0.00    +0.000 A 
ATOM      4  C   UNL     1       0.421  11.023  20.245  0.00  0.00    +0.000 A 
ATOM      5  C   UNL     1       0.613   9.703  20.671  0.00  0.00    +0.000 A 
ATOM      6  C   UNL     1       1.329   8.799  19.874  0.00  0.00    +0.000 A 
ENDROOT
BRANCH   4   7
ATOM      7  N   UNL     1      -0.344  11.884  21.068  0.00  0.00    +0.000 N 
ATOM      8  C   UNL     1      -0.633  11.667  22.404  0.00  0.00    +0.000 C 
ATOM      9  O   UNL     1      -0.178  10.766  23.102  0.00  0.00    +0.000 OA
ATOM     10  H   UNL     1      -0.672  12.731  20.625  0.00  0.00    +0.000 HD
BRANCH   8  11
ATOM     11  C   UNL     1      -1.596  12.605  23.049  0.00  0.00    +0.000 A 
ATOM     12  C   UNL     1      -2.904  12.125  23.269  0.00  0.00    +0.000 A 
ATOM     13  C   UNL     1      -3.877  12.944  23.843  0.00  0.00    +0.000 A 
ATOM     14  C   UNL     1      -3.542  14.239  24.212  0.00  0.00    +0.000 A 
ATOM     15  F   UNL     1      -4.474  15.028  24.757  0.00  0.00    +0.000 F 
ATOM     16  C   UNL     1      -2.251  14.725  24.026  0.00  0.00    +0.000 A 
ATOM     17  C   UNL     1      -1.272  13.909  23.449  0.00  0.00    +0.000 A 
ENDBRANCH   8  11
ENDBRANCH   4   7
BRANCH   1  18
ATOM     18  C   UNL     1       2.599   8.223  17.756  0.00  0.00    +0.000 C 
BRANCH  18  25
ATOM     19  C   UNL     1       7.497   4.546  17.040  0.00  0.00    +0.000 C 
ATOM     20  N   UNL     1       6.516   5.607  17.129  0.00  0.00    +0.000 N 
ATOM     21  C   UNL     1       6.942   6.945  17.487  0.00  0.00    +0.000 C 
ATOM     22  C   UNL     1       5.238   5.249  17.536  0.00  0.00    +0.000 A 
ATOM     23  N   UNL     1       4.305   6.207  17.628  0.00  0.00    +0.000 NA
ATOM     24  C   UNL     1       3.047   5.871  17.969  0.00  0.00    +0.000 A 
ATOM     25  N   UNL     1       2.053   6.882  17.939  0.00  0.00    +0.000 N 
ATOM     26  C   UNL     1       2.695   4.544  18.268  0.00  0.00    +0.000 A 
ATOM     27  C   UNL     1       1.405   4.083  18.651  0.00  0.00    +0.000 A 
ATOM     28  C   UNL     1       1.181   2.736  18.936  0.00  0.00    +0.000 A 
ATOM     29  C   UNL     1       2.230   1.833  18.834  0.00  0.00    +0.000 A 
ATOM     30  C   UNL     1       3.492   2.286  18.449  0.00  0.00    +0.000 A 
ATOM     31  C   UNL     1       3.742   3.624  18.165  0.00  0.00    +0.000 A 
ATOM     32  N   UNL     1       4.978   3.964  17.798  0.00  0.00    +0.000 NA
ATOM     33  H   UNL     1       1.468   6.828  18.765  0.00  0.00    +0.000 HD
ENDBRANCH  18  25
ENDBRANCH   1  18
TORSDOF 4
ENDMDL
MODEL 3
REMARK VINA RESULT:      -9.5      4.428     10.945
REMARK  Name = 
REMARK  6 active torsions:
REMARK  status: ('A' for Active; 'I' for Inactive)
REMARK    1  A    between atoms: C_1  and  N_2
REMARK    2  A    between atoms: N_2  and  C_3
REMARK    3  A    between atoms: N_7  and  C_8
REMARK    4  A    between atoms: C_8  and  C_9
REMARK    5  A    between atoms: C_12  and  N_13
REMARK    6  A    between atoms: C_14  and  C_16
REMARK                            x       y       z     vdW  Elec       q    Type
REMARK                         _______ _______ _______ _____ _____    ______ ____
ROOT
ATOM      1  C   UNL     1      -0.314  11.630  18.713  0.00  0.00    +0.000 A 
ATOM      2  C   UNL     1       1.077  11.762  18.796  0.00  0.00    +0.000 A 
ATOM      3  C   UNL     1       1.911  10.705  18.420  0.00  0.00    +0.000 A 
ATOM      4  C   UNL     1       1.378   9.506  17.946  0.00  0.00    +0.000 A 
ATOM      5  C   UNL     1      -0.011   9.392  17.809  0.00  0.00    +0.000 A 
ATOM      6  C   UNL     1      -0.849  10.444  18.197  0.00  0.00    +0.000 A 
ENDROOT
BRANCH   4   7
ATOM      7  N   UNL     1       2.178   8.399  17.578  0.00  0.00    +0.000 N 
ATOM      8  C   UNL     1       2.597   7.394  18.432  0.00  0.00    +0.000 C 
ATOM      9  O   UNL     1       2.245   7.248  19.599  0.00  0.00    +0.000 OA
ATOM     10  H   UNL     1       2.428   8.349  16.600  0.00  0.00    +0.000 HD
BRANCH   8  11
ATOM     11  C   UNL     1       3.574   6.407  17.889  0.00  0.00    +0.000 A 
ATOM     12  C   UNL     1       4.592   6.912  17.054  0.00  0.00    +0.000 A 
ATOM     13  C   UNL     1       5.535   6.057  16.481  0.00  0.00    +0.000 A 
ATOM     14  C   UNL     1       5.470   4.697  16.753  0.00  0.00    +0.000 A 
ATOM     15  F   UNL     1       6.368   3.875  16.201  0.00  0.00    +0.000 F 
ATOM     16  C   UNL     1       4.488   4.181  17.594  0.00  0.00    +0.000 A 
ATOM     17  C   UNL     1       3.540   5.034  18.169  0.00  0.00    +0.000 A 
ENDBRANCH   8  11
ENDBRANCH   4   7
BRANCH   1  18
ATOM     18  C   UNL     1      -1.212  12.751  19.189  0.00  0.00    +0.000 C 
BRANCH  18  25
ATOM     19  C   UNL     1      -4.131  12.598  24.619  0.00  0.00    +0.000 C 
ATOM     20  N   UNL     1      -3.220  12.651  23.495  0.00  0.00    +0.000 N 
ATOM     21  C   UNL     1      -1.988  13.406  23.608  0.00  0.00    +0.000 C 
ATOM     22  C   UNL     1      -3.783  12.599  22.227  0.00  0.00    +0.000 A 
ATOM     23  N   UNL     1      -2.967  12.644  21.164  0.00  0.00    +0.000 NA
ATOM     24  C   UNL     1      -3.490  12.541  19.927  0.00  0.00    +0.000 A 
ATOM     25  N   UNL     1      -2.598  12.468  18.828  0.00  0.00    +0.000 N 
ATOM     26  C   UNL     1      -4.875  12.422  19.721  0.00  0.00    +0.000 A 
ATOM     27  C   UNL     1      -5.531  12.321  18.464  0.00  0.00    +0.000 A 
ATOM     28  C   UNL     1      -6.921  12.220  18.387  0.00  0.00    +0.000 A 
ATOM     29  C   UNL     1      -7.670  12.209  19.555  0.00  0.00    +0.000 A 
ATOM     30  C   UNL     1      -7.023  12.300  20.788  0.00  0.00    +0.000 A 
ATOM     31  C   UNL     1      -5.641  12.406  20.890  0.00  0.00    +0.000 A 
ATOM     32  N   UNL     1      -5.110  12.480  22.111  0.00  0.00    +0.000 NA
ATOM     33  H   UNL     1      -2.916  13.065  18.074  0.00  0.00    +0.000 HD
ENDBRANCH  18  25
ENDBRANCH   1  18
TORSDOF 4
ENDMDL
MODEL 4
REMARK VINA RESULT:      -9.4      0.775      1.187
REMARK  Name = 
REMARK  6 active torsions:
REMARK  status: ('A' for Active; 'I' for Inactive)
REMARK    1  A    between atoms: C_1  and  N_2
REMARK    2  A    between atoms: N_2  and  C_3
REMARK    3  A    between atoms: N_7  and  C_8
REMARK    4  A    between atoms: C_8  and  C_9
REMARK    5  A    between atoms: C_12  and  N_13
REMARK    6  A    between atoms: C_14  and  C_16
REMARK                            x       y       z     vdW  Elec       q    Type
REMARK                         _______ _______ _______ _____ _____    ______ ____
ROOT
ATOM      1  C   UNL     1       1.613   9.012  18.838  0.00  0.00    +0.000 A 
ATOM      2  C   UNL     1       1.322   8.677  20.166  0.00  0.00    +0.000 A 
ATOM      3  C   UNL     1       0.576   9.545  20.968  0.00  0.00    +0.000 A 
ATOM      4  C   UNL     1       0.099  10.754  20.462  0.00  0.00    +0.000 A 
ATOM      5  C   UNL     1       0.340  11.067  19.119  0.00  0.00    +0.000 A 
ATOM      6  C   UNL     1       1.098  10.205  18.316  0.00  0.00    +0.000 A 
ENDROOT
BRANCH   4   7
ATOM      7  N   UNL     1      -0.638  11.679  21.240  0.00  0.00    +0.000 N 
ATOM      8  C   UNL     1      -0.116  12.805  21.852  0.00  0.00    +0.000 C 
ATOM      9  O   UNL     1       1.026  13.233  21.719  0.00  0.00    +0.000 OA
ATOM     10  H   UNL     1      -1.628  11.491  21.317  0.00  0.00    +0.000 HD
BRANCH   8  11
ATOM     11  C   UNL     1      -1.020  13.558  22.768  0.00  0.00    +0.000 A 
ATOM     12  C   UNL     1      -2.222  12.922  23.144  0.00  0.00    +0.000 A 
ATOM     13  C   UNL     1      -3.139  13.563  23.977  0.00  0.00    +0.000 A 
ATOM     14  C   UNL     1      -2.851  14.836  24.448  0.00  0.00    +0.000 A 
ATOM     15  F   UNL     1      -3.731  15.456  25.242  0.00  0.00    +0.000 F 
ATOM     16  C   UNL     1      -1.660  15.473  24.110  0.00  0.00    +0.000 A 
ATOM     17  C   UNL     1      -0.738  14.835  23.274  0.00  0.00    +0.000 A 
ENDBRANCH   8  11
ENDBRANCH   4   7
BRANCH   1  18
ATOM     18  C   UNL     1       2.480   8.102  17.998  0.00  0.00    +0.000 C 
BRANCH  18  25
ATOM     19  C   UNL     1       7.414   4.668  16.620  0.00  0.00    +0.000 C 
ATOM     20  N   UNL     1       6.415   5.684  16.877  0.00  0.00    +0.000 N 
ATOM     21  C   UNL     1       6.829   6.987  17.357  0.00  0.00    +0.000 C 
ATOM     22  C   UNL     1       5.170   5.247  17.311  0.00  0.00    +0.000 A 
ATOM     23  N   UNL     1       4.223   6.162  17.557  0.00  0.00    +0.000 NA
ATOM     24  C   UNL     1       2.993   5.755  17.927  0.00  0.00    +0.000 A 
ATOM     25  N   UNL     1       1.977   6.733  18.062  0.00  0.00    +0.000 N 
ATOM     26  C   UNL     1       2.690   4.393  18.097  0.00  0.00    +0.000 A 
ATOM     27  C   UNL     1       1.435   3.856  18.496  0.00  0.00    +0.000 A 
ATOM     28  C   UNL     1       1.258   2.480  18.642  0.00  0.00    +0.000 A 
ATOM     29  C   UNL     1       2.320   1.625  18.386  0.00  0.00    +0.000 A 
ATOM     30  C   UNL     1       3.548   2.153  17.986  0.00  0.00    +0.000 A 
ATOM     31  C   UNL     1       3.750   3.520  17.837  0.00  0.00    +0.000 A 
ATOM     32  N   UNL     1       4.955   3.934  17.443  0.00  0.00    +0.000 NA
ATOM     33  H   UNL     1       1.440   6.573  18.906  0.00  0.00    +0.000 HD
ENDBRANCH  18  25
ENDBRANCH   1  18
TORSDOF 4
ENDMDL
MODEL 5
REMARK VINA RESULT:      -9.4      4.464     10.984
REMARK  Name = 
REMARK  6 active torsions:
REMARK  status: ('A' for Active; 'I' for Inactive)
REMARK    1  A    between atoms: C_1  and  N_2
REMARK    2  A    between atoms: N_2  and  C_3
REMARK    3  A    between atoms: N_7  and  C_8
REMARK    4  A    between atoms: C_8  and  C_9
REMARK    5  A    between atoms: C_12  and  N_13
REMARK    6  A    between atoms: C_14  and  C_16
REMARK                            x       y       z     vdW  Elec       q    Type
REMARK                         _______ _______ _______ _____ _____    ______ ____
ROOT
ATOM      1  C   UNL     1      -0.211  11.613  18.764  0.00  0.00    +0.000 A 
ATOM      2  C   UNL     1      -0.767  10.398  18.344  0.00  0.00    +0.000 A 
ATOM      3  C   UNL     1       0.058   9.349  17.930  0.00  0.00    +0.000 A 
ATOM      4  C   UNL     1       1.446   9.484  17.935  0.00  0.00    +0.000 A 
ATOM      5  C   UNL     1       2.007  10.677  18.409  0.00  0.00    +0.000 A 
ATOM      6  C   UNL     1       1.182  11.735  18.812  0.00  0.00    +0.000 A 
ENDROOT
BRANCH   4   7
ATOM      7  N   UNL     1       2.323   8.462  17.501  0.00  0.00    +0.000 N 
ATOM      8  C   UNL     1       2.735   7.383  18.264  0.00  0.00    +0.000 C 
ATOM      9  O   UNL     1       2.316   7.088  19.379  0.00  0.00    +0.000 OA
ATOM     10  H   UNL     1       2.638   8.537  16.544  0.00  0.00    +0.000 HD
BRANCH   8  11
ATOM     11  C   UNL     1       3.794   6.509  17.683  0.00  0.00    +0.000 A 
ATOM     12  C   UNL     1       3.592   5.116  17.772  0.00  0.00    +0.000 A 
ATOM     13  C   UNL     1       4.544   4.223  17.279  0.00  0.00    +0.000 A 
ATOM     14  C   UNL     1       5.694   4.721  16.682  0.00  0.00    +0.000 A 
ATOM     15  F   UNL     1       6.611   3.868  16.213  0.00  0.00    +0.000 F 
ATOM     16  C   UNL     1       5.903   6.092  16.562  0.00  0.00    +0.000 A 
ATOM     17  C   UNL     1       4.952   6.991  17.057  0.00  0.00    +0.000 A 
ENDBRANCH   8  11
ENDBRANCH   4   7
BRANCH   1  18
ATOM     18  C   UNL     1      -1.111  12.768  19.143  0.00  0.00    +0.000 C 
BRANCH  18  25
ATOM     19  C   UNL     1      -4.090  12.586  24.539  0.00  0.00    +0.000 C 
ATOM     20  N   UNL     1      -3.167  12.648  23.426  0.00  0.00    +0.000 N 
ATOM     21  C   UNL     1      -1.944  13.415  23.553  0.00  0.00    +0.000 C 
ATOM     22  C   UNL     1      -3.714  12.591  22.151  0.00  0.00    +0.000 A 
ATOM     23  N   UNL     1      -2.887  12.644  21.098  0.00  0.00    +0.000 NA
ATOM     24  C   UNL     1      -3.395  12.536  19.855  0.00  0.00    +0.000 A 
ATOM     25  N   UNL     1      -2.490  12.472  18.766  0.00  0.00    +0.000 N 
ATOM     26  C   UNL     1      -4.776  12.405  19.633  0.00  0.00    +0.000 A 
ATOM     27  C   UNL     1      -5.417  12.298  18.369  0.00  0.00    +0.000 A 
ATOM     28  C   UNL     1      -6.804  12.184  18.275  0.00  0.00    +0.000 A 
ATOM     29  C   UNL     1      -7.567  12.166  19.435  0.00  0.00    +0.000 A 
ATOM     30  C   UNL     1      -6.935  12.262  20.675  0.00  0.00    +0.000 A 
ATOM     31  C   UNL     1      -5.556  12.381  20.793  0.00  0.00    +0.000 A 
ATOM     32  N   UNL     1      -5.039  12.460  22.020  0.00  0.00    +0.000 NA
ATOM     33  H   UNL     1      -2.804  13.067  18.008  0.00  0.00    +0.000 HD
ENDBRANCH  18  25
ENDBRANCH   1  18
TORSDOF 4
ENDMDL
MODEL 6
REMARK VINA RESULT:      -9.3      0.772      1.177
REMARK  Name = 
REMARK  6 active torsions:
REMARK  status: ('A' for Active; 'I' for Inactive)
REMARK    1  A    between atoms: C_1  and  N_2
REMARK    2  A    between atoms: N_2  and  C_3
REMARK    3  A    between atoms: N_7  and  C_8
REMARK    4  A    between atoms: C_8  and  C_9
REMARK    5  A    between atoms: C_12  and  N_13
REMARK    6  A    between atoms: C_14  and  C_16
REMARK                            x       y       z     vdW  Elec       q    Type
REMARK                         _______ _______ _______ _____ _____    ______ ____
ROOT
ATOM      1  C   UNL     1       1.578   9.080  18.885  0.00  0.00    +0.000 A 
ATOM      2  C   UNL     1       1.194  10.263  18.243  0.00  0.00    +0.000 A 
ATOM      3  C   UNL     1       0.252  11.113  18.830  0.00  0.00    +0.000 A 
ATOM      4  C   UNL     1      -0.317  10.806  20.066  0.00  0.00    +0.000 A 
ATOM      5  C   UNL     1       0.106   9.652  20.737  0.00  0.00    +0.000 A 
ATOM      6  C   UNL     1       1.041   8.793  20.146  0.00  0.00    +0.000 A 
ENDROOT
BRANCH   4   7
ATOM      7  N   UNL     1      -1.293  11.619  20.689  0.00  0.00    +0.000 N 
ATOM      8  C   UNL     1      -1.200  12.148  21.965  0.00  0.00    +0.000 C 
ATOM      9  O   UNL     1      -0.217  12.091  22.697  0.00  0.00    +0.000 OA
ATOM     10  H   UNL     1      -2.102  11.837  20.124  0.00  0.00    +0.000 HD
BRANCH   8  11
ATOM     11  C   UNL     1      -2.408  12.836  22.502  0.00  0.00    +0.000 A 
ATOM     12  C   UNL     1      -2.211  13.722  23.581  0.00  0.00    +0.000 A 
ATOM     13  C   UNL     1      -3.290  14.389  24.163  0.00  0.00    +0.000 A 
ATOM     14  C   UNL     1      -4.566  14.183  23.659  0.00  0.00    +0.000 A 
ATOM     15  F   UNL     1      -5.603  14.816  24.218  0.00  0.00    +0.000 F 
ATOM     16  C   UNL     1      -4.781  13.330  22.579  0.00  0.00    +0.000 A 
ATOM     17  C   UNL     1      -3.703  12.658  21.993  0.00  0.00    +0.000 A 
ENDBRANCH   8  11
ENDBRANCH   4   7
BRANCH   1  18
ATOM     18  C   UNL     1       2.544   8.130  18.213  0.00  0.00    +0.000 C 
BRANCH  18  25
ATOM     19  C   UNL     1       7.353   4.646  16.549  0.00  0.00    +0.000 C 
ATOM     20  N   UNL     1       6.386   5.673  16.876  0.00  0.00    +0.000 N 
ATOM     21  C   UNL     1       6.844   6.949  17.389  0.00  0.00    +0.000 C 
ATOM     22  C   UNL     1       5.147   5.247  17.335  0.00  0.00    +0.000 A 
ATOM     23  N   UNL     1       4.228   6.172  17.645  0.00  0.00    +0.000 NA
ATOM     24  C   UNL     1       3.002   5.777  18.041  0.00  0.00    +0.000 A 
ATOM     25  N   UNL     1       2.013   6.771  18.244  0.00  0.00    +0.000 N 
ATOM     26  C   UNL     1       2.674   4.417  18.171  0.00  0.00    +0.000 A 
ATOM     27  C   UNL     1       1.421   3.892  18.592  0.00  0.00    +0.000 A 
ATOM     28  C   UNL     1       1.219   2.516  18.695  0.00  0.00    +0.000 A 
ATOM     29  C   UNL     1       2.253   1.648  18.372  0.00  0.00    +0.000 A 
ATOM     30  C   UNL     1       3.478   2.165  17.951  0.00  0.00    +0.000 A 
ATOM     31  C   UNL     1       3.706   3.532  17.846  0.00  0.00    +0.000 A 
ATOM     32  N   UNL     1       4.906   3.934  17.427  0.00  0.00    +0.000 NA
ATOM     33  H   UNL     1       1.500   6.591  19.100  0.00  0.00    +0.000 HD
ENDBRANCH  18  25
ENDBRANCH   1  18
TORSDOF 4
ENDMDL
MODEL 7
REMARK VINA RESULT:      -9.0      1.452      1.856
REMARK  Name = 
REMARK  6 active torsions:
REMARK  status: ('A' for Active; 'I' for Inactive)
REMARK    1  A    between atoms: C_1  and  N_2
REMARK    2  A    between atoms: N_2  and  C_3
REMARK    3  A    between atoms: N_7  and  C_8
REMARK    4  A    between atoms: C_8  and  C_9
REMARK    5  A    between atoms: C_12  and  N_13
REMARK    6  A    between atoms: C_14  and  C_16
REMARK                            x       y       z     vdW  Elec       q    Type
REMARK                         _______ _______ _______ _____ _____    ______ ____
ROOT
ATOM      1  C   UNL     1       1.371   8.999  19.413  0.00  0.00    +0.000 A 
ATOM      2  C   UNL     1       1.041  10.154  18.693  0.00  0.00    +0.000 A 
ATOM      3  C   UNL     1       0.121  11.071  19.209  0.00  0.00    +0.000 A 
ATOM      4  C   UNL     1      -0.478  10.862  20.452  0.00  0.00    +0.000 A 
ATOM      5  C   UNL     1      -0.107   9.737  21.200  0.00  0.00    +0.000 A 
ATOM      6  C   UNL     1       0.805   8.810  20.679  0.00  0.00    +0.000 A 
ENDROOT
BRANCH   4   7
ATOM      7  N   UNL     1      -1.433  11.746  21.006  0.00  0.00    +0.000 N 
ATOM      8  C   UNL     1      -1.385  12.279  22.283  0.00  0.00    +0.000 C 
ATOM      9  O   UNL     1      -0.458  12.162  23.077  0.00  0.00    +0.000 OA
ATOM     10  H   UNL     1      -2.188  12.014  20.389  0.00  0.00    +0.000 HD
BRANCH   8  11
ATOM     11  C   UNL     1      -2.575  13.054  22.737  0.00  0.00    +0.000 A 
ATOM     12  C   UNL     1      -3.428  12.426  23.667  0.00  0.00    +0.000 A 
ATOM     13  C   UNL     1      -4.579  13.067  24.127  0.00  0.00    +0.000 A 
ATOM     14  C   UNL     1      -4.872  14.344  23.669  0.00  0.00    +0.000 A 
ATOM     15  F   UNL     1      -5.977  14.960  24.104  0.00  0.00    +0.000 F 
ATOM     16  C   UNL     1      -4.031  14.993  22.769  0.00  0.00    +0.000 A 
ATOM     17  C   UNL     1      -2.877  14.353  22.304  0.00  0.00    +0.000 A 
ENDBRANCH   8  11
ENDBRANCH   4   7
BRANCH   1  18
ATOM     18  C   UNL     1       2.312   7.976  18.818  0.00  0.00    +0.000 C 
BRANCH  18  25
ATOM     19  C   UNL     1       7.136   4.630  16.929  0.00  0.00    +0.000 C 
ATOM     20  N   UNL     1       6.097   5.603  17.199  0.00  0.00    +0.000 N 
ATOM     21  C   UNL     1       6.403   7.017  17.113  0.00  0.00    +0.000 C 
ATOM     22  C   UNL     1       5.131   5.249  18.131  0.00  0.00    +0.000 A 
ATOM     23  N   UNL     1       4.155   6.125  18.403  0.00  0.00    +0.000 NA
ATOM     24  C   UNL     1       3.178   5.779  19.263  0.00  0.00    +0.000 A 
ATOM     25  N   UNL     1       2.094   6.674  19.440  0.00  0.00    +0.000 N 
ATOM     26  C   UNL     1       3.178   4.532  19.912  0.00  0.00    +0.000 A 
ATOM     27  C   UNL     1       2.208   4.072  20.844  0.00  0.00    +0.000 A 
ATOM     28  C   UNL     1       2.323   2.812  21.434  0.00  0.00    +0.000 A 
ATOM     29  C   UNL     1       3.393   1.996  21.097  0.00  0.00    +0.000 A 
ATOM     30  C   UNL     1       4.338   2.446  20.175  0.00  0.00    +0.000 A 
ATOM     31  C   UNL     1       4.248   3.698  19.578  0.00  0.00    +0.000 A 
ATOM     32  N   UNL     1       5.194   4.041  18.702  0.00  0.00    +0.000 NA
ATOM     33  H   UNL     1       1.866   6.765  20.423  0.00  0.00    +0.000 HD
ENDBRANCH  18  25
ENDBRANCH   1  18
TORSDOF 4
ENDMDL
MODEL 8
REMARK VINA RESULT:      -8.9      1.079      1.611
REMARK  Name = 
REMARK  6 active torsions:
REMARK  status: ('A' for Active; 'I' for Inactive)
REMARK    1  A    between atoms: C_1  and  N_2
REMARK    2  A    between atoms: N_2  and  C_3
REMARK    3  A    between atoms: N_7  and  C_8
REMARK    4  A    between atoms: C_8  and  C_9
REMARK    5  A    between atoms: C_12  and  N_13
REMARK    6  A    between atoms: C_14  and  C_16
REMARK                            x       y       z     vdW  Elec       q    Type
REMARK                         _______ _______ _______ _____ _____    ______ ____
ROOT
ATOM      1  C   UNL     1       1.515   9.002  18.825  0.00  0.00    +0.000 A 
ATOM      2  C   UNL     1       0.712   9.850  18.053  0.00  0.00    +0.000 A 
ATOM      3  C   UNL     1      -0.239  10.673  18.664  0.00  0.00    +0.000 A 
ATOM      4  C   UNL     1      -0.400  10.674  20.050  0.00  0.00    +0.000 A 
ATOM      5  C   UNL     1       0.440   9.869  20.828  0.00  0.00    +0.000 A 
ATOM      6  C   UNL     1       1.385   9.034  20.218  0.00  0.00    +0.000 A 
ENDROOT
BRANCH   4   7
ATOM      7  N   UNL     1      -1.365  11.468  20.713  0.00  0.00    +0.000 N 
ATOM      8  C   UNL     1      -1.179  12.776  21.125  0.00  0.00    +0.000 C 
ATOM      9  O   UNL     1      -0.204  13.478  20.877  0.00  0.00    +0.000 OA
ATOM     10  H   UNL     1      -2.262  11.028  20.863  0.00  0.00    +0.000 HD
BRANCH   8  11
ATOM     11  C   UNL     1      -2.257  13.382  21.959  0.00  0.00    +0.000 A 
ATOM     12  C   UNL     1      -3.531  12.781  21.891  0.00  0.00    +0.000 A 
ATOM     13  C   UNL     1      -4.604  13.298  22.618  0.00  0.00    +0.000 A 
ATOM     14  C   UNL     1      -4.403  14.409  23.425  0.00  0.00    +0.000 A 
ATOM     15  F   UNL     1      -5.431  14.911  24.118  0.00  0.00    +0.000 F 
ATOM     16  C   UNL     1      -3.148  15.004  23.525  0.00  0.00    +0.000 A 
ATOM     17  C   UNL     1      -2.070  14.490  22.797  0.00  0.00    +0.000 A 
ENDBRANCH   8  11
ENDBRANCH   4   7
BRANCH   1  18
ATOM     18  C   UNL     1       2.492   8.063  18.153  0.00  0.00    +0.000 C 
BRANCH  18  25
ATOM     19  C   UNL     1       7.378   4.628  16.617  0.00  0.00    +0.000 C 
ATOM     20  N   UNL     1       6.391   5.645  16.914  0.00  0.00    +0.000 N 
ATOM     21  C   UNL     1       6.822   6.934  17.418  0.00  0.00    +0.000 C 
ATOM     22  C   UNL     1       5.150   5.207  17.357  0.00  0.00    +0.000 A 
ATOM     23  N   UNL     1       4.213   6.122  17.639  0.00  0.00    +0.000 NA
ATOM     24  C   UNL     1       2.986   5.715  18.018  0.00  0.00    +0.000 A 
ATOM     25  N   UNL     1       1.980   6.697  18.192  0.00  0.00    +0.000 N 
ATOM     26  C   UNL     1       2.675   4.352  18.160  0.00  0.00    +0.000 A 
ATOM     27  C   UNL     1       1.423   3.814  18.565  0.00  0.00    +0.000 A 
ATOM     28  C   UNL     1       1.238   2.436  18.682  0.00  0.00    +0.000 A 
ATOM     29  C   UNL     1       2.290   1.580  18.388  0.00  0.00    +0.000 A 
ATOM     30  C   UNL     1       3.515   2.109  17.982  0.00  0.00    +0.000 A 
ATOM     31  C   UNL     1       3.725   3.478  17.863  0.00  0.00    +0.000 A 
ATOM     32  N   UNL     1       4.927   3.892  17.460  0.00  0.00    +0.000 NA
ATOM     33  H   UNL     1       1.455   6.520  19.041  0.00  0.00    +0.000 HD
ENDBRANCH  18  25
ENDBRANCH   1  18
TORSDOF 4
ENDMDL
MODEL 9
REMARK VINA RESULT:      -8.8      4.379     10.637
REMARK  Name = 
REMARK  6 active torsions:
REMARK  status: ('A' for Active; 'I' for Inactive)
REMARK    1  A    between atoms: C_1  and  N_2
REMARK    2  A    between atoms: N_2  and  C_3
REMARK    3  A    between atoms: N_7  and  C_8
REMARK    4  A    between atoms: C_8  and  C_9
REMARK    5  A    between atoms: C_12  and  N_13
REMARK    6  A    between atoms: C_14  and  C_16
REMARK                            x       y       z     vdW  Elec       q    Type
REMARK                         _______ _______ _______ _____ _____    ______ ____
ROOT
ATOM      1  C   UNL     1      -0.331  11.525  19.490  0.00  0.00    +0.000 A 
ATOM      2  C   UNL     1       0.240  11.231  20.734  0.00  0.00    +0.000 A 
ATOM      3  C   UNL     1       0.925  10.028  20.931  0.00  0.00    +0.000 A 
ATOM      4  C   UNL     1       1.061   9.104  19.895  0.00  0.00    +0.000 A 
ATOM      5  C   UNL     1       0.540   9.420  18.634  0.00  0.00    +0.000 A 
ATOM      6  C   UNL     1      -0.157  10.619  18.437  0.00  0.00    +0.000 A 
ENDROOT
BRANCH   4   7
ATOM      7  N   UNL     1       1.721   7.862  20.051  0.00  0.00    +0.000 N 
ATOM      8  C   UNL     1       2.569   7.284  19.122  0.00  0.00    +0.000 C 
ATOM      9  O   UNL     1       2.966   7.807  18.086  0.00  0.00    +0.000 OA
ATOM     10  H   UNL     1       1.563   7.393  20.932  0.00  0.00    +0.000 HD
BRANCH   8  11
ATOM     11  C   UNL     1       3.030   5.893  19.401  0.00  0.00    +0.000 A 
ATOM     12  C   UNL     1       4.304   5.534  18.916  0.00  0.00    +0.000 A 
ATOM     13  C   UNL     1       4.804   4.245  19.108  0.00  0.00    +0.000 A 
ATOM     14  C   UNL     1       4.037   3.317  19.798  0.00  0.00    +0.000 A 
ATOM     15  F   UNL     1       4.511   2.080  19.979  0.00  0.00    +0.000 F 
ATOM     16  C   UNL     1       2.786   3.657  20.306  0.00  0.00    +0.000 A 
ATOM     17  C   UNL     1       2.280   4.947  20.114  0.00  0.00    +0.000 A 
ENDBRANCH   8  11
ENDBRANCH   4   7
BRANCH   1  18
ATOM     18  C   UNL     1      -1.131  12.796  19.304  0.00  0.00    +0.000 C 
BRANCH  18  25
ATOM     19  C   UNL     1      -4.283  12.590  24.600  0.00  0.00    +0.000 C 
ATOM     20  N   UNL     1      -3.324  12.662  23.517  0.00  0.00    +0.000 N 
ATOM     21  C   UNL     1      -2.120  13.452  23.680  0.00  0.00    +0.000 C 
ATOM     22  C   UNL     1      -3.828  12.588  22.225  0.00  0.00    +0.000 A 
ATOM     23  N   UNL     1      -2.968  12.651  21.200  0.00  0.00    +0.000 NA
ATOM     24  C   UNL     1      -3.432  12.527  19.941  0.00  0.00    +0.000 A 
ATOM     25  N   UNL     1      -2.491  12.473  18.884  0.00  0.00    +0.000 N 
ATOM     26  C   UNL     1      -4.803  12.369  19.675  0.00  0.00    +0.000 A 
ATOM     27  C   UNL     1      -5.400  12.243  18.391  0.00  0.00    +0.000 A 
ATOM     28  C   UNL     1      -6.781  12.104  18.253  0.00  0.00    +0.000 A 
ATOM     29  C   UNL     1      -7.581  12.078  19.387  0.00  0.00    +0.000 A 
ATOM     30  C   UNL     1      -6.992  12.193  20.646  0.00  0.00    +0.000 A 
ATOM     31  C   UNL     1      -5.620  12.338  20.809  0.00  0.00    +0.000 A 
ATOM     32  N   UNL     1      -5.145  12.432  22.052  0.00  0.00    +0.000 NA
ATOM     33  H   UNL     1      -2.791  13.058  18.112  0.00  0.00    +0.000 HD
ENDBRANCH  18  25
ENDBRANCH   1  18
TORSDOF 4
ENDMDL
