MODEL 1
REMARK VINA RESULT:      -7.9      0.000      0.000
REMARK  Name = 
REMARK  7 active torsions:
REMARK  status: ('A' for Active; 'I' for Inactive)
REMARK    1  A    between atoms: C_1  and  C_2
REMARK    2  A    between atoms: C_2  and  C_3
REMARK    3  A    between atoms: C_2  and  C_4
REMARK    4  A    between atoms: C_4  and  N_5
REMARK    5  A    between atoms: C_6  and  C_7
REMARK    6  A    between atoms: C_8  and  O_9
REMARK    7  A    between atoms: C_10  and  N_11
REMARK                            x       y       z     vdW  Elec       q    Type
REMARK                         _______ _______ _______ _____ _____    ______ ____
ROOT
ATOM      1  C   UNL     1       3.912   6.040  17.837  0.00  0.00    +0.000 A 
ATOM      2  C   UNL     1       5.020   6.287  17.005  0.00  0.00    +0.000 A 
ATOM      3  C   UNL     1       6.137   5.454  17.097  0.00  0.00    +0.000 A 
ATOM      4  C   UNL     1       6.192   4.343  17.957  0.00  0.00    +0.000 A 
ATOM      5  C   UNL     1       5.055   4.127  18.738  0.00  0.00    +0.000 A 
ATOM      6  O   UNL     1       4.888   3.101  19.628  0.00  0.00    +0.000 OA
ATOM      7  C   UNL     1       3.643   3.247  20.143  0.00  0.00    +0.000 A 
ATOM      8  C   UNL     1       2.992   4.328  19.597  0.00  0.00    +0.000 A 
ATOM      9  C   UNL     1       3.917   4.933  18.704  0.00  0.00    +0.000 A 
ATOM     10  C   UNL     1       1.594   4.677  19.967  0.00  0.00    +0.000 C 
ATOM     11  C   UNL     1       0.908   3.524  20.721  0.00  0.00    +0.000 C 
ATOM     12  C   UNL     1       1.839   2.894  21.775  0.00  0.00    +0.000 C 
ATOM     13  C   UNL     1       3.110   2.286  21.137  0.00  0.00    +0.000 C 
ENDROOT
BRANCH   3  14
ATOM     14  N   UNL     1       7.294   5.714  16.262  0.00  0.00    +0.000 N 
ATOM     15  O   UNL     1       7.616   4.842  15.443  0.00  0.00    +0.000 OA
ATOM     16  O   UNL     1       7.828   6.825  16.382  0.00  0.00    +0.000 OA
ENDBRANCH   3  14
BRANCH   1  18
ATOM     17  N   UNL     1       2.756   8.112  18.124  0.00  0.00    +0.000 NA
ATOM     18  C   UNL     1       2.705   6.869  17.772  0.00  0.00    +0.000 C 
BRANCH  17  19
ATOM     19  C   UNL     1       1.519   8.843  17.831  0.00  0.00    +0.000 C 
BRANCH  19  21
ATOM     20  C   UNL     1      -0.217  10.328  18.925  0.00  0.00    +0.000 C 
ATOM     21  C   UNL     1       1.154   9.661  19.076  0.00  0.00    +0.000 C 
ATOM     22  C   UNL     1       1.175   8.776  20.319  0.00  0.00    +0.000 C 
ENDBRANCH  19  21
ENDBRANCH  17  19
ENDBRANCH   1  18
BRANCH   2  23
ATOM     23  O   UNL     1       4.996   7.308  16.092  0.00  0.00    +0.000 OA
ATOM     24  H   UNL     1       5.930   7.558  15.888  0.00  0.00    +0.000 HD
ENDBRANCH   2  23
TORSDOF 5
ENDMDL
MODEL 2
REMARK VINA RESULT:      -7.9      1.374      1.725
REMARK  Name = 
REMARK  7 active torsions:
REMARK  status: ('A' for Active; 'I' for Inactive)
REMARK    1  A    between atoms: C_1  and  C_2
REMARK    2  A    between atoms: C_2  and  C_3
REMARK    3  A    between atoms: C_2  and  C_4
REMARK    4  A    between atoms: C_4  and  N_5
REMARK    5  A    between atoms: C_6  and  C_7
REMARK    6  A    between atoms: C_8  and  O_9
REMARK    7  A    between atoms: C_10  and  N_11
REMARK                            x       y       z     vdW  Elec       q    Type
REMARK                         _______ _______ _______ _____ _____    ______ ____
ROOT
ATOM      1  C   UNL     1       4.222   6.041  17.315  0.00  0.00    +0.000 A 
ATOM      2  C   UNL     1       5.076   5.989  16.197  0.00  0.00    +0.000 A 
ATOM      3  C   UNL     1       5.462   4.746  15.694  0.00  0.00    +0.000 A 
ATOM      4  C   UNL     1       5.001   3.529  16.228  0.00  0.00    +0.000 A 
ATOM      5  C   UNL     1       4.133   3.638  17.317  0.00  0.00    +0.000 A 
ATOM      6  O   UNL     1       3.555   2.589  17.977  0.00  0.00    +0.000 OA
ATOM      7  C   UNL     1       2.771   3.134  18.938  0.00  0.00    +0.000 A 
ATOM      8  C   UNL     1       2.810   4.508  18.906  0.00  0.00    +0.000 A 
ATOM      9  C   UNL     1       3.725   4.850  17.874  0.00  0.00    +0.000 A 
ATOM     10  C   UNL     1       2.001   5.343  19.835  0.00  0.00    +0.000 C 
ATOM     11  C   UNL     1       0.918   4.509  20.540  0.00  0.00    +0.000 C 
ATOM     12  C   UNL     1       1.462   3.149  21.019  0.00  0.00    +0.000 C 
ATOM     13  C   UNL     1       1.966   2.280  19.844  0.00  0.00    +0.000 C 
ENDROOT
BRANCH   3  14
ATOM     14  N   UNL     1       6.362   4.681  14.558  0.00  0.00    +0.000 N 
ATOM     15  O   UNL     1       7.453   5.260  14.660  0.00  0.00    +0.000 OA
ATOM     16  O   UNL     1       6.000   3.987  13.600  0.00  0.00    +0.000 OA
ENDBRANCH   3  14
BRANCH   1  18
ATOM     17  N   UNL     1       2.990   8.083  17.182  0.00  0.00    +0.000 NA
ATOM     18  C   UNL     1       3.767   7.316  17.875  0.00  0.00    +0.000 C 
BRANCH  17  19
ATOM     19  C   UNL     1       2.482   9.226  17.948  0.00  0.00    +0.000 C 
BRANCH  19  21
ATOM     20  C   UNL     1       1.167   8.877  20.085  0.00  0.00    +0.000 C 
ATOM     21  C   UNL     1       1.134   8.820  18.555  0.00  0.00    +0.000 C 
ATOM     22  C   UNL     1       0.017   9.713  18.018  0.00  0.00    +0.000 C 
ENDBRANCH  19  21
ENDBRANCH  17  19
ENDBRANCH   1  18
BRANCH   2  23
ATOM     23  O   UNL     1       5.497   7.140  15.586  0.00  0.00    +0.000 OA
ATOM     24  H   UNL     1       6.486   7.154  15.607  0.00  0.00    +0.000 HD
ENDBRANCH   2  23
TORSDOF 5
ENDMDL
MODEL 3
REMARK VINA RESULT:      -7.7      1.849      4.693
REMARK  Name = 
REMARK  7 active torsions:
REMARK  status: ('A' for Active; 'I' for Inactive)
REMARK    1  A    between atoms: C_1  and  C_2
REMARK    2  A    between atoms: C_2  and  C_3
REMARK    3  A    between atoms: C_2  and  C_4
REMARK    4  A    between atoms: C_4  and  N_5
REMARK    5  A    between atoms: C_6  and  C_7
REMARK    6  A    between atoms: C_8  and  O_9
REMARK    7  A    between atoms: C_10  and  N_11
REMARK                            x       y       z     vdW  Elec       q    Type
REMARK                         _______ _______ _______ _____ _____    ______ ____
ROOT
ATOM      1  C   UNL     1       4.360   4.796  17.579  0.00  0.00    +0.000 A 
ATOM      2  C   UNL     1       5.270   4.425  16.572  0.00  0.00    +0.000 A 
ATOM      3  C   UNL     1       5.592   5.346  15.573  0.00  0.00    +0.000 A 
ATOM      4  C   UNL     1       5.079   6.655  15.548  0.00  0.00    +0.000 A 
ATOM      5  C   UNL     1       4.204   6.981  16.586  0.00  0.00    +0.000 A 
ATOM      6  O   UNL     1       3.605   8.197  16.765  0.00  0.00    +0.000 OA
ATOM      7  C   UNL     1       2.868   8.092  17.897  0.00  0.00    +0.000 A 
ATOM      8  C   UNL     1       2.990   6.847  18.468  0.00  0.00    +0.000 A 
ATOM      9  C   UNL     1       3.832   6.100  17.602  0.00  0.00    +0.000 A 
ATOM     10  C   UNL     1       2.311   6.494  19.744  0.00  0.00    +0.000 C 
ATOM     11  C   UNL     1       1.787   7.747  20.467  0.00  0.00    +0.000 C 
ATOM     12  C   UNL     1       1.110   8.730  19.493  0.00  0.00    +0.000 C 
ATOM     13  C   UNL     1       2.090   9.244  18.413  0.00  0.00    +0.000 C 
ENDROOT
BRANCH   3  14
ATOM     14  N   UNL     1       6.509   4.964  14.516  0.00  0.00    +0.000 N 
ATOM     15  O   UNL     1       7.614   5.525  14.487  0.00  0.00    +0.000 OA
ATOM     16  O   UNL     1       6.143   4.049  13.765  0.00  0.00    +0.000 OA
ENDBRANCH   3  14
BRANCH   1  18
ATOM     17  N   UNL     1       3.033   3.036  18.499  0.00  0.00    +0.000 NA
ATOM     18  C   UNL     1       3.999   3.879  18.663  0.00  0.00    +0.000 C 
BRANCH  17  19
ATOM     19  C   UNL     1       2.917   2.075  19.601  0.00  0.00    +0.000 C 
BRANCH  19  21
ATOM     20  C   UNL     1       1.980   3.265  21.632  0.00  0.00    +0.000 C 
ATOM     21  C   UNL     1       1.652   2.423  20.394  0.00  0.00    +0.000 C 
ATOM     22  C   UNL     1       0.652   3.159  19.506  0.00  0.00    +0.000 C 
ENDBRANCH  19  21
ENDBRANCH  17  19
ENDBRANCH   1  18
BRANCH   2  23
ATOM     23  O   UNL     1       5.862   3.189  16.585  0.00  0.00    +0.000 OA
ATOM     24  H   UNL     1       5.822   2.840  17.509  0.00  0.00    +0.000 HD
ENDBRANCH   2  23
TORSDOF 5
ENDMDL
MODEL 4
REMARK VINA RESULT:      -7.6      2.396      6.085
REMARK  Name = 
REMARK  7 active torsions:
REMARK  status: ('A' for Active; 'I' for Inactive)
REMARK    1  A    between atoms: C_1  and  C_2
REMARK    2  A    between atoms: C_2  and  C_3
REMARK    3  A    between atoms: C_2  and  C_4
REMARK    4  A    between atoms: C_4  and  N_5
REMARK    5  A    between atoms: C_6  and  C_7
REMARK    6  A    between atoms: C_8  and  O_9
REMARK    7  A    between atoms: C_10  and  N_11
REMARK                            x       y       z     vdW  Elec       q    Type
REMARK                         _______ _______ _______ _____ _____    ______ ____
ROOT
ATOM      1  C   UNL     1       3.317   5.457  18.746  0.00  0.00    +0.000 A 
ATOM      2  C   UNL     1       3.431   4.191  19.348  0.00  0.00    +0.000 A 
ATOM      3  C   UNL     1       2.818   3.967  20.582  0.00  0.00    +0.000 A 
ATOM      4  C   UNL     1       2.047   4.943  21.240  0.00  0.00    +0.000 A 
ATOM      5  C   UNL     1       1.942   6.171  20.585  0.00  0.00    +0.000 A 
ATOM      6  O   UNL     1       1.232   7.250  21.034  0.00  0.00    +0.000 OA
ATOM      7  C   UNL     1       1.371   8.213  20.092  0.00  0.00    +0.000 A 
ATOM      8  C   UNL     1       2.135   7.780  19.034  0.00  0.00    +0.000 A 
ATOM      9  C   UNL     1       2.545   6.459  19.361  0.00  0.00    +0.000 A 
ATOM     10  C   UNL     1       2.401   8.639  17.848  0.00  0.00    +0.000 C 
ATOM     11  C   UNL     1       1.462   9.858  17.816  0.00  0.00    +0.000 C 
ATOM     12  C   UNL     1       1.316  10.506  19.207  0.00  0.00    +0.000 C 
ATOM     13  C   UNL     1       0.708   9.531  20.240  0.00  0.00    +0.000 C 
ENDROOT
BRANCH   3  14
ATOM     14  N   UNL     1       2.951   2.673  21.224  0.00  0.00    +0.000 N 
ATOM     15  O   UNL     1       4.066   2.133  21.197  0.00  0.00    +0.000 OA
ATOM     16  O   UNL     1       1.953   2.240  21.816  0.00  0.00    +0.000 OA
ENDBRANCH   3  14
BRANCH   1  18
ATOM     17  N   UNL     1       5.192   5.971  17.358  0.00  0.00    +0.000 NA
ATOM     18  C   UNL     1       3.922   5.745  17.443  0.00  0.00    +0.000 C 
BRANCH  17  19
ATOM     19  C   UNL     1       5.668   6.061  15.974  0.00  0.00    +0.000 C 
BRANCH  19  21
ATOM     20  C   UNL     1       7.368   4.560  17.103  0.00  0.00    +0.000 C 
ATOM     21  C   UNL     1       6.730   4.973  15.773  0.00  0.00    +0.000 C 
ATOM     22  C   UNL     1       6.121   3.756  15.080  0.00  0.00    +0.000 C 
ENDBRANCH  19  21
ENDBRANCH  17  19
ENDBRANCH   1  18
BRANCH   2  23
ATOM     23  O   UNL     1       4.104   3.176  18.721  0.00  0.00    +0.000 OA
ATOM     24  H   UNL     1       5.037   3.470  18.577  0.00  0.00    +0.000 HD
ENDBRANCH   2  23
TORSDOF 5
ENDMDL
MODEL 5
REMARK VINA RESULT:      -7.3      1.563      4.739
REMARK  Name = 
REMARK  7 active torsions:
REMARK  status: ('A' for Active; 'I' for Inactive)
REMARK    1  A    between atoms: C_1  and  C_2
REMARK    2  A    between atoms: C_2  and  C_3
REMARK    3  A    between atoms: C_2  and  C_4
REMARK    4  A    between atoms: C_4  and  N_5
REMARK    5  A    between atoms: C_6  and  C_7
REMARK    6  A    between atoms: C_8  and  O_9
REMARK    7  A    between atoms: C_10  and  N_11
REMARK                            x       y       z     vdW  Elec       q    Type
REMARK                         _______ _______ _______ _____ _____    ______ ____
ROOT
ATOM      1  C   UNL     1       4.269   5.278  18.174  0.00  0.00    +0.000 A 
ATOM      2  C   UNL     1       5.237   4.783  17.280  0.00  0.00    +0.000 A 
ATOM      3  C   UNL     1       5.554   5.527  16.141  0.00  0.00    +0.000 A 
ATOM      4  C   UNL     1       4.978   6.780  15.864  0.00  0.00    +0.000 A 
ATOM      5  C   UNL     1       4.046   7.237  16.797  0.00  0.00    +0.000 A 
ATOM      6  O   UNL     1       3.380   8.429  16.733  0.00  0.00    +0.000 OA
ATOM      7  C   UNL     1       2.603   8.488  17.842  0.00  0.00    +0.000 A 
ATOM      8  C   UNL     1       2.763   7.374  18.632  0.00  0.00    +0.000 A 
ATOM      9  C   UNL     1       3.677   6.532  17.943  0.00  0.00    +0.000 A 
ATOM     10  C   UNL     1       2.050   7.217  19.929  0.00  0.00    +0.000 C 
ATOM     11  C   UNL     1       1.435   8.548  20.396  0.00  0.00    +0.000 C 
ATOM     12  C   UNL     1       0.750   9.301  19.239  0.00  0.00    +0.000 C 
ATOM     13  C   UNL     1       1.747   9.667  18.115  0.00  0.00    +0.000 C 
ENDROOT
BRANCH   3  14
ATOM     14  N   UNL     1       6.532   5.015  15.201  0.00  0.00    +0.000 N 
ATOM     15  O   UNL     1       7.631   5.585  15.151  0.00  0.00    +0.000 OA
ATOM     16  O   UNL     1       6.218   3.996  14.571  0.00  0.00    +0.000 OA
ENDBRANCH   3  14
BRANCH   1  18
ATOM     17  N   UNL     1       3.273   3.428  19.312  0.00  0.00    +0.000 NA
ATOM     18  C   UNL     1       3.910   4.551  19.394  0.00  0.00    +0.000 C 
BRANCH  17  19
ATOM     19  C   UNL     1       3.150   2.743  20.602  0.00  0.00    +0.000 C 
BRANCH  19  21
ATOM     20  C   UNL     1       0.841   3.736  20.284  0.00  0.00    +0.000 C 
ATOM     21  C   UNL     1       1.895   3.281  21.299  0.00  0.00    +0.000 C 
ATOM     22  C   UNL     1       1.308   2.223  22.230  0.00  0.00    +0.000 C 
ENDBRANCH  19  21
ENDBRANCH  17  19
ENDBRANCH   1  18
BRANCH   2  23
ATOM     23  O   UNL     1       5.889   3.606  17.535  0.00  0.00    +0.000 OA
ATOM     24  H   UNL     1       6.449   3.734  18.339  0.00  0.00    +0.000 HD
ENDBRANCH   2  23
TORSDOF 5
ENDMDL
MODEL 6
REMARK VINA RESULT:      -7.3      2.416      4.962
REMARK  Name = 
REMARK  7 active torsions:
REMARK  status: ('A' for Active; 'I' for Inactive)
REMARK    1  A    between atoms: C_1  and  C_2
REMARK    2  A    between atoms: C_2  and  C_3
REMARK    3  A    between atoms: C_2  and  C_4
REMARK    4  A    between atoms: C_4  and  N_5
REMARK    5  A    between atoms: C_6  and  C_7
REMARK    6  A    between atoms: C_8  and  O_9
REMARK    7  A    between atoms: C_10  and  N_11
REMARK                            x       y       z     vdW  Elec       q    Type
REMARK                         _______ _______ _______ _____ _____    ______ ____
ROOT
ATOM      1  C   UNL     1       3.101   5.852  18.771  0.00  0.00    +0.000 A 
ATOM      2  C   UNL     1       2.456   5.335  19.910  0.00  0.00    +0.000 A 
ATOM      3  C   UNL     1       2.498   3.960  20.149  0.00  0.00    +0.000 A 
ATOM      4  C   UNL     1       3.197   3.062  19.322  0.00  0.00    +0.000 A 
ATOM      5  C   UNL     1       3.843   3.632  18.224  0.00  0.00    +0.000 A 
ATOM      6  O   UNL     1       4.591   2.950  17.303  0.00  0.00    +0.000 OA
ATOM      7  C   UNL     1       5.056   3.877  16.432  0.00  0.00    +0.000 A 
ATOM      8  C   UNL     1       4.646   5.145  16.775  0.00  0.00    +0.000 A 
ATOM      9  C   UNL     1       3.824   4.994  17.924  0.00  0.00    +0.000 A 
ATOM     10  C   UNL     1       5.061   6.345  15.999  0.00  0.00    +0.000 C 
ATOM     11  C   UNL     1       6.224   6.023  15.044  0.00  0.00    +0.000 C 
ATOM     12  C   UNL     1       6.012   4.681  14.315  0.00  0.00    +0.000 C 
ATOM     13  C   UNL     1       5.932   3.492  15.300  0.00  0.00    +0.000 C 
ENDROOT
BRANCH   3  14
ATOM     14  N   UNL     1       1.814   3.414  21.306  0.00  0.00    +0.000 N 
ATOM     15  O   UNL     1       0.731   2.844  21.114  0.00  0.00    +0.000 OA
ATOM     16  O   UNL     1       2.406   3.493  22.391  0.00  0.00    +0.000 OA
ENDBRANCH   3  14
BRANCH   1  18
ATOM     17  N   UNL     1       2.008   7.884  18.153  0.00  0.00    +0.000 NA
ATOM     18  C   UNL     1       3.108   7.288  18.479  0.00  0.00    +0.000 C 
BRANCH  17  19
ATOM     19  C   UNL     1       2.148   9.342  18.071  0.00  0.00    +0.000 C 
BRANCH  19  21
ATOM     20  C   UNL     1      -0.351   9.724  17.909  0.00  0.00    +0.000 C 
ATOM     21  C   UNL     1       0.916   9.968  18.734  0.00  0.00    +0.000 C 
ATOM     22  C   UNL     1       0.737   9.421  20.149  0.00  0.00    +0.000 C 
ENDBRANCH  19  21
ENDBRANCH  17  19
ENDBRANCH   1  18
BRANCH   2  23
ATOM     23  O   UNL     1       1.823   6.168  20.794  0.00  0.00    +0.000 OA
ATOM     24  H   UNL     1       0.865   6.202  20.551  0.00  0.00    +0.000 HD
ENDBRANCH   2  23
TORSDOF 5
ENDMDL
MODEL 7
REMARK VINA RESULT:      -7.1      3.053      5.185
REMARK  Name = 
REMARK  7 active torsions:
REMARK  status: ('A' for Active; 'I' for Inactive)
REMARK    1  A    between atoms: C_1  and  C_2
REMARK    2  A    between atoms: C_2  and  C_3
REMARK    3  A    between atoms: C_2  and  C_4
REMARK    4  A    between atoms: C_4  and  N_5
REMARK    5  A    between atoms: C_6  and  C_7
REMARK    6  A    between atoms: C_8  and  O_9
REMARK    7  A    between atoms: C_10  and  N_11
REMARK                            x       y       z     vdW  Elec       q    Type
REMARK                         _______ _______ _______ _____ _____    ______ ____
ROOT
ATOM      1  C   UNL     1       5.438   4.761  16.574  0.00  0.00    +0.000 A 
ATOM      2  C   UNL     1       6.530   5.642  16.674  0.00  0.00    +0.000 A 
ATOM      3  C   UNL     1       6.723   6.353  17.860  0.00  0.00    +0.000 A 
ATOM      4  C   UNL     1       5.896   6.197  18.987  0.00  0.00    +0.000 A 
ATOM      5  C   UNL     1       4.846   5.289  18.844  0.00  0.00    +0.000 A 
ATOM      6  O   UNL     1       3.934   4.973  19.813  0.00  0.00    +0.000 OA
ATOM      7  C   UNL     1       3.116   4.039  19.272  0.00  0.00    +0.000 A 
ATOM      8  C   UNL     1       3.485   3.727  17.984  0.00  0.00    +0.000 A 
ATOM      9  C   UNL     1       4.592   4.563  17.680  0.00  0.00    +0.000 A 
ATOM     10  C   UNL     1       2.768   2.695  17.186  0.00  0.00    +0.000 C 
ATOM     11  C   UNL     1       1.852   1.834  18.074  0.00  0.00    +0.000 C 
ATOM     12  C   UNL     1       1.069   2.689  19.090  0.00  0.00    +0.000 C 
ATOM     13  C   UNL     1       2.008   3.444  20.058  0.00  0.00    +0.000 C 
ENDROOT
BRANCH   3  14
ATOM     14  N   UNL     1       7.831   7.284  17.964  0.00  0.00    +0.000 N 
ATOM     15  O   UNL     1       7.919   8.168  17.101  0.00  0.00    +0.000 OA
ATOM     16  O   UNL     1       8.564   7.167  18.956  0.00  0.00    +0.000 OA
ENDBRANCH   3  14
BRANCH   1  18
ATOM     17  N   UNL     1       5.285   4.535  14.200  0.00  0.00    +0.000 NA
ATOM     18  C   UNL     1       5.195   3.974  15.362  0.00  0.00    +0.000 C 
BRANCH  17  19
ATOM     19  C   UNL     1       5.194   3.578  13.093  0.00  0.00    +0.000 C 
BRANCH  19  21
ATOM     20  C   UNL     1       6.634   2.254  11.483  0.00  0.00    +0.000 C 
ATOM     21  C   UNL     1       6.615   3.333  12.569  0.00  0.00    +0.000 C 
ATOM     22  C   UNL     1       7.215   4.631  12.033  0.00  0.00    +0.000 C 
ENDBRANCH  19  21
ENDBRANCH  17  19
ENDBRANCH   1  18
BRANCH   2  23
ATOM     23  O   UNL     1       7.415   5.780  15.637  0.00  0.00    +0.000 OA
ATOM     24  H   UNL     1       8.174   5.168  15.800  0.00  0.00    +0.000 HD
ENDBRANCH   2  23
TORSDOF 5
ENDMDL
MODEL 8
REMARK VINA RESULT:      -7.1      3.488      6.104
REMARK  Name = 
REMARK  7 active torsions:
REMARK  status: ('A' for Active; 'I' for Inactive)
REMARK    1  A    between atoms: C_1  and  C_2
REMARK    2  A    between atoms: C_2  and  C_3
REMARK    3  A    between atoms: C_2  and  C_4
REMARK    4  A    between atoms: C_4  and  N_5
REMARK    5  A    between atoms: C_6  and  C_7
REMARK    6  A    between atoms: C_8  and  O_9
REMARK    7  A    between atoms: C_10  and  N_11
REMARK                            x       y       z     vdW  Elec       q    Type
REMARK                         _______ _______ _______ _____ _____    ______ ____
ROOT
ATOM      1  C   UNL     1       5.361   4.295  16.810  0.00  0.00    +0.000 A 
ATOM      2  C   UNL     1       5.880   4.890  17.975  0.00  0.00    +0.000 A 
ATOM      3  C   UNL     1       7.107   5.553  17.910  0.00  0.00    +0.000 A 
ATOM      4  C   UNL     1       7.836   5.696  16.716  0.00  0.00    +0.000 A 
ATOM      5  C   UNL     1       7.262   5.112  15.585  0.00  0.00    +0.000 A 
ATOM      6  O   UNL     1       7.789   5.143  14.323  0.00  0.00    +0.000 OA
ATOM      7  C   UNL     1       6.907   4.490  13.529  0.00  0.00    +0.000 A 
ATOM      8  C   UNL     1       5.813   4.054  14.239  0.00  0.00    +0.000 A 
ATOM      9  C   UNL     1       6.049   4.423  15.590  0.00  0.00    +0.000 A 
ATOM     10  C   UNL     1       4.680   3.344  13.585  0.00  0.00    +0.000 C 
ATOM     11  C   UNL     1       4.739   3.483  12.053  0.00  0.00    +0.000 C 
ATOM     12  C   UNL     1       6.170   3.289  11.515  0.00  0.00    +0.000 C 
ATOM     13  C   UNL     1       7.149   4.347  12.073  0.00  0.00    +0.000 C 
ENDROOT
BRANCH   3  14
ATOM     14  N   UNL     1       7.663   6.148  19.111  0.00  0.00    +0.000 N 
ATOM     15  O   UNL     1       7.550   5.513  20.168  0.00  0.00    +0.000 OA
ATOM     16  O   UNL     1       8.275   7.215  18.971  0.00  0.00    +0.000 OA
ENDBRANCH   3  14
BRANCH   1  18
ATOM     17  N   UNL     1       3.786   2.770  17.761  0.00  0.00    +0.000 NA
ATOM     18  C   UNL     1       4.070   3.602  16.812  0.00  0.00    +0.000 C 
BRANCH  17  19
ATOM     19  C   UNL     1       2.397   2.303  17.717  0.00  0.00    +0.000 C 
BRANCH  19  21
ATOM     20  C   UNL     1       3.039   2.425  20.165  0.00  0.00    +0.000 C 
ATOM     21  C   UNL     1       1.923   2.113  19.163  0.00  0.00    +0.000 C 
ATOM     22  C   UNL     1       0.703   2.987  19.443  0.00  0.00    +0.000 C 
ENDBRANCH  19  21
ENDBRANCH  17  19
ENDBRANCH   1  18
BRANCH   2  23
ATOM     23  O   UNL     1       5.180   4.851  19.151  0.00  0.00    +0.000 OA
ATOM     24  H   UNL     1       5.628   5.452  19.795  0.00  0.00    +0.000 HD
ENDBRANCH   2  23
TORSDOF 5
ENDMDL
MODEL 9
REMARK VINA RESULT:      -7.0      2.948      6.225
REMARK  Name = 
REMARK  7 active torsions:
REMARK  status: ('A' for Active; 'I' for Inactive)
REMARK    1  A    between atoms: C_1  and  C_2
REMARK    2  A    between atoms: C_2  and  C_3
REMARK    3  A    between atoms: C_2  and  C_4
REMARK    4  A    between atoms: C_4  and  N_5
REMARK    5  A    between atoms: C_6  and  C_7
REMARK    6  A    between atoms: C_8  and  O_9
REMARK    7  A    between atoms: C_10  and  N_11
REMARK                            x       y       z     vdW  Elec       q    Type
REMARK                         _______ _______ _______ _____ _____    ______ ____
ROOT
ATOM      1  C   UNL     1       2.262   6.887  19.782  0.00  0.00    +0.000 A 
ATOM      2  C   UNL     1       1.418   7.958  20.128  0.00  0.00    +0.000 A 
ATOM      3  C   UNL     1       1.383   9.087  19.307  0.00  0.00    +0.000 A 
ATOM      4  C   UNL     1       2.123   9.189  18.116  0.00  0.00    +0.000 A 
ATOM      5  C   UNL     1       2.921   8.086  17.805  0.00  0.00    +0.000 A 
ATOM      6  O   UNL     1       3.708   7.966  16.692  0.00  0.00    +0.000 OA
ATOM      7  C   UNL     1       4.282   6.741  16.767  0.00  0.00    +0.000 A 
ATOM      8  C   UNL     1       3.873   6.057  17.888  0.00  0.00    +0.000 A 
ATOM      9  C   UNL     1       3.012   6.939  18.593  0.00  0.00    +0.000 A 
ATOM     10  C   UNL     1       4.330   4.670  18.176  0.00  0.00    +0.000 C 
ATOM     11  C   UNL     1       4.989   4.028  16.943  0.00  0.00    +0.000 C 
ATOM     12  C   UNL     1       5.938   5.007  16.224  0.00  0.00    +0.000 C 
ATOM     13  C   UNL     1       5.194   6.258  15.702  0.00  0.00    +0.000 C 
ENDROOT
BRANCH   3  14
ATOM     14  N   UNL     1       0.535  10.208  19.668  0.00  0.00    +0.000 N 
ATOM     15  O   UNL     1      -0.689  10.062  19.544  0.00  0.00    +0.000 OA
ATOM     16  O   UNL     1       1.100  11.202  20.144  0.00  0.00    +0.000 OA
ENDBRANCH   3  14
BRANCH   1  18
ATOM     17  N   UNL     1       1.357   4.815  20.554  0.00  0.00    +0.000 NA
ATOM     18  C   UNL     1       2.328   5.669  20.594  0.00  0.00    +0.000 C 
BRANCH  17  19
ATOM     19  C   UNL     1       1.656   3.574  21.277  0.00  0.00    +0.000 C 
BRANCH  19  21
ATOM     20  C   UNL     1       0.805   2.777  19.027  0.00  0.00    +0.000 C 
ATOM     21  C   UNL     1       1.645   2.427  20.259  0.00  0.00    +0.000 C 
ATOM     22  C   UNL     1       3.070   2.072  19.842  0.00  0.00    +0.000 C 
ENDBRANCH  19  21
ENDBRANCH  17  19
ENDBRANCH   1  18
BRANCH   2  23
ATOM     23  O   UNL     1       0.615   7.887  21.235  0.00  0.00    +0.000 OA
ATOM     24  H   UNL     1       0.969   8.513  21.912  0.00  0.00    +0.000 HD
ENDBRANCH   2  23
TORSDOF 5
ENDMDL
