MODEL 1
REMARK VINA RESULT:      -8.0      0.000      0.000
REMARK  Name = 
REMARK  9 active torsions:
REMARK  status: ('A' for Active; 'I' for Inactive)
REMARK    1  A    between atoms: C_1  and  C_2
REMARK    2  A    between atoms: C_10  and  C_11
REMARK    3  A    between atoms: C_11  and  C_12
REMARK    4  A    between atoms: C_12  and  N_13
REMARK    5  A    between atoms: N_13  and  C_14
REMARK    6  A    between atoms: C_14  and  C_15
REMARK    7  A    between atoms: C_19  and  C_20
REMARK    8  A    between atoms: C_21  and  C_22
REMARK    9  A    between atoms: N_24  and  O_25
REMARK                            x       y       z     vdW  Elec       q    Type
REMARK                         _______ _______ _______ _____ _____    ______ ____
ROOT
ATOM      1  N   UNL     1       5.253   4.796  15.477  0.00  0.00    +0.000 NA
ATOM      2  H   UNL     1       4.942   5.723  15.856  0.00  0.00    +0.000 HD
ENDROOT
BRANCH   1   3
ATOM      3  C   UNL     1       4.680   3.726  16.301  0.00  0.00    +0.000 C 
BRANCH   3   4
ATOM      4  C   UNL     1       3.218   4.029  16.658  0.00  0.00    +0.000 C 
BRANCH   4  14
ATOM      5  C   UNL     1       3.841   7.054  17.708  0.00  0.00    +0.000 C 
ATOM      6  C   UNL     1       3.338   5.893  18.510  0.00  0.00    +0.000 A 
ATOM      7  N   UNL     1       3.047   6.002  19.827  0.00  0.00    +0.000 N 
ATOM      8  C   UNL     1       2.604   4.799  20.221  0.00  0.00    +0.000 A 
ATOM      9  C   UNL     1       2.181   4.444  21.501  0.00  0.00    +0.000 A 
ATOM     10  C   UNL     1       1.740   3.127  21.705  0.00  0.00    +0.000 A 
ATOM     11  C   UNL     1       1.733   2.204  20.637  0.00  0.00    +0.000 A 
ATOM     12  C   UNL     1       2.165   2.590  19.354  0.00  0.00    +0.000 A 
ATOM     13  C   UNL     1       2.599   3.908  19.176  0.00  0.00    +0.000 A 
ATOM     14  C   UNL     1       3.070   4.588  18.059  0.00  0.00    +0.000 A 
ATOM     15  H   UNL     1       3.146   6.854  20.422  0.00  0.00    +0.000 HD
ENDBRANCH   4  14
ENDBRANCH   3   4
ENDBRANCH   1   3
BRANCH   1  16
ATOM     16  C   UNL     1       6.723   4.741  15.518  0.00  0.00    +0.000 C 
BRANCH  16  17
ATOM     17  C   UNL     1       7.231   5.465  16.735  0.00  0.00    +0.000 A 
ATOM     18  C   UNL     1       7.536   4.783  17.922  0.00  0.00    +0.000 A 
ATOM     19  C   UNL     1       7.989   5.491  19.038  0.00  0.00    +0.000 A 
ATOM     20  C   UNL     1       8.130   6.883  18.981  0.00  0.00    +0.000 A 
ATOM     21  C   UNL     1       7.828   7.582  17.800  0.00  0.00    +0.000 A 
ATOM     22  C   UNL     1       7.387   6.851  16.678  0.00  0.00    +0.000 A 
BRANCH  21  23
ATOM     23  C   UNL     1       7.937   9.069  17.787  0.00  0.00    +0.000 C 
ATOM     24  C   UNL     1       8.864   9.757  18.484  0.00  0.00    +0.000 C 
BRANCH  24  25
ATOM     25  C   UNL     1       9.024  11.222  18.388  0.00  0.00    +0.000 C 
ATOM     26  O   UNL     1       9.763  11.818  19.158  0.00  0.00    +0.000 OA
ATOM     27  N   UNL     1       8.313  11.913  17.460  0.00  0.00    +0.000 N 
ATOM     28  H   UNL     1       7.685  11.415  16.808  0.00  0.00    +0.000 HD
BRANCH  27  29
ATOM     29  O   UNL     1       8.370  13.253  17.408  0.00  0.00    +0.000 OA
ATOM     30  H   UNL     1       8.696  13.471  16.497  0.00  0.00    +0.000 HD
ENDBRANCH  27  29
ENDBRANCH  24  25
ENDBRANCH  21  23
ENDBRANCH  16  17
ENDBRANCH   1  16
TORSDOF 8
ENDMDL
MODEL 2
REMARK VINA RESULT:      -8.0      3.211      6.618
REMARK  Name = 
REMARK  9 active torsions:
REMARK  status: ('A' for Active; 'I' for Inactive)
REMARK    1  A    between atoms: C_1  and  C_2
REMARK    2  A    between atoms: C_10  and  C_11
REMARK    3  A    between atoms: C_11  and  C_12
REMARK    4  A    between atoms: C_12  and  N_13
REMARK    5  A    between atoms: N_13  and  C_14
REMARK    6  A    between atoms: C_14  and  C_15
REMARK    7  A    between atoms: C_19  and  C_20
REMARK    8  A    between atoms: C_21  and  C_22
REMARK    9  A    between atoms: N_24  and  O_25
REMARK                            x       y       z     vdW  Elec       q    Type
REMARK                         _______ _______ _______ _____ _____    ______ ____
ROOT
ATOM      1  N   UNL     1       5.249   3.265  18.666  0.00  0.00    +0.000 NA
ATOM      2  H   UNL     1       5.347   4.299  18.812  0.00  0.00    +0.000 HD
ENDROOT
BRANCH   1   3
ATOM      3  C   UNL     1       4.562   3.024  17.393  0.00  0.00    +0.000 C 
BRANCH   3   4
ATOM      4  C   UNL     1       4.329   4.339  16.636  0.00  0.00    +0.000 C 
BRANCH   4  14
ATOM      5  C   UNL     1       6.761   6.267  17.638  0.00  0.00    +0.000 C 
ATOM      6  C   UNL     1       6.603   5.616  16.298  0.00  0.00    +0.000 A 
ATOM      7  N   UNL     1       7.529   5.751  15.321  0.00  0.00    +0.000 N 
ATOM      8  C   UNL     1       7.092   5.029  14.278  0.00  0.00    +0.000 A 
ATOM      9  C   UNL     1       7.728   4.870  13.049  0.00  0.00    +0.000 A 
ATOM     10  C   UNL     1       7.105   4.057  12.088  0.00  0.00    +0.000 A 
ATOM     11  C   UNL     1       5.873   3.430  12.374  0.00  0.00    +0.000 A 
ATOM     12  C   UNL     1       5.253   3.609  13.625  0.00  0.00    +0.000 A 
ATOM     13  C   UNL     1       5.894   4.422  14.566  0.00  0.00    +0.000 A 
ATOM     14  C   UNL     1       5.554   4.786  15.864  0.00  0.00    +0.000 A 
ATOM     15  H   UNL     1       8.410   6.307  15.366  0.00  0.00    +0.000 HD
ENDBRANCH   4  14
ENDBRANCH   3   4
ENDBRANCH   1   3
BRANCH   1  16
ATOM     16  C   UNL     1       4.470   2.706  19.782  0.00  0.00    +0.000 C 
BRANCH  16  17
ATOM     17  C   UNL     1       3.220   3.516  19.992  0.00  0.00    +0.000 A 
ATOM     18  C   UNL     1       1.981   2.906  20.237  0.00  0.00    +0.000 A 
ATOM     19  C   UNL     1       0.838   3.691  20.411  0.00  0.00    +0.000 A 
ATOM     20  C   UNL     1       0.921   5.086  20.331  0.00  0.00    +0.000 A 
ATOM     21  C   UNL     1       2.155   5.713  20.085  0.00  0.00    +0.000 A 
ATOM     22  C   UNL     1       3.301   4.908  19.928  0.00  0.00    +0.000 A 
BRANCH  21  23
ATOM     23  C   UNL     1       2.202   7.198  19.952  0.00  0.00    +0.000 C 
ATOM     24  C   UNL     1       1.632   7.876  18.935  0.00  0.00    +0.000 C 
BRANCH  24  25
ATOM     25  C   UNL     1       1.601   9.351  18.865  0.00  0.00    +0.000 C 
ATOM     26  O   UNL     1       1.097  10.004  19.767  0.00  0.00    +0.000 OA
ATOM     27  N   UNL     1       2.105   9.980  17.772  0.00  0.00    +0.000 N 
ATOM     28  H   UNL     1       2.530   9.433  17.006  0.00  0.00    +0.000 HD
BRANCH  27  29
ATOM     29  O   UNL     1       2.011  11.313  17.642  0.00  0.00    +0.000 OA
ATOM     30  H   UNL     1       2.929  11.660  17.784  0.00  0.00    +0.000 HD
ENDBRANCH  27  29
ENDBRANCH  24  25
ENDBRANCH  21  23
ENDBRANCH  16  17
ENDBRANCH   1  16
TORSDOF 8
ENDMDL
MODEL 3
REMARK VINA RESULT:      -7.7      4.635      6.454
REMARK  Name = 
REMARK  9 active torsions:
REMARK  status: ('A' for Active; 'I' for Inactive)
REMARK    1  A    between atoms: C_1  and  C_2
REMARK    2  A    between atoms: C_10  and  C_11
REMARK    3  A    between atoms: C_11  and  C_12
REMARK    4  A    between atoms: C_12  and  N_13
REMARK    5  A    between atoms: N_13  and  C_14
REMARK    6  A    between atoms: C_14  and  C_15
REMARK    7  A    between atoms: C_19  and  C_20
REMARK    8  A    between atoms: C_21  and  C_22
REMARK    9  A    between atoms: N_24  and  O_25
REMARK                            x       y       z     vdW  Elec       q    Type
REMARK                         _______ _______ _______ _____ _____    ______ ____
ROOT
ATOM      1  N   UNL     1       4.368   7.158  17.456  0.00  0.00    +0.000 NA
ATOM      2  H   UNL     1       4.989   7.862  17.922  0.00  0.00    +0.000 HD
ENDROOT
BRANCH   1   3
ATOM      3  C   UNL     1       4.944   6.797  16.157  0.00  0.00    +0.000 C 
BRANCH   3   4
ATOM      4  C   UNL     1       4.930   5.275  15.953  0.00  0.00    +0.000 C 
BRANCH   4  14
ATOM      5  C   UNL     1       7.410   4.745  18.005  0.00  0.00    +0.000 C 
ATOM      6  C   UNL     1       5.989   4.291  18.150  0.00  0.00    +0.000 A 
ATOM      7  N   UNL     1       5.565   3.596  19.231  0.00  0.00    +0.000 N 
ATOM      8  C   UNL     1       4.254   3.375  19.052  0.00  0.00    +0.000 A 
ATOM      9  C   UNL     1       3.396   2.700  19.918  0.00  0.00    +0.000 A 
ATOM     10  C   UNL     1       2.046   2.587  19.549  0.00  0.00    +0.000 A 
ATOM     11  C   UNL     1       1.589   3.144  18.335  0.00  0.00    +0.000 A 
ATOM     12  C   UNL     1       2.478   3.821  17.479  0.00  0.00    +0.000 A 
ATOM     13  C   UNL     1       3.819   3.921  17.869  0.00  0.00    +0.000 A 
ATOM     14  C   UNL     1       4.919   4.518  17.266  0.00  0.00    +0.000 A 
ATOM     15  H   UNL     1       6.142   3.290  20.045  0.00  0.00    +0.000 HD
ENDBRANCH   4  14
ENDBRANCH   3   4
ENDBRANCH   1   3
BRANCH   1  16
ATOM     16  C   UNL     1       3.035   7.755  17.277  0.00  0.00    +0.000 C 
BRANCH  16  17
ATOM     17  C   UNL     1       2.339   7.868  18.606  0.00  0.00    +0.000 A 
ATOM     18  C   UNL     1       2.445   6.864  19.579  0.00  0.00    +0.000 A 
ATOM     19  C   UNL     1       1.771   6.997  20.795  0.00  0.00    +0.000 A 
ATOM     20  C   UNL     1       0.980   8.124  21.045  0.00  0.00    +0.000 A 
ATOM     21  C   UNL     1       0.863   9.140  20.080  0.00  0.00    +0.000 A 
ATOM     22  C   UNL     1       1.561   8.999  18.864  0.00  0.00    +0.000 A 
BRANCH  21  23
ATOM     23  C   UNL     1      -0.030  10.303  20.354  0.00  0.00    +0.000 C 
ATOM     24  C   UNL     1      -0.716  10.961  19.396  0.00  0.00    +0.000 C 
BRANCH  24  25
ATOM     25  C   UNL     1      -1.671  12.049  19.691  0.00  0.00    +0.000 C 
ATOM     26  O   UNL     1      -1.427  12.867  20.566  0.00  0.00    +0.000 OA
ATOM     27  N   UNL     1      -2.843  12.114  19.009  0.00  0.00    +0.000 N 
ATOM     28  H   UNL     1      -3.054  11.423  18.270  0.00  0.00    +0.000 HD
BRANCH  27  29
ATOM     29  O   UNL     1      -3.766  13.037  19.317  0.00  0.00    +0.000 OA
ATOM     30  H   UNL     1      -3.842  13.616  18.516  0.00  0.00    +0.000 HD
ENDBRANCH  27  29
ENDBRANCH  24  25
ENDBRANCH  21  23
ENDBRANCH  16  17
ENDBRANCH   1  16
TORSDOF 8
ENDMDL
MODEL 4
REMARK VINA RESULT:      -7.6      6.064      8.412
REMARK  Name = 
REMARK  9 active torsions:
REMARK  status: ('A' for Active; 'I' for Inactive)
REMARK    1  A    between atoms: C_1  and  C_2
REMARK    2  A    between atoms: C_10  and  C_11
REMARK    3  A    between atoms: C_11  and  C_12
REMARK    4  A    between atoms: C_12  and  N_13
REMARK    5  A    between atoms: N_13  and  C_14
REMARK    6  A    between atoms: C_14  and  C_15
REMARK    7  A    between atoms: C_19  and  C_20
REMARK    8  A    between atoms: C_21  and  C_22
REMARK    9  A    between atoms: N_24  and  O_25
REMARK                            x       y       z     vdW  Elec       q    Type
REMARK                         _______ _______ _______ _____ _____    ______ ____
ROOT
ATOM      1  N   UNL     1       1.456   8.338  19.956  0.00  0.00    +0.000 NA
ATOM      2  H   UNL     1       1.759   8.825  20.834  0.00  0.00    +0.000 HD
ENDROOT
BRANCH   1   3
ATOM      3  C   UNL     1       2.405   7.262  19.652  0.00  0.00    +0.000 C 
BRANCH   3   4
ATOM      4  C   UNL     1       2.461   6.988  18.143  0.00  0.00    +0.000 C 
BRANCH   4  14
ATOM      5  C   UNL     1       5.257   6.291  16.616  0.00  0.00    +0.000 C 
ATOM      6  C   UNL     1       4.251   5.327  17.167  0.00  0.00    +0.000 A 
ATOM      7  N   UNL     1       4.432   3.987  17.106  0.00  0.00    +0.000 N 
ATOM      8  C   UNL     1       3.369   3.431  17.706  0.00  0.00    +0.000 A 
ATOM      9  C   UNL     1       3.129   2.070  17.884  0.00  0.00    +0.000 A 
ATOM     10  C   UNL     1       1.954   1.692  18.553  0.00  0.00    +0.000 A 
ATOM     11  C   UNL     1       1.054   2.673  19.023  0.00  0.00    +0.000 A 
ATOM     12  C   UNL     1       1.322   4.042  18.829  0.00  0.00    +0.000 A 
ATOM     13  C   UNL     1       2.500   4.393  18.161  0.00  0.00    +0.000 A 
ATOM     14  C   UNL     1       3.044   5.626  17.825  0.00  0.00    +0.000 A 
ATOM     15  H   UNL     1       5.238   3.483  16.677  0.00  0.00    +0.000 HD
ENDBRANCH   4  14
ENDBRANCH   3   4
ENDBRANCH   1   3
BRANCH   1  16
ATOM     16  C   UNL     1       1.428   9.321  18.861  0.00  0.00    +0.000 C 
BRANCH  16  17
ATOM     17  C   UNL     1       0.091  10.008  18.820  0.00  0.00    +0.000 A 
ATOM     18  C   UNL     1      -0.374  10.777  19.897  0.00  0.00    +0.000 A 
ATOM     19  C   UNL     1      -1.629  11.386  19.830  0.00  0.00    +0.000 A 
ATOM     20  C   UNL     1      -2.432  11.224  18.695  0.00  0.00    +0.000 A 
ATOM     21  C   UNL     1      -1.982  10.456  17.607  0.00  0.00    +0.000 A 
ATOM     22  C   UNL     1      -0.707   9.861  17.684  0.00  0.00    +0.000 A 
BRANCH  21  23
ATOM     23  C   UNL     1      -2.883  10.258  16.435  0.00  0.00    +0.000 C 
ATOM     24  C   UNL     1      -2.457  10.266  15.155  0.00  0.00    +0.000 C 
BRANCH  24  25
ATOM     25  C   UNL     1      -3.342   9.973  14.009  0.00  0.00    +0.000 C 
ATOM     26  O   UNL     1      -4.542   9.817  14.176  0.00  0.00    +0.000 OA
ATOM     27  N   UNL     1      -2.807   9.839  12.768  0.00  0.00    +0.000 N 
ATOM     28  H   UNL     1      -1.792   9.968  12.622  0.00  0.00    +0.000 HD
BRANCH  27  29
ATOM     29  O   UNL     1      -3.573   9.486  11.724  0.00  0.00    +0.000 OA
ATOM     30  H   UNL     1      -2.996   9.585  10.924  0.00  0.00    +0.000 HD
ENDBRANCH  27  29
ENDBRANCH  24  25
ENDBRANCH  21  23
ENDBRANCH  16  17
ENDBRANCH   1  16
TORSDOF 8
ENDMDL
MODEL 5
REMARK VINA RESULT:      -7.6      4.288      6.935
REMARK  Name = 
REMARK  9 active torsions:
REMARK  status: ('A' for Active; 'I' for Inactive)
REMARK    1  A    between atoms: C_1  and  C_2
REMARK    2  A    between atoms: C_10  and  C_11
REMARK    3  A    between atoms: C_11  and  C_12
REMARK    4  A    between atoms: C_12  and  N_13
REMARK    5  A    between atoms: N_13  and  C_14
REMARK    6  A    between atoms: C_14  and  C_15
REMARK    7  A    between atoms: C_19  and  C_20
REMARK    8  A    between atoms: C_21  and  C_22
REMARK    9  A    between atoms: N_24  and  O_25
REMARK                            x       y       z     vdW  Elec       q    Type
REMARK                         _______ _______ _______ _____ _____    ______ ____
ROOT
ATOM      1  N   UNL     1       2.248   5.876  21.013  0.00  0.00    +0.000 NA
ATOM      2  H   UNL     1       2.768   6.105  21.894  0.00  0.00    +0.000 HD
ENDROOT
BRANCH   1   3
ATOM      3  C   UNL     1       1.167   6.851  20.828  0.00  0.00    +0.000 C 
BRANCH   3   4
ATOM      4  C   UNL     1       1.702   8.287  20.908  0.00  0.00    +0.000 C 
BRANCH   4  14
ATOM      5  C   UNL     1       2.429   8.241  17.728  0.00  0.00    +0.000 C 
ATOM      6  C   UNL     1       1.467   9.148  18.433  0.00  0.00    +0.000 A 
ATOM      7  N   UNL     1       0.738  10.076  17.771  0.00  0.00    +0.000 N 
ATOM      8  C   UNL     1      -0.026  10.686  18.689  0.00  0.00    +0.000 A 
ATOM      9  C   UNL     1      -0.945  11.710  18.462  0.00  0.00    +0.000 A 
ATOM     10  C   UNL     1      -1.658  12.208  19.564  0.00  0.00    +0.000 A 
ATOM     11  C   UNL     1      -1.439  11.679  20.854  0.00  0.00    +0.000 A 
ATOM     12  C   UNL     1      -0.505  10.644  21.054  0.00  0.00    +0.000 A 
ATOM     13  C   UNL     1       0.193  10.164  19.940  0.00  0.00    +0.000 A 
ATOM     14  C   UNL     1       1.154   9.169  19.805  0.00  0.00    +0.000 A 
ATOM     15  H   UNL     1       0.764  10.279  16.748  0.00  0.00    +0.000 HD
ENDBRANCH   4  14
ENDBRANCH   3   4
ENDBRANCH   1   3
BRANCH   1  16
ATOM     16  C   UNL     1       1.696   4.517  21.134  0.00  0.00    +0.000 C 
BRANCH  16  17
ATOM     17  C   UNL     1       1.992   3.730  19.887  0.00  0.00    +0.000 A 
ATOM     18  C   UNL     1       1.476   2.440  19.691  0.00  0.00    +0.000 A 
ATOM     19  C   UNL     1       1.788   1.733  18.527  0.00  0.00    +0.000 A 
ATOM     20  C   UNL     1       2.622   2.301  17.558  0.00  0.00    +0.000 A 
ATOM     21  C   UNL     1       3.149   3.592  17.738  0.00  0.00    +0.000 A 
ATOM     22  C   UNL     1       2.813   4.299  18.910  0.00  0.00    +0.000 A 
BRANCH  21  23
ATOM     23  C   UNL     1       4.078   4.149  16.713  0.00  0.00    +0.000 C 
ATOM     24  C   UNL     1       4.772   5.293  16.876  0.00  0.00    +0.000 C 
BRANCH  24  25
ATOM     25  C   UNL     1       5.761   5.783  15.894  0.00  0.00    +0.000 C 
ATOM     26  O   UNL     1       5.507   6.746  15.185  0.00  0.00    +0.000 OA
ATOM     27  N   UNL     1       6.945   5.133  15.756  0.00  0.00    +0.000 N 
ATOM     28  H   UNL     1       7.164   4.317  16.351  0.00  0.00    +0.000 HD
BRANCH  27  29
ATOM     29  O   UNL     1       7.825   5.501  14.812  0.00  0.00    +0.000 OA
ATOM     30  H   UNL     1       8.453   6.123  15.261  0.00  0.00    +0.000 HD
ENDBRANCH  27  29
ENDBRANCH  24  25
ENDBRANCH  21  23
ENDBRANCH  16  17
ENDBRANCH   1  16
TORSDOF 8
ENDMDL
MODEL 6
REMARK VINA RESULT:      -7.6      5.123      6.884
REMARK  Name = 
REMARK  9 active torsions:
REMARK  status: ('A' for Active; 'I' for Inactive)
REMARK    1  A    between atoms: C_1  and  C_2
REMARK    2  A    between atoms: C_10  and  C_11
REMARK    3  A    between atoms: C_11  and  C_12
REMARK    4  A    between atoms: C_12  and  N_13
REMARK    5  A    between atoms: N_13  and  C_14
REMARK    6  A    between atoms: C_14  and  C_15
REMARK    7  A    between atoms: C_19  and  C_20
REMARK    8  A    between atoms: C_21  and  C_22
REMARK    9  A    between atoms: N_24  and  O_25
REMARK                            x       y       z     vdW  Elec       q    Type
REMARK                         _______ _______ _______ _____ _____    ______ ____
ROOT
ATOM      1  N   UNL     1       2.211   8.356  17.821  0.00  0.00    +0.000 NA
ATOM      2  H   UNL     1       3.181   8.337  17.424  0.00  0.00    +0.000 HD
ENDROOT
BRANCH   1   3
ATOM      3  C   UNL     1       1.773   9.750  17.950  0.00  0.00    +0.000 C 
BRANCH   3   4
ATOM      4  C   UNL     1       0.250   9.835  18.116  0.00  0.00    +0.000 C 
BRANCH   4  14
ATOM      5  C   UNL     1      -0.497  13.010  18.073  0.00  0.00    +0.000 C 
ATOM      6  C   UNL     1      -0.479  12.090  19.256  0.00  0.00    +0.000 A 
ATOM      7  N   UNL     1      -0.820  12.510  20.496  0.00  0.00    +0.000 N 
ATOM      8  C   UNL     1      -0.719  11.442  21.301  0.00  0.00    +0.000 A 
ATOM      9  C   UNL     1      -0.982  11.401  22.670  0.00  0.00    +0.000 A 
ATOM     10  C   UNL     1      -0.826  10.172  23.332  0.00  0.00    +0.000 A 
ATOM     11  C   UNL     1      -0.415   9.025  22.619  0.00  0.00    +0.000 A 
ATOM     12  C   UNL     1      -0.156   9.095  21.237  0.00  0.00    +0.000 A 
ATOM     13  C   UNL     1      -0.320  10.331  20.600  0.00  0.00    +0.000 A 
ATOM     14  C   UNL     1      -0.156  10.721  19.276  0.00  0.00    +0.000 A 
ATOM     15  H   UNL     1      -1.106  13.474  20.775  0.00  0.00    +0.000 HD
ENDBRANCH   4  14
ENDBRANCH   3   4
ENDBRANCH   1   3
BRANCH   1  16
ATOM     16  C   UNL     1       2.230   7.702  19.139  0.00  0.00    +0.000 C 
BRANCH  16  17
ATOM     17  C   UNL     1       2.734   6.291  19.005  0.00  0.00    +0.000 A 
ATOM     18  C   UNL     1       2.394   5.297  19.934  0.00  0.00    +0.000 A 
ATOM     19  C   UNL     1       2.896   4.001  19.786  0.00  0.00    +0.000 A 
ATOM     20  C   UNL     1       3.747   3.692  18.719  0.00  0.00    +0.000 A 
ATOM     21  C   UNL     1       4.100   4.676  17.780  0.00  0.00    +0.000 A 
ATOM     22  C   UNL     1       3.572   5.974  17.934  0.00  0.00    +0.000 A 
BRANCH  21  23
ATOM     23  C   UNL     1       5.051   4.330  16.685  0.00  0.00    +0.000 C 
ATOM     24  C   UNL     1       5.304   5.133  15.632  0.00  0.00    +0.000 C 
BRANCH  24  25
ATOM     25  C   UNL     1       6.320   4.822  14.605  0.00  0.00    +0.000 C 
ATOM     26  O   UNL     1       6.180   3.858  13.867  0.00  0.00    +0.000 OA
ATOM     27  N   UNL     1       7.433   5.593  14.510  0.00  0.00    +0.000 N 
ATOM     28  H   UNL     1       7.557   6.407  15.133  0.00  0.00    +0.000 HD
BRANCH  27  29
ATOM     29  O   UNL     1       8.413   5.282  13.647  0.00  0.00    +0.000 OA
ATOM     30  H   UNL     1       8.028   5.422  12.744  0.00  0.00    +0.000 HD
ENDBRANCH  27  29
ENDBRANCH  24  25
ENDBRANCH  21  23
ENDBRANCH  16  17
ENDBRANCH   1  16
TORSDOF 8
ENDMDL
MODEL 7
REMARK VINA RESULT:      -7.6      6.397      9.049
REMARK  Name = 
REMARK  9 active torsions:
REMARK  status: ('A' for Active; 'I' for Inactive)
REMARK    1  A    between atoms: C_1  and  C_2
REMARK    2  A    between atoms: C_10  and  C_11
REMARK    3  A    between atoms: C_11  and  C_12
REMARK    4  A    between atoms: C_12  and  N_13
REMARK    5  A    between atoms: N_13  and  C_14
REMARK    6  A    between atoms: C_14  and  C_15
REMARK    7  A    between atoms: C_19  and  C_20
REMARK    8  A    between atoms: C_21  and  C_22
REMARK    9  A    between atoms: N_24  and  O_25
REMARK                            x       y       z     vdW  Elec       q    Type
REMARK                         _______ _______ _______ _____ _____    ______ ____
ROOT
ATOM      1  N   UNL     1       1.321   9.400  17.536  0.00  0.00    +0.000 NA
ATOM      2  H   UNL     1       0.573   8.854  17.046  0.00  0.00    +0.000 HD
ENDROOT
BRANCH   1   3
ATOM      3  C   UNL     1       2.495   8.542  17.726  0.00  0.00    +0.000 C 
BRANCH   3   4
ATOM      4  C   UNL     1       2.264   7.536  18.861  0.00  0.00    +0.000 C 
BRANCH   4  14
ATOM      5  C   UNL     1       1.442   4.664  20.171  0.00  0.00    +0.000 C 
ATOM      6  C   UNL     1       2.458   4.924  19.101  0.00  0.00    +0.000 A 
ATOM      7  N   UNL     1       3.157   3.923  18.516  0.00  0.00    +0.000 N 
ATOM      8  C   UNL     1       3.949   4.497  17.598  0.00  0.00    +0.000 A 
ATOM      9  C   UNL     1       4.842   3.851  16.745  0.00  0.00    +0.000 A 
ATOM     10  C   UNL     1       5.574   4.638  15.842  0.00  0.00    +0.000 A 
ATOM     11  C   UNL     1       5.399   6.038  15.811  0.00  0.00    +0.000 A 
ATOM     12  C   UNL     1       4.489   6.665  16.683  0.00  0.00    +0.000 A 
ATOM     13  C   UNL     1       3.770   5.859  17.574  0.00  0.00    +0.000 A 
ATOM     14  C   UNL     1       2.814   6.162  18.536  0.00  0.00    +0.000 A 
ATOM     15  H   UNL     1       3.095   2.905  18.735  0.00  0.00    +0.000 HD
ENDBRANCH   4  14
ENDBRANCH   3   4
ENDBRANCH   1   3
BRANCH   1  16
ATOM     16  C   UNL     1       0.798   9.847  18.838  0.00  0.00    +0.000 C 
BRANCH  16  17
ATOM     17  C   UNL     1      -0.538  10.512  18.654  0.00  0.00    +0.000 A 
ATOM     18  C   UNL     1      -1.148  11.235  19.690  0.00  0.00    +0.000 A 
ATOM     19  C   UNL     1      -2.398  11.825  19.487  0.00  0.00    +0.000 A 
ATOM     20  C   UNL     1      -3.051  11.690  18.257  0.00  0.00    +0.000 A 
ATOM     21  C   UNL     1      -2.454  10.968  17.208  0.00  0.00    +0.000 A 
ATOM     22  C   UNL     1      -1.186  10.392  17.423  0.00  0.00    +0.000 A 
BRANCH  21  23
ATOM     23  C   UNL     1      -3.199  10.797  15.927  0.00  0.00    +0.000 C 
ATOM     24  C   UNL     1      -2.713  10.124  14.864  0.00  0.00    +0.000 C 
BRANCH  24  25
ATOM     25  C   UNL     1      -3.498   9.879  13.637  0.00  0.00    +0.000 C 
ATOM     26  O   UNL     1      -4.710   9.731  13.696  0.00  0.00    +0.000 OA
ATOM     27  N   UNL     1      -2.859   9.781  12.443  0.00  0.00    +0.000 N 
ATOM     28  H   UNL     1      -1.835   9.903  12.388  0.00  0.00    +0.000 HD
BRANCH  27  29
ATOM     29  O   UNL     1      -3.536   9.472  11.326  0.00  0.00    +0.000 OA
ATOM     30  H   UNL     1      -4.222  10.179  11.224  0.00  0.00    +0.000 HD
ENDBRANCH  27  29
ENDBRANCH  24  25
ENDBRANCH  21  23
ENDBRANCH  16  17
ENDBRANCH   1  16
TORSDOF 8
ENDMDL
MODEL 8
REMARK VINA RESULT:      -7.5      5.119      7.209
REMARK  Name = 
REMARK  9 active torsions:
REMARK  status: ('A' for Active; 'I' for Inactive)
REMARK    1  A    between atoms: C_1  and  C_2
REMARK    2  A    between atoms: C_10  and  C_11
REMARK    3  A    between atoms: C_11  and  C_12
REMARK    4  A    between atoms: C_12  and  N_13
REMARK    5  A    between atoms: N_13  and  C_14
REMARK    6  A    between atoms: C_14  and  C_15
REMARK    7  A    between atoms: C_19  and  C_20
REMARK    8  A    between atoms: C_21  and  C_22
REMARK    9  A    between atoms: N_24  and  O_25
REMARK                            x       y       z     vdW  Elec       q    Type
REMARK                         _______ _______ _______ _____ _____    ______ ____
ROOT
ATOM      1  N   UNL     1       2.559   7.181  18.129  0.00  0.00    +0.000 NA
ATOM      2  H   UNL     1       2.245   6.241  17.790  0.00  0.00    +0.000 HD
ENDROOT
BRANCH   1   3
ATOM      3  C   UNL     1       3.892   7.466  17.585  0.00  0.00    +0.000 C 
BRANCH   3   4
ATOM      4  C   UNL     1       4.442   6.256  16.817  0.00  0.00    +0.000 C 
BRANCH   4  14
ATOM      5  C   UNL     1       7.104   5.581  18.577  0.00  0.00    +0.000 C 
ATOM      6  C   UNL     1       5.844   4.777  18.479  0.00  0.00    +0.000 A 
ATOM      7  N   UNL     1       5.666   3.633  19.180  0.00  0.00    +0.000 N 
ATOM      8  C   UNL     1       4.436   3.189  18.882  0.00  0.00    +0.000 A 
ATOM      9  C   UNL     1       3.820   2.042  19.379  0.00  0.00    +0.000 A 
ATOM     10  C   UNL     1       2.514   1.759  18.946  0.00  0.00    +0.000 A 
ATOM     11  C   UNL     1       1.861   2.619  18.037  0.00  0.00    +0.000 A 
ATOM     12  C   UNL     1       2.508   3.772  17.552  0.00  0.00    +0.000 A 
ATOM     13  C   UNL     1       3.809   4.033  17.998  0.00  0.00    +0.000 A 
ATOM     14  C   UNL     1       4.696   5.066  17.720  0.00  0.00    +0.000 A 
ATOM     15  H   UNL     1       6.350   3.182  19.826  0.00  0.00    +0.000 HD
ENDBRANCH   4  14
ENDBRANCH   3   4
ENDBRANCH   1   3
BRANCH   1  16
ATOM     16  C   UNL     1       2.601   7.161  19.599  0.00  0.00    +0.000 C 
BRANCH  16  17
ATOM     17  C   UNL     1       1.661   8.196  20.154  0.00  0.00    +0.000 A 
ATOM     18  C   UNL     1       1.505   8.383  21.536  0.00  0.00    +0.000 A 
ATOM     19  C   UNL     1       0.611   9.343  22.014  0.00  0.00    +0.000 A 
ATOM     20  C   UNL     1      -0.141  10.114  21.120  0.00  0.00    +0.000 A 
ATOM     21  C   UNL     1       0.002   9.940  19.733  0.00  0.00    +0.000 A 
ATOM     22  C   UNL     1       0.920   8.978  19.266  0.00  0.00    +0.000 A 
BRANCH  21  23
ATOM     23  C   UNL     1      -0.852  10.739  18.807  0.00  0.00    +0.000 C 
ATOM     24  C   UNL     1      -1.880  10.222  18.104  0.00  0.00    +0.000 C 
BRANCH  24  25
ATOM     25  C   UNL     1      -2.778  11.043  17.266  0.00  0.00    +0.000 C 
ATOM     26  O   UNL     1      -3.728  11.628  17.765  0.00  0.00    +0.000 OA
ATOM     27  N   UNL     1      -2.564  11.114  15.927  0.00  0.00    +0.000 N 
ATOM     28  H   UNL     1      -1.764  10.620  15.501  0.00  0.00    +0.000 HD
BRANCH  27  29
ATOM     29  O   UNL     1      -3.414  11.780  15.130  0.00  0.00    +0.000 OA
ATOM     30  H   UNL     1      -4.241  11.234  15.107  0.00  0.00    +0.000 HD
ENDBRANCH  27  29
ENDBRANCH  24  25
ENDBRANCH  21  23
ENDBRANCH  16  17
ENDBRANCH   1  16
TORSDOF 8
ENDMDL
MODEL 9
REMARK VINA RESULT:      -7.5      4.610      7.534
REMARK  Name = 
REMARK  9 active torsions:
REMARK  status: ('A' for Active; 'I' for Inactive)
REMARK    1  A    between atoms: C_1  and  C_2
REMARK    2  A    between atoms: C_10  and  C_11
REMARK    3  A    between atoms: C_11  and  C_12
REMARK    4  A    between atoms: C_12  and  N_13
REMARK    5  A    between atoms: N_13  and  C_14
REMARK    6  A    between atoms: C_14  and  C_15
REMARK    7  A    between atoms: C_19  and  C_20
REMARK    8  A    between atoms: C_21  and  C_22
REMARK    9  A    between atoms: N_24  and  O_25
REMARK                            x       y       z     vdW  Elec       q    Type
REMARK                         _______ _______ _______ _____ _____    ______ ____
ROOT
ATOM      1  N   UNL     1       2.852   4.690  18.230  0.00  0.00    +0.000 NA
ATOM      2  H   UNL     1       2.855   3.846  18.852  0.00  0.00    +0.000 HD
ENDROOT
BRANCH   1   3
ATOM      3  C   UNL     1       3.485   4.346  16.953  0.00  0.00    +0.000 C 
BRANCH   3   4
ATOM      4  C   UNL     1       4.919   3.842  17.168  0.00  0.00    +0.000 C 
BRANCH   4  14
ATOM      5  C   UNL     1       7.067   6.170  17.946  0.00  0.00    +0.000 C 
ATOM      6  C   UNL     1       6.844   5.543  16.604  0.00  0.00    +0.000 A 
ATOM      7  N   UNL     1       7.580   5.885  15.521  0.00  0.00    +0.000 N 
ATOM      8  C   UNL     1       7.141   5.125  14.507  0.00  0.00    +0.000 A 
ATOM      9  C   UNL     1       7.616   5.129  13.196  0.00  0.00    +0.000 A 
ATOM     10  C   UNL     1       7.025   4.242  12.282  0.00  0.00    +0.000 A 
ATOM     11  C   UNL     1       5.985   3.381  12.693  0.00  0.00    +0.000 A 
ATOM     12  C   UNL     1       5.526   3.397  14.024  0.00  0.00    +0.000 A 
ATOM     13  C   UNL     1       6.131   4.289  14.917  0.00  0.00    +0.000 A 
ATOM     14  C   UNL     1       5.918   4.540  16.267  0.00  0.00    +0.000 A 
ATOM     15  H   UNL     1       8.340   6.598  15.480  0.00  0.00    +0.000 HD
ENDBRANCH   4  14
ENDBRANCH   3   4
ENDBRANCH   1   3
BRANCH   1  16
ATOM     16  C   UNL     1       3.600   5.767  18.898  0.00  0.00    +0.000 C 
BRANCH  16  17
ATOM     17  C   UNL     1       2.793   7.036  18.886  0.00  0.00    +0.000 A 
ATOM     18  C   UNL     1       2.748   7.868  17.757  0.00  0.00    +0.000 A 
ATOM     19  C   UNL     1       2.001   9.048  17.789  0.00  0.00    +0.000 A 
ATOM     20  C   UNL     1       1.304   9.412  18.948  0.00  0.00    +0.000 A 
ATOM     21  C   UNL     1       1.339   8.590  20.088  0.00  0.00    +0.000 A 
ATOM     22  C   UNL     1       2.084   7.395  20.034  0.00  0.00    +0.000 A 
BRANCH  21  23
ATOM     23  C   UNL     1       0.630   9.031  21.324  0.00  0.00    +0.000 C 
ATOM     24  C   UNL     1       0.035  10.234  21.455  0.00  0.00    +0.000 C 
BRANCH  24  25
ATOM     25  C   UNL     1      -0.747  10.621  22.648  0.00  0.00    +0.000 C 
ATOM     26  O   UNL     1      -0.506  10.119  23.736  0.00  0.00    +0.000 OA
ATOM     27  N   UNL     1      -1.763  11.513  22.521  0.00  0.00    +0.000 N 
ATOM     28  H   UNL     1      -1.971  11.937  21.603  0.00  0.00    +0.000 HD
BRANCH  27  29
ATOM     29  O   UNL     1      -2.545  11.816  23.569  0.00  0.00    +0.000 OA
ATOM     30  H   UNL     1      -3.293  12.349  23.197  0.00  0.00    +0.000 HD
ENDBRANCH  27  29
ENDBRANCH  24  25
ENDBRANCH  21  23
ENDBRANCH  16  17
ENDBRANCH   1  16
TORSDOF 8
ENDMDL
