MODEL 1
REMARK VINA RESULT:      -7.1      0.000      0.000
REMARK  Name = 
REMARK  2 active torsions:
REMARK  status: ('A' for Active; 'I' for Inactive)
REMARK    1  A    between atoms: C_1  and  C_2
REMARK    2  A    between atoms: C_2  and  C_3
REMARK                            x       y       z     vdW  Elec       q    Type
REMARK                         _______ _______ _______ _____ _____    ______ ____
ROOT
ATOM      1  C   UNL     1       6.451   4.017  15.888  0.00  0.00    +0.000 C 
ATOM      2  C   UNL     1       6.006   4.767  17.141  0.00  0.00    +0.000 C 
ATOM      3  N   UNL     1       6.767   4.337  18.299  0.00  0.00    +0.000 N 
ATOM      4  C   UNL     1       7.244   5.401  19.027  0.00  0.00    +0.000 C 
ATOM      5  O   UNL     1       7.742   5.319  20.134  0.00  0.00    +0.000 OA
ATOM      6  N   UNL     1       7.070   6.529  18.305  0.00  0.00    +0.000 N 
ATOM      7  C   UNL     1       6.455   6.249  17.122  0.00  0.00    +0.000 C 
ATOM      8  O   UNL     1       6.262   7.063  16.230  0.00  0.00    +0.000 OA
ATOM      9  H   UNL     1       6.732   3.414  18.707  0.00  0.00    +0.000 HD
ATOM     10  H   UNL     1       7.399   7.436  18.585  0.00  0.00    +0.000 HD
ENDROOT
BRANCH   2  11
ATOM     11  C   UNL     1       4.500   4.665  17.369  0.00  0.00    +0.000 A 
ATOM     12  C   UNL     1       3.728   5.748  17.832  0.00  0.00    +0.000 A 
ATOM     13  C   UNL     1       2.356   5.622  18.047  0.00  0.00    +0.000 A 
ATOM     14  C   UNL     1       1.720   4.409  17.805  0.00  0.00    +0.000 A 
ATOM     15  C   UNL     1       2.455   3.324  17.336  0.00  0.00    +0.000 A 
ATOM     16  C   UNL     1       3.829   3.451  17.116  0.00  0.00    +0.000 A 
ENDBRANCH   2  11
TORSDOF 1
ENDMDL
MODEL 2
REMARK VINA RESULT:      -7.0      1.768      3.139
REMARK  Name = 
REMARK  2 active torsions:
REMARK  status: ('A' for Active; 'I' for Inactive)
REMARK    1  A    between atoms: C_1  and  C_2
REMARK    2  A    between atoms: C_2  and  C_3
REMARK                            x       y       z     vdW  Elec       q    Type
REMARK                         _______ _______ _______ _____ _____    ______ ____
ROOT
ATOM      1  C   UNL     1       6.391   7.196  17.441  0.00  0.00    +0.000 C 
ATOM      2  C   UNL     1       6.059   5.870  16.763  0.00  0.00    +0.000 C 
ATOM      3  N   UNL     1       6.219   5.970  15.323  0.00  0.00    +0.000 N 
ATOM      4  C   UNL     1       6.944   4.921  14.811  0.00  0.00    +0.000 C 
ATOM      5  O   UNL     1       7.057   4.667  13.627  0.00  0.00    +0.000 OA
ATOM      6  N   UNL     1       7.503   4.242  15.836  0.00  0.00    +0.000 N 
ATOM      7  C   UNL     1       7.140   4.793  17.028  0.00  0.00    +0.000 C 
ATOM      8  O   UNL     1       7.577   4.444  18.116  0.00  0.00    +0.000 OA
ATOM      9  H   UNL     1       5.656   6.547  14.716  0.00  0.00    +0.000 HD
ATOM     10  H   UNL     1       8.140   3.473  15.725  0.00  0.00    +0.000 HD
ENDROOT
BRANCH   2  11
ATOM     11  C   UNL     1       4.677   5.352  17.155  0.00  0.00    +0.000 A 
ATOM     12  C   UNL     1       4.273   4.022  16.928  0.00  0.00    +0.000 A 
ATOM     13  C   UNL     1       2.999   3.580  17.282  0.00  0.00    +0.000 A 
ATOM     14  C   UNL     1       2.095   4.456  17.872  0.00  0.00    +0.000 A 
ATOM     15  C   UNL     1       2.470   5.774  18.120  0.00  0.00    +0.000 A 
ATOM     16  C   UNL     1       3.748   6.217  17.769  0.00  0.00    +0.000 A 
ENDBRANCH   2  11
TORSDOF 1
ENDMDL
MODEL 3
REMARK VINA RESULT:      -7.0      0.167      1.298
REMARK  Name = 
REMARK  2 active torsions:
REMARK  status: ('A' for Active; 'I' for Inactive)
REMARK    1  A    between atoms: C_1  and  C_2
REMARK    2  A    between atoms: C_2  and  C_3
REMARK                            x       y       z     vdW  Elec       q    Type
REMARK                         _______ _______ _______ _____ _____    ______ ____
ROOT
ATOM      1  C   UNL     1       6.603   4.199  15.888  0.00  0.00    +0.000 C 
ATOM      2  C   UNL     1       6.135   4.872  17.176  0.00  0.00    +0.000 C 
ATOM      3  N   UNL     1       6.905   4.403  18.315  0.00  0.00    +0.000 N 
ATOM      4  C   UNL     1       7.351   5.439  19.098  0.00  0.00    +0.000 C 
ATOM      5  O   UNL     1       7.849   5.313  20.201  0.00  0.00    +0.000 OA
ATOM      6  N   UNL     1       7.150   6.599  18.434  0.00  0.00    +0.000 N 
ATOM      7  C   UNL     1       6.545   6.363  17.236  0.00  0.00    +0.000 C 
ATOM      8  O   UNL     1       6.334   7.218  16.386  0.00  0.00    +0.000 OA
ATOM      9  H   UNL     1       6.893   3.459  18.674  0.00  0.00    +0.000 HD
ATOM     10  H   UNL     1       7.455   7.499  18.761  0.00  0.00    +0.000 HD
ENDROOT
BRANCH   2  11
ATOM     11  C   UNL     1       4.632   4.718  17.393  0.00  0.00    +0.000 A 
ATOM     12  C   UNL     1       3.947   3.515  17.135  0.00  0.00    +0.000 A 
ATOM     13  C   UNL     1       2.570   3.407  17.328  0.00  0.00    +0.000 A 
ATOM     14  C   UNL     1       1.842   4.501  17.783  0.00  0.00    +0.000 A 
ATOM     15  C   UNL     1       2.493   5.701  18.058  0.00  0.00    +0.000 A 
ATOM     16  C   UNL     1       3.873   5.807  17.869  0.00  0.00    +0.000 A 
ENDBRANCH   2  11
TORSDOF 1
ENDMDL
MODEL 4
REMARK VINA RESULT:      -6.9      1.727      3.085
REMARK  Name = 
REMARK  2 active torsions:
REMARK  status: ('A' for Active; 'I' for Inactive)
REMARK    1  A    between atoms: C_1  and  C_2
REMARK    2  A    between atoms: C_2  and  C_3
REMARK                            x       y       z     vdW  Elec       q    Type
REMARK                         _______ _______ _______ _____ _____    ______ ____
ROOT
ATOM      1  C   UNL     1       4.646   6.605  17.558  0.00  0.00    +0.000 C 
ATOM      2  C   UNL     1       4.876   5.156  17.140  0.00  0.00    +0.000 C 
ATOM      3  N   UNL     1       5.148   5.064  15.717  0.00  0.00    +0.000 N 
ATOM      4  C   UNL     1       6.246   4.281  15.451  0.00  0.00    +0.000 C 
ATOM      5  O   UNL     1       6.570   3.890  14.345  0.00  0.00    +0.000 OA
ATOM      6  N   UNL     1       6.891   4.035  16.612  0.00  0.00    +0.000 N 
ATOM      7  C   UNL     1       6.229   4.608  17.656  0.00  0.00    +0.000 C 
ATOM      8  O   UNL     1       6.639   4.631  18.808  0.00  0.00    +0.000 OA
ATOM      9  H   UNL     1       4.489   5.285  14.985  0.00  0.00    +0.000 HD
ATOM     10  H   UNL     1       7.765   3.544  16.681  0.00  0.00    +0.000 HD
ENDROOT
BRANCH   2  11
ATOM     11  C   UNL     1       3.728   4.244  17.568  0.00  0.00    +0.000 A 
ATOM     12  C   UNL     1       3.874   2.849  17.691  0.00  0.00    +0.000 A 
ATOM     13  C   UNL     1       2.805   2.037  18.069  0.00  0.00    +0.000 A 
ATOM     14  C   UNL     1       1.561   2.600  18.333  0.00  0.00    +0.000 A 
ATOM     15  C   UNL     1       1.389   3.978  18.232  0.00  0.00    +0.000 A 
ATOM     16  C   UNL     1       2.462   4.792  17.857  0.00  0.00    +0.000 A 
ENDBRANCH   2  11
TORSDOF 1
ENDMDL
MODEL 5
REMARK VINA RESULT:      -6.9      1.709      2.874
REMARK  Name = 
REMARK  2 active torsions:
REMARK  status: ('A' for Active; 'I' for Inactive)
REMARK    1  A    between atoms: C_1  and  C_2
REMARK    2  A    between atoms: C_2  and  C_3
REMARK                            x       y       z     vdW  Elec       q    Type
REMARK                         _______ _______ _______ _____ _____    ______ ____
ROOT
ATOM      1  C   UNL     1       4.503   6.587  17.596  0.00  0.00    +0.000 C 
ATOM      2  C   UNL     1       4.775   5.139  17.196  0.00  0.00    +0.000 C 
ATOM      3  N   UNL     1       5.090   5.043  15.782  0.00  0.00    +0.000 N 
ATOM      4  C   UNL     1       6.211   4.282  15.554  0.00  0.00    +0.000 C 
ATOM      5  O   UNL     1       6.575   3.890  14.461  0.00  0.00    +0.000 OA
ATOM      6  N   UNL     1       6.828   4.058  16.735  0.00  0.00    +0.000 N 
ATOM      7  C   UNL     1       6.124   4.624  17.755  0.00  0.00    +0.000 C 
ATOM      8  O   UNL     1       6.500   4.664  18.919  0.00  0.00    +0.000 OA
ATOM      9  H   UNL     1       4.448   5.245  15.030  0.00  0.00    +0.000 HD
ATOM     10  H   UNL     1       7.709   3.586  16.833  0.00  0.00    +0.000 HD
ENDROOT
BRANCH   2  11
ATOM     11  C   UNL     1       3.635   4.206  17.598  0.00  0.00    +0.000 A 
ATOM     12  C   UNL     1       2.331   4.670  17.856  0.00  0.00    +0.000 A 
ATOM     13  C   UNL     1       1.312   3.798  18.237  0.00  0.00    +0.000 A 
ATOM     14  C   UNL     1       1.571   2.438  18.371  0.00  0.00    +0.000 A 
ATOM     15  C   UNL     1       2.848   1.948  18.111  0.00  0.00    +0.000 A 
ATOM     16  C   UNL     1       3.868   2.821  17.725  0.00  0.00    +0.000 A 
ENDBRANCH   2  11
TORSDOF 1
ENDMDL
MODEL 6
REMARK VINA RESULT:      -6.8      1.718      2.838
REMARK  Name = 
REMARK  2 active torsions:
REMARK  status: ('A' for Active; 'I' for Inactive)
REMARK    1  A    between atoms: C_1  and  C_2
REMARK    2  A    between atoms: C_2  and  C_3
REMARK                            x       y       z     vdW  Elec       q    Type
REMARK                         _______ _______ _______ _____ _____    ______ ____
ROOT
ATOM      1  C   UNL     1       6.523   7.234  17.440  0.00  0.00    +0.000 C 
ATOM      2  C   UNL     1       6.100   5.895  16.841  0.00  0.00    +0.000 C 
ATOM      3  N   UNL     1       6.283   5.891  15.401  0.00  0.00    +0.000 N 
ATOM      4  C   UNL     1       6.934   4.761  14.966  0.00  0.00    +0.000 C 
ATOM      5  O   UNL     1       7.040   4.424  13.803  0.00  0.00    +0.000 OA
ATOM      6  N   UNL     1       7.430   4.110  16.041  0.00  0.00    +0.000 N 
ATOM      7  C   UNL     1       7.096   4.762  17.190  0.00  0.00    +0.000 C 
ATOM      8  O   UNL     1       7.495   4.452  18.304  0.00  0.00    +0.000 OA
ATOM      9  H   UNL     1       5.770   6.468  14.749  0.00  0.00    +0.000 HD
ATOM     10  H   UNL     1       8.009   3.291  15.988  0.00  0.00    +0.000 HD
ENDROOT
BRANCH   2  11
ATOM     11  C   UNL     1       4.680   5.506  17.244  0.00  0.00    +0.000 A 
ATOM     12  C   UNL     1       3.774   6.424  17.809  0.00  0.00    +0.000 A 
ATOM     13  C   UNL     1       2.487   6.038  18.182  0.00  0.00    +0.000 A 
ATOM     14  C   UNL     1       2.073   4.722  18.001  0.00  0.00    +0.000 A 
ATOM     15  C   UNL     1       2.943   3.795  17.434  0.00  0.00    +0.000 A 
ATOM     16  C   UNL     1       4.231   4.183  17.056  0.00  0.00    +0.000 A 
ENDBRANCH   2  11
TORSDOF 1
ENDMDL
MODEL 7
REMARK VINA RESULT:      -6.7      2.332      2.732
REMARK  Name = 
REMARK  2 active torsions:
REMARK  status: ('A' for Active; 'I' for Inactive)
REMARK    1  A    between atoms: C_1  and  C_2
REMARK    2  A    between atoms: C_2  and  C_3
REMARK                            x       y       z     vdW  Elec       q    Type
REMARK                         _______ _______ _______ _____ _____    ______ ____
ROOT
ATOM      1  C   UNL     1       4.157   3.206  17.067  0.00  0.00    +0.000 C 
ATOM      2  C   UNL     1       4.292   4.007  18.360  0.00  0.00    +0.000 C 
ATOM      3  N   UNL     1       5.628   3.876  18.913  0.00  0.00    +0.000 N 
ATOM      4  C   UNL     1       6.164   5.092  19.262  0.00  0.00    +0.000 C 
ATOM      5  O   UNL     1       7.178   5.243  19.916  0.00  0.00    +0.000 OA
ATOM      6  N   UNL     1       5.382   6.069  18.754  0.00  0.00    +0.000 N 
ATOM      7  C   UNL     1       4.313   5.533  18.100  0.00  0.00    +0.000 C 
ATOM      8  O   UNL     1       3.497   6.180  17.459  0.00  0.00    +0.000 OA
ATOM      9  H   UNL     1       6.025   3.020  19.273  0.00  0.00    +0.000 HD
ATOM     10  H   UNL     1       5.594   7.049  18.808  0.00  0.00    +0.000 HD
ENDROOT
BRANCH   2  11
ATOM     11  C   UNL     1       3.209   3.650  19.375  0.00  0.00    +0.000 A 
ATOM     12  C   UNL     1       1.869   4.057  19.229  0.00  0.00    +0.000 A 
ATOM     13  C   UNL     1       0.903   3.730  20.179  0.00  0.00    +0.000 A 
ATOM     14  C   UNL     1       1.252   2.987  21.302  0.00  0.00    +0.000 A 
ATOM     15  C   UNL     1       2.567   2.559  21.468  0.00  0.00    +0.000 A 
ATOM     16  C   UNL     1       3.534   2.884  20.513  0.00  0.00    +0.000 A 
ENDBRANCH   2  11
TORSDOF 1
ENDMDL
MODEL 8
REMARK VINA RESULT:      -6.7      1.961      3.252
REMARK  Name = 
REMARK  2 active torsions:
REMARK  status: ('A' for Active; 'I' for Inactive)
REMARK    1  A    between atoms: C_1  and  C_2
REMARK    2  A    between atoms: C_2  and  C_3
REMARK                            x       y       z     vdW  Elec       q    Type
REMARK                         _______ _______ _______ _____ _____    ______ ____
ROOT
ATOM      1  C   UNL     1       3.739   6.820  17.889  0.00  0.00    +0.000 C 
ATOM      2  C   UNL     1       4.039   5.324  17.896  0.00  0.00    +0.000 C 
ATOM      3  N   UNL     1       4.382   4.858  16.564  0.00  0.00    +0.000 N 
ATOM      4  C   UNL     1       5.518   4.085  16.564  0.00  0.00    +0.000 C 
ATOM      5  O   UNL     1       5.908   3.422  15.622  0.00  0.00    +0.000 OA
ATOM      6  N   UNL     1       6.115   4.198  17.771  0.00  0.00    +0.000 N 
ATOM      7  C   UNL     1       5.385   5.003  18.592  0.00  0.00    +0.000 C 
ATOM      8  O   UNL     1       5.738   5.361  19.707  0.00  0.00    +0.000 OA
ATOM      9  H   UNL     1       3.751   4.839  15.776  0.00  0.00    +0.000 HD
ATOM     10  H   UNL     1       7.002   3.786  18.004  0.00  0.00    +0.000 HD
ENDROOT
BRANCH   2  11
ATOM     11  C   UNL     1       2.906   4.512  18.518  0.00  0.00    +0.000 A 
ATOM     12  C   UNL     1       2.398   3.341  17.923  0.00  0.00    +0.000 A 
ATOM     13  C   UNL     1       1.351   2.626  18.505  0.00  0.00    +0.000 A 
ATOM     14  C   UNL     1       0.784   3.065  19.697  0.00  0.00    +0.000 A 
ATOM     15  C   UNL     1       1.274   4.213  20.315  0.00  0.00    +0.000 A 
ATOM     16  C   UNL     1       2.325   4.926  19.734  0.00  0.00    +0.000 A 
ENDBRANCH   2  11
TORSDOF 1
ENDMDL
MODEL 9
REMARK VINA RESULT:      -6.7      3.226      4.433
REMARK  Name = 
REMARK  2 active torsions:
REMARK  status: ('A' for Active; 'I' for Inactive)
REMARK    1  A    between atoms: C_1  and  C_2
REMARK    2  A    between atoms: C_2  and  C_3
REMARK                            x       y       z     vdW  Elec       q    Type
REMARK                         _______ _______ _______ _____ _____    ______ ____
ROOT
ATOM      1  C   UNL     1       1.080   3.525  19.663  0.00  0.00    +0.000 C 
ATOM      2  C   UNL     1       2.543   3.501  19.226  0.00  0.00    +0.000 C 
ATOM      3  N   UNL     1       3.405   3.099  20.323  0.00  0.00    +0.000 N 
ATOM      4  C   UNL     1       4.300   2.127  19.947  0.00  0.00    +0.000 C 
ATOM      5  O   UNL     1       5.248   1.759  20.614  0.00  0.00    +0.000 OA
ATOM      6  N   UNL     1       3.942   1.659  18.731  0.00  0.00    +0.000 N 
ATOM      7  C   UNL     1       2.845   2.322  18.269  0.00  0.00    +0.000 C 
ATOM      8  O   UNL     1       2.246   2.038  17.241  0.00  0.00    +0.000 OA
ATOM      9  H   UNL     1       3.552   3.630  21.169  0.00  0.00    +0.000 HD
ATOM     10  H   UNL     1       4.395   0.893  18.264  0.00  0.00    +0.000 HD
ENDROOT
BRANCH   2  11
ATOM     11  C   UNL     1       2.980   4.824  18.604  0.00  0.00    +0.000 A 
ATOM     12  C   UNL     1       4.022   4.910  17.660  0.00  0.00    +0.000 A 
ATOM     13  C   UNL     1       4.412   6.135  17.118  0.00  0.00    +0.000 A 
ATOM     14  C   UNL     1       3.770   7.306  17.507  0.00  0.00    +0.000 A 
ATOM     15  C   UNL     1       2.728   7.251  18.429  0.00  0.00    +0.000 A 
ATOM     16  C   UNL     1       2.335   6.024  18.969  0.00  0.00    +0.000 A 
ENDBRANCH   2  11
TORSDOF 1
ENDMDL
