MODEL 1
REMARK VINA RESULT:      -7.7      0.000      0.000
REMARK  Name = 
REMARK  3 active torsions:
REMARK  status: ('A' for Active; 'I' for Inactive)
REMARK    1  A    between atoms: N_1  and  C_2
REMARK    2  A    between atoms: C_2  and  N_4
REMARK    3  A    between atoms: C_16  and  C_17
REMARK                            x       y       z     vdW  Elec       q    Type
REMARK                         _______ _______ _______ _____ _____    ______ ____
ROOT
ATOM      1  N   UNL     1       6.342   5.731  18.680  0.00  0.00    +0.000 N 
ATOM      2  N   UNL     1       5.718   4.838  19.543  0.00  0.00    +0.000 NA
ATOM      3  C   UNL     1       4.462   4.848  19.203  0.00  0.00    +0.000 C 
ATOM      4  C   UNL     1       3.356   4.208  19.916  0.00  0.00    +0.000 A 
ATOM      5  C   UNL     1       3.516   2.979  20.557  0.00  0.00    +0.000 A 
ATOM      6  C   UNL     1       2.406   2.372  21.148  0.00  0.00    +0.000 A 
ATOM      7  C   UNL     1       1.163   3.006  21.121  0.00  0.00    +0.000 A 
ATOM      8  C   UNL     1       1.016   4.249  20.506  0.00  0.00    +0.000 A 
ATOM      9  C   UNL     1       2.114   4.868  19.892  0.00  0.00    +0.000 A 
ATOM     10  C   UNL     1       1.927   6.214  19.225  0.00  0.00    +0.000 C 
ATOM     11  C   UNL     1       3.175   6.789  18.531  0.00  0.00    +0.000 C 
ATOM     12  C   UNL     1       4.086   5.687  18.013  0.00  0.00    +0.000 C 
ATOM     13  C   UNL     1       5.467   6.143  17.567  0.00  0.00    +0.000 C 
ENDROOT
BRANCH  13  14
ATOM     14  C   UNL     1       5.941   5.389  16.338  0.00  0.00    +0.000 A 
ATOM     15  C   UNL     1       6.966   5.718  15.463  0.00  0.00    +0.000 A 
ATOM     16  C   UNL     1       7.072   4.804  14.377  0.00  0.00    +0.000 A 
ATOM     17  C   UNL     1       6.130   3.804  14.457  0.00  0.00    +0.000 A 
ATOM     18  S   UNL     1       5.148   3.952  15.849  0.00  0.00    +0.000 S 
ENDBRANCH  13  14
BRANCH   1  19
ATOM     19  C   UNL     1       7.613   6.210  18.932  0.00  0.00    +0.000 C 
ATOM     20  S   UNL     1       8.271   7.640  18.381  0.00  0.00    +0.000 S 
BRANCH  19  21
ATOM     21  N   UNL     1       8.376   5.400  19.716  0.00  0.00    +0.000 N 
ATOM     22  H   UNL     1       8.070   4.447  19.849  0.00  0.00    +0.000 HD
ATOM     23  H   UNL     1       8.882   5.860  20.463  0.00  0.00    +0.000 HD
ENDBRANCH  19  21
ENDBRANCH   1  19
TORSDOF 3
ENDMDL
MODEL 2
REMARK VINA RESULT:      -7.5      2.532      5.952
REMARK  Name = 
REMARK  3 active torsions:
REMARK  status: ('A' for Active; 'I' for Inactive)
REMARK    1  A    between atoms: N_1  and  C_2
REMARK    2  A    between atoms: C_2  and  N_4
REMARK    3  A    between atoms: C_16  and  C_17
REMARK                            x       y       z     vdW  Elec       q    Type
REMARK                         _______ _______ _______ _____ _____    ______ ____
ROOT
ATOM      1  N   UNL     1       3.073   6.593  18.931  0.00  0.00    +0.000 N 
ATOM      2  N   UNL     1       3.500   6.495  17.611  0.00  0.00    +0.000 NA
ATOM      3  C   UNL     1       4.481   5.641  17.627  0.00  0.00    +0.000 C 
ATOM      4  C   UNL     1       5.382   5.319  16.519  0.00  0.00    +0.000 A 
ATOM      5  C   UNL     1       4.929   5.278  15.201  0.00  0.00    +0.000 A 
ATOM      6  C   UNL     1       5.810   4.882  14.192  0.00  0.00    +0.000 A 
ATOM      7  C   UNL     1       7.133   4.561  14.502  0.00  0.00    +0.000 A 
ATOM      8  C   UNL     1       7.587   4.634  15.819  0.00  0.00    +0.000 A 
ATOM      9  C   UNL     1       6.715   5.014  16.848  0.00  0.00    +0.000 A 
ATOM     10  C   UNL     1       7.231   5.078  18.270  0.00  0.00    +0.000 C 
ATOM     11  C   UNL     1       6.188   5.451  19.339  0.00  0.00    +0.000 C 
ATOM     12  C   UNL     1       4.794   4.988  18.946  0.00  0.00    +0.000 C 
ATOM     13  C   UNL     1       3.661   5.551  19.791  0.00  0.00    +0.000 C 
ENDROOT
BRANCH  13  14
ATOM     14  C   UNL     1       2.572   4.521  20.034  0.00  0.00    +0.000 A 
ATOM     15  C   UNL     1       2.188   3.934  21.230  0.00  0.00    +0.000 A 
ATOM     16  C   UNL     1       1.173   2.952  21.056  0.00  0.00    +0.000 A 
ATOM     17  C   UNL     1       0.809   2.822  19.735  0.00  0.00    +0.000 A 
ATOM     18  S   UNL     1       1.665   3.900  18.720  0.00  0.00    +0.000 S 
ENDBRANCH  13  14
BRANCH   1  19
ATOM     19  C   UNL     1       2.254   7.624  19.349  0.00  0.00    +0.000 C 
ATOM     20  S   UNL     1       1.665   8.875  18.416  0.00  0.00    +0.000 S 
BRANCH  19  21
ATOM     21  N   UNL     1       1.916   7.578  20.667  0.00  0.00    +0.000 N 
ATOM     22  H   UNL     1       2.570   7.151  21.307  0.00  0.00    +0.000 HD
ATOM     23  H   UNL     1       0.926   7.514  20.865  0.00  0.00    +0.000 HD
ENDBRANCH  19  21
ENDBRANCH   1  19
TORSDOF 3
ENDMDL
MODEL 3
REMARK VINA RESULT:      -7.2      2.769      6.036
REMARK  Name = 
REMARK  3 active torsions:
REMARK  status: ('A' for Active; 'I' for Inactive)
REMARK    1  A    between atoms: N_1  and  C_2
REMARK    2  A    between atoms: C_2  and  N_4
REMARK    3  A    between atoms: C_16  and  C_17
REMARK                            x       y       z     vdW  Elec       q    Type
REMARK                         _______ _______ _______ _____ _____    ______ ____
ROOT
ATOM      1  N   UNL     1       3.050   6.557  18.900  0.00  0.00    +0.000 N 
ATOM      2  N   UNL     1       3.486   6.470  17.583  0.00  0.00    +0.000 NA
ATOM      3  C   UNL     1       4.480   5.630  17.602  0.00  0.00    +0.000 C 
ATOM      4  C   UNL     1       5.391   5.326  16.498  0.00  0.00    +0.000 A 
ATOM      5  C   UNL     1       4.947   5.283  15.177  0.00  0.00    +0.000 A 
ATOM      6  C   UNL     1       5.839   4.903  14.172  0.00  0.00    +0.000 A 
ATOM      7  C   UNL     1       7.165   4.600  14.489  0.00  0.00    +0.000 A 
ATOM      8  C   UNL     1       7.611   4.675  15.809  0.00  0.00    +0.000 A 
ATOM      9  C   UNL     1       6.727   5.038  16.834  0.00  0.00    +0.000 A 
ATOM     10  C   UNL     1       7.234   5.105  18.259  0.00  0.00    +0.000 C 
ATOM     11  C   UNL     1       6.179   5.459  19.323  0.00  0.00    +0.000 C 
ATOM     12  C   UNL     1       4.794   4.977  18.920  0.00  0.00    +0.000 C 
ATOM     13  C   UNL     1       3.648   5.521  19.761  0.00  0.00    +0.000 C 
ENDROOT
BRANCH  13  14
ATOM     14  C   UNL     1       2.573   4.475  19.993  0.00  0.00    +0.000 A 
ATOM     15  C   UNL     1       1.600   4.024  19.114  0.00  0.00    +0.000 A 
ATOM     16  C   UNL     1       0.715   3.083  19.712  0.00  0.00    +0.000 A 
ATOM     17  C   UNL     1       1.041   2.841  21.027  0.00  0.00    +0.000 A 
ATOM     18  S   UNL     1       2.422   3.718  21.523  0.00  0.00    +0.000 S 
ENDBRANCH  13  14
BRANCH   1  19
ATOM     19  C   UNL     1       2.214   7.575  19.317  0.00  0.00    +0.000 C 
ATOM     20  S   UNL     1       1.519   7.744  20.824  0.00  0.00    +0.000 S 
BRANCH  19  21
ATOM     21  N   UNL     1       1.954   8.517  18.370  0.00  0.00    +0.000 N 
ATOM     22  H   UNL     1       1.627   8.201  17.468  0.00  0.00    +0.000 HD
ATOM     23  H   UNL     1       2.517   9.357  18.419  0.00  0.00    +0.000 HD
ENDBRANCH  19  21
ENDBRANCH   1  19
TORSDOF 3
ENDMDL
MODEL 4
REMARK VINA RESULT:      -6.9      5.675      7.639
REMARK  Name = 
REMARK  3 active torsions:
REMARK  status: ('A' for Active; 'I' for Inactive)
REMARK    1  A    between atoms: N_1  and  C_2
REMARK    2  A    between atoms: C_2  and  N_4
REMARK    3  A    between atoms: C_16  and  C_17
REMARK                            x       y       z     vdW  Elec       q    Type
REMARK                         _______ _______ _______ _____ _____    ______ ____
ROOT
ATOM      1  N   UNL     1       1.014  11.284  18.688  0.00  0.00    +0.000 N 
ATOM      2  N   UNL     1       1.914  10.334  18.217  0.00  0.00    +0.000 NA
ATOM      3  C   UNL     1       1.559   9.214  18.776  0.00  0.00    +0.000 C 
ATOM      4  C   UNL     1       2.290   7.946  18.741  0.00  0.00    +0.000 A 
ATOM      5  C   UNL     1       2.993   7.542  17.607  0.00  0.00    +0.000 A 
ATOM      6  C   UNL     1       3.601   6.285  17.597  0.00  0.00    +0.000 A 
ATOM      7  C   UNL     1       3.527   5.461  18.722  0.00  0.00    +0.000 A 
ATOM      8  C   UNL     1       2.849   5.885  19.865  0.00  0.00    +0.000 A 
ATOM      9  C   UNL     1       2.218   7.136  19.889  0.00  0.00    +0.000 A 
ATOM     10  C   UNL     1       1.482   7.570  21.139  0.00  0.00    +0.000 C 
ATOM     11  C   UNL     1       0.775   8.934  21.053  0.00  0.00    +0.000 C 
ATOM     12  C   UNL     1       0.323   9.243  19.634  0.00  0.00    +0.000 C 
ATOM     13  C   UNL     1      -0.128  10.676  19.393  0.00  0.00    +0.000 C 
ENDROOT
BRANCH  13  14
ATOM     14  C   UNL     1      -1.311  10.744  18.446  0.00  0.00    +0.000 A 
ATOM     15  C   UNL     1      -1.516  10.046  17.265  0.00  0.00    +0.000 A 
ATOM     16  C   UNL     1      -2.717  10.428  16.605  0.00  0.00    +0.000 A 
ATOM     17  C   UNL     1      -3.396  11.401  17.302  0.00  0.00    +0.000 A 
ATOM     18  S   UNL     1      -2.604  11.826  18.756  0.00  0.00    +0.000 S 
ENDBRANCH  13  14
BRANCH   1  19
ATOM     19  C   UNL     1       1.258  12.637  18.553  0.00  0.00    +0.000 C 
ATOM     20  S   UNL     1       0.583  13.869  19.451  0.00  0.00    +0.000 S 
BRANCH  19  21
ATOM     21  N   UNL     1       2.147  12.956  17.572  0.00  0.00    +0.000 N 
ATOM     22  H   UNL     1       1.878  12.778  16.616  0.00  0.00    +0.000 HD
ATOM     23  H   UNL     1       3.125  12.889  17.826  0.00  0.00    +0.000 HD
ENDBRANCH  19  21
ENDBRANCH   1  19
TORSDOF 3
ENDMDL
MODEL 5
REMARK VINA RESULT:      -6.4      1.277      1.290
REMARK  Name = 
REMARK  3 active torsions:
REMARK  status: ('A' for Active; 'I' for Inactive)
REMARK    1  A    between atoms: N_1  and  C_2
REMARK    2  A    between atoms: C_2  and  N_4
REMARK    3  A    between atoms: C_16  and  C_17
REMARK                            x       y       z     vdW  Elec       q    Type
REMARK                         _______ _______ _______ _____ _____    ______ ____
ROOT
ATOM      1  N   UNL     1       6.346   4.943  17.841  0.00  0.00    +0.000 N 
ATOM      2  N   UNL     1       5.569   4.004  18.509  0.00  0.00    +0.000 NA
ATOM      3  C   UNL     1       4.346   4.233  18.128  0.00  0.00    +0.000 C 
ATOM      4  C   UNL     1       3.130   3.628  18.674  0.00  0.00    +0.000 A 
ATOM      5  C   UNL     1       3.103   2.298  19.094  0.00  0.00    +0.000 A 
ATOM      6  C   UNL     1       1.895   1.747  19.527  0.00  0.00    +0.000 A 
ATOM      7  C   UNL     1       0.740   2.530  19.564  0.00  0.00    +0.000 A 
ATOM      8  C   UNL     1       0.781   3.869  19.172  0.00  0.00    +0.000 A 
ATOM      9  C   UNL     1       1.980   4.436  18.719  0.00  0.00    +0.000 A 
ATOM     10  C   UNL     1       1.996   5.888  18.292  0.00  0.00    +0.000 C 
ATOM     11  C   UNL     1       3.343   6.409  17.759  0.00  0.00    +0.000 C 
ATOM     12  C   UNL     1       4.145   5.303  17.090  0.00  0.00    +0.000 C 
ATOM     13  C   UNL     1       5.595   5.647  16.785  0.00  0.00    +0.000 C 
ENDROOT
BRANCH  13  14
ATOM     14  C   UNL     1       6.049   5.058  15.462  0.00  0.00    +0.000 A 
ATOM     15  C   UNL     1       7.094   5.465  14.647  0.00  0.00    +0.000 A 
ATOM     16  C   UNL     1       7.172   4.713  13.441  0.00  0.00    +0.000 A 
ATOM     17  C   UNL     1       6.189   3.753  13.373  0.00  0.00    +0.000 A 
ATOM     18  S   UNL     1       5.201   3.740  14.769  0.00  0.00    +0.000 S 
ENDBRANCH  13  14
BRANCH   1  19
ATOM     19  C   UNL     1       7.648   5.205  18.222  0.00  0.00    +0.000 C 
ATOM     20  S   UNL     1       8.222   6.606  18.923  0.00  0.00    +0.000 S 
BRANCH  19  21
ATOM     21  N   UNL     1       8.522   4.189  17.984  0.00  0.00    +0.000 N 
ATOM     22  H   UNL     1       9.372   4.160  18.527  0.00  0.00    +0.000 HD
ATOM     23  H   UNL     1       8.536   3.835  17.035  0.00  0.00    +0.000 HD
ENDBRANCH  19  21
ENDBRANCH   1  19
TORSDOF 3
ENDMDL
MODEL 6
REMARK VINA RESULT:      -6.4      6.017      8.133
REMARK  Name = 
REMARK  3 active torsions:
REMARK  status: ('A' for Active; 'I' for Inactive)
REMARK    1  A    between atoms: N_1  and  C_2
REMARK    2  A    between atoms: C_2  and  N_4
REMARK    3  A    between atoms: C_16  and  C_17
REMARK                            x       y       z     vdW  Elec       q    Type
REMARK                         _______ _______ _______ _____ _____    ______ ____
ROOT
ATOM      1  N   UNL     1       0.472  11.713  18.875  0.00  0.00    +0.000 N 
ATOM      2  N   UNL     1       1.421  10.811  18.409  0.00  0.00    +0.000 NA
ATOM      3  C   UNL     1       1.118   9.673  18.964  0.00  0.00    +0.000 C 
ATOM      4  C   UNL     1       1.911   8.443  18.931  0.00  0.00    +0.000 A 
ATOM      5  C   UNL     1       2.641   8.076  17.801  0.00  0.00    +0.000 A 
ATOM      6  C   UNL     1       3.310   6.851  17.792  0.00  0.00    +0.000 A 
ATOM      7  C   UNL     1       3.269   6.022  18.915  0.00  0.00    +0.000 A 
ATOM      8  C   UNL     1       2.563   6.409  20.054  0.00  0.00    +0.000 A 
ATOM      9  C   UNL     1       1.871   7.628  20.076  0.00  0.00    +0.000 A 
ATOM     10  C   UNL     1       1.106   8.021  21.322  0.00  0.00    +0.000 C 
ATOM     11  C   UNL     1       0.333   9.349  21.234  0.00  0.00    +0.000 C 
ATOM     12  C   UNL     1      -0.124   9.639  19.813  0.00  0.00    +0.000 C 
ATOM     13  C   UNL     1      -0.643  11.049  19.572  0.00  0.00    +0.000 C 
ENDROOT
BRANCH  13  14
ATOM     14  C   UNL     1      -1.822  11.060  18.617  0.00  0.00    +0.000 A 
ATOM     15  C   UNL     1      -2.992  11.800  18.696  0.00  0.00    +0.000 A 
ATOM     16  C   UNL     1      -3.907  11.491  17.650  0.00  0.00    +0.000 A 
ATOM     17  C   UNL     1      -3.407  10.528  16.803  0.00  0.00    +0.000 A 
ATOM     18  S   UNL     1      -1.835  10.027  17.250  0.00  0.00    +0.000 S 
ENDBRANCH  13  14
BRANCH   1  19
ATOM     19  C   UNL     1       0.649  13.077  18.745  0.00  0.00    +0.000 C 
ATOM     20  S   UNL     1      -0.230  14.277  19.499  0.00  0.00    +0.000 S 
BRANCH  19  21
ATOM     21  N   UNL     1       1.656  13.438  17.903  0.00  0.00    +0.000 N 
ATOM     22  H   UNL     1       1.805  12.877  17.077  0.00  0.00    +0.000 HD
ATOM     23  H   UNL     1       2.453  13.889  18.338  0.00  0.00    +0.000 HD
ENDBRANCH  19  21
ENDBRANCH   1  19
TORSDOF 3
ENDMDL
MODEL 7
REMARK VINA RESULT:      -6.3      7.188      9.379
REMARK  Name = 
REMARK  3 active torsions:
REMARK  status: ('A' for Active; 'I' for Inactive)
REMARK    1  A    between atoms: N_1  and  C_2
REMARK    2  A    between atoms: C_2  and  N_4
REMARK    3  A    between atoms: C_16  and  C_17
REMARK                            x       y       z     vdW  Elec       q    Type
REMARK                         _______ _______ _______ _____ _____    ______ ____
ROOT
ATOM      1  N   UNL     1      -0.407  12.625  19.664  0.00  0.00    +0.000 N 
ATOM      2  N   UNL     1       0.527  11.858  18.979  0.00  0.00    +0.000 NA
ATOM      3  C   UNL     1       0.361  10.642  19.411  0.00  0.00    +0.000 C 
ATOM      4  C   UNL     1       1.214   9.487  19.127  0.00  0.00    +0.000 A 
ATOM      5  C   UNL     1       1.819   9.316  17.882  0.00  0.00    +0.000 A 
ATOM      6  C   UNL     1       2.552   8.153  17.637  0.00  0.00    +0.000 A 
ATOM      7  C   UNL     1       2.698   7.192  18.639  0.00  0.00    +0.000 A 
ATOM      8  C   UNL     1       2.116   7.383  19.892  0.00  0.00    +0.000 A 
ATOM      9  C   UNL     1       1.362   8.536  20.153  0.00  0.00    +0.000 A 
ATOM     10  C   UNL     1       0.735   8.716  21.518  0.00  0.00    +0.000 C 
ATOM     11  C   UNL     1      -0.119   9.985  21.694  0.00  0.00    +0.000 C 
ATOM     12  C   UNL     1      -0.762  10.413  20.384  0.00  0.00    +0.000 C 
ATOM     13  C   UNL     1      -1.388  11.800  20.392  0.00  0.00    +0.000 C 
ENDROOT
BRANCH  13  14
ATOM     14  C   UNL     1      -2.674  11.843  19.587  0.00  0.00    +0.000 A 
ATOM     15  C   UNL     1      -2.916  11.349  18.314  0.00  0.00    +0.000 A 
ATOM     16  C   UNL     1      -4.231  11.641  17.854  0.00  0.00    +0.000 A 
ATOM     17  C   UNL     1      -4.955  12.343  18.790  0.00  0.00    +0.000 A 
ATOM     18  S   UNL     1      -4.063  12.619  20.222  0.00  0.00    +0.000 S 
ENDBRANCH  13  14
BRANCH   1  19
ATOM     19  C   UNL     1      -0.326  14.004  19.694  0.00  0.00    +0.000 C 
ATOM     20  S   UNL     1      -0.075  14.963  21.035  0.00  0.00    +0.000 S 
BRANCH  19  21
ATOM     21  N   UNL     1      -0.473  14.605  18.481  0.00  0.00    +0.000 N 
ATOM     22  H   UNL     1       0.039  14.222  17.700  0.00  0.00    +0.000 HD
ATOM     23  H   UNL     1      -0.660  15.600  18.503  0.00  0.00    +0.000 HD
ENDBRANCH  19  21
ENDBRANCH   1  19
TORSDOF 3
ENDMDL
MODEL 8
REMARK VINA RESULT:      -6.2      6.659      8.907
REMARK  Name = 
REMARK  3 active torsions:
REMARK  status: ('A' for Active; 'I' for Inactive)
REMARK    1  A    between atoms: N_1  and  C_2
REMARK    2  A    between atoms: C_2  and  N_4
REMARK    3  A    between atoms: C_16  and  C_17
REMARK                            x       y       z     vdW  Elec       q    Type
REMARK                         _______ _______ _______ _____ _____    ______ ____
ROOT
ATOM      1  N   UNL     1      -0.008  12.361  19.438  0.00  0.00    +0.000 N 
ATOM      2  N   UNL     1       0.927  11.548  18.808  0.00  0.00    +0.000 NA
ATOM      3  C   UNL     1       0.690  10.345  19.244  0.00  0.00    +0.000 C 
ATOM      4  C   UNL     1       1.508   9.153  19.016  0.00  0.00    +0.000 A 
ATOM      5  C   UNL     1       2.167   8.942  17.805  0.00  0.00    +0.000 A 
ATOM      6  C   UNL     1       2.863   7.748  17.609  0.00  0.00    +0.000 A 
ATOM      7  C   UNL     1       2.920   6.794  18.627  0.00  0.00    +0.000 A 
ATOM      8  C   UNL     1       2.284   7.024  19.848  0.00  0.00    +0.000 A 
ATOM      9  C   UNL     1       1.566   8.210  20.058  0.00  0.00    +0.000 A 
ATOM     10  C   UNL     1       0.879   8.432  21.388  0.00  0.00    +0.000 C 
ATOM     11  C   UNL     1       0.071   9.737  21.507  0.00  0.00    +0.000 C 
ATOM     12  C   UNL     1      -0.489  10.174  20.162  0.00  0.00    +0.000 C 
ATOM     13  C   UNL     1      -1.057  11.585  20.123  0.00  0.00    +0.000 C 
ENDROOT
BRANCH  13  14
ATOM     14  C   UNL     1      -2.299  11.669  19.255  0.00  0.00    +0.000 A 
ATOM     15  C   UNL     1      -3.529  12.233  19.557  0.00  0.00    +0.000 A 
ATOM     16  C   UNL     1      -4.483  12.057  18.515  0.00  0.00    +0.000 A 
ATOM     17  C   UNL     1      -3.952  11.369  17.448  0.00  0.00    +0.000 A 
ATOM     18  S   UNL     1      -2.307  10.968  17.691  0.00  0.00    +0.000 S 
ENDBRANCH  13  14
BRANCH   1  19
ATOM     19  C   UNL     1       0.127  13.735  19.457  0.00  0.00    +0.000 C 
ATOM     20  S   UNL     1       1.004  14.639  20.550  0.00  0.00    +0.000 S 
BRANCH  19  21
ATOM     21  N   UNL     1      -0.541  14.382  18.463  0.00  0.00    +0.000 N 
ATOM     22  H   UNL     1      -1.205  13.852  17.917  0.00  0.00    +0.000 HD
ATOM     23  H   UNL     1      -0.041  15.143  18.019  0.00  0.00    +0.000 HD
ENDBRANCH  19  21
ENDBRANCH   1  19
TORSDOF 3
ENDMDL
MODEL 9
REMARK VINA RESULT:      -6.2      7.178      9.235
REMARK  Name = 
REMARK  3 active torsions:
REMARK  status: ('A' for Active; 'I' for Inactive)
REMARK    1  A    between atoms: N_1  and  C_2
REMARK    2  A    between atoms: C_2  and  N_4
REMARK    3  A    between atoms: C_16  and  C_17
REMARK                            x       y       z     vdW  Elec       q    Type
REMARK                         _______ _______ _______ _____ _____    ______ ____
ROOT
ATOM      1  N   UNL     1       0.310  11.735  18.790  0.00  0.00    +0.000 N 
ATOM      2  N   UNL     1      -0.851  12.358  19.233  0.00  0.00    +0.000 NA
ATOM      3  C   UNL     1      -1.825  11.581  18.857  0.00  0.00    +0.000 C 
ATOM      4  C   UNL     1      -3.258  11.873  18.931  0.00  0.00    +0.000 A 
ATOM      5  C   UNL     1      -3.801  12.595  19.994  0.00  0.00    +0.000 A 
ATOM      6  C   UNL     1      -5.184  12.771  20.059  0.00  0.00    +0.000 A 
ATOM      7  C   UNL     1      -6.005  12.254  19.055  0.00  0.00    +0.000 A 
ATOM      8  C   UNL     1      -5.452  11.560  17.978  0.00  0.00    +0.000 A 
ATOM      9  C   UNL     1      -4.067  11.358  17.903  0.00  0.00    +0.000 A 
ATOM     10  C   UNL     1      -3.494  10.596  16.728  0.00  0.00    +0.000 C 
ATOM     11  C   UNL     1      -1.970  10.377  16.759  0.00  0.00    +0.000 C 
ATOM     12  C   UNL     1      -1.446  10.291  18.184  0.00  0.00    +0.000 C 
ATOM     13  C   UNL     1       0.068  10.359  18.323  0.00  0.00    +0.000 C 
ENDROOT
BRANCH  13  14
ATOM     14  C   UNL     1       0.576   9.434  19.413  0.00  0.00    +0.000 A 
ATOM     15  C   UNL     1       0.213   9.390  20.751  0.00  0.00    +0.000 A 
ATOM     16  C   UNL     1       0.961   8.432  21.490  0.00  0.00    +0.000 A 
ATOM     17  C   UNL     1       1.868   7.769  20.696  0.00  0.00    +0.000 A 
ATOM     18  S   UNL     1       1.794   8.280  19.066  0.00  0.00    +0.000 S 
ENDBRANCH  13  14
BRANCH   1  19
ATOM     19  C   UNL     1       1.515  12.410  18.737  0.00  0.00    +0.000 C 
ATOM     20  S   UNL     1       2.170  13.381  19.924  0.00  0.00    +0.000 S 
BRANCH  19  21
ATOM     21  N   UNL     1       2.209  12.237  17.579  0.00  0.00    +0.000 N 
ATOM     22  H   UNL     1       1.726  11.819  16.797  0.00  0.00    +0.000 HD
ATOM     23  H   UNL     1       3.203  12.076  17.682  0.00  0.00    +0.000 HD
ENDBRANCH  19  21
ENDBRANCH   1  19
TORSDOF 3
ENDMDL
