MODEL 1
REMARK VINA RESULT:      -7.4      0.000      0.000
REMARK  Name = 
REMARK  3 active torsions:
REMARK  status: ('A' for Active; 'I' for Inactive)
REMARK    1  A    between atoms: S_2  and  C_4
REMARK    2  A    between atoms: S_2  and  C_15
REMARK    3  A    between atoms: C_4  and  C_5
REMARK                            x       y       z     vdW  Elec       q    Type
REMARK                         _______ _______ _______ _____ _____    ______ ____
ROOT
ATOM      1  C   UNL     1       6.599   6.384  17.361  0.00  0.00    +0.000 C 
ENDROOT
BRANCH   1   2
ATOM      2  C   UNL     1       6.443   5.655  16.076  0.00  0.00    +0.000 A 
ATOM      3  C   UNL     1       5.396   4.876  15.625  0.00  0.00    +0.000 A 
ATOM      4  N   UNL     1       5.749   4.461  14.365  0.00  0.00    +0.000 N 
ATOM      5  C   UNL     1       5.035   3.696  13.450  0.00  0.00    +0.000 A 
ATOM      6  C   UNL     1       5.595   3.421  12.261  0.00  0.00    +0.000 A 
ATOM      7 CL   UNL     1       4.772   2.493  11.072  0.00  0.00    +0.000 Cl
ATOM      8  C   UNL     1       6.931   3.919  11.968  0.00  0.00    +0.000 A 
ATOM      9  C   UNL     1       7.614   4.659  12.864  0.00  0.00    +0.000 A 
ATOM     10  C   UNL     1       7.023   4.965  14.122  0.00  0.00    +0.000 A 
ATOM     11  N   UNL     1       7.463   5.667  15.146  0.00  0.00    +0.000 NA
ENDBRANCH   1   2
BRANCH   1  13
ATOM     12  O   UNL     1       7.478   4.064  18.339  0.00  0.00    +0.000 OA
ATOM     13  S   UNL     1       6.823   5.288  18.761  0.00  0.00    +0.000 S 
ATOM     14  O   UNL     1       7.335   6.053  19.885  0.00  0.00    +0.000 OA
BRANCH  13  15
ATOM     15  C   UNL     1       5.140   4.848  19.167  0.00  0.00    +0.000 A 
ATOM     16  C   UNL     1       4.186   5.858  19.324  0.00  0.00    +0.000 A 
ATOM     17  C   UNL     1       2.884   5.519  19.698  0.00  0.00    +0.000 A 
ATOM     18  C   UNL     1       2.546   4.180  19.899  0.00  0.00    +0.000 A 
ATOM     19 CL   UNL     1       0.957   3.770  20.413  0.00  0.00    +0.000 Cl
ATOM     20  C   UNL     1       3.490   3.171  19.698  0.00  0.00    +0.000 A 
ATOM     21  C   UNL     1       4.794   3.502  19.322  0.00  0.00    +0.000 A 
ENDBRANCH  13  15
ENDBRANCH   1  13
TORSDOF 3
ENDMDL
MODEL 2
REMARK VINA RESULT:      -7.3      0.229      1.083
REMARK  Name = 
REMARK  3 active torsions:
REMARK  status: ('A' for Active; 'I' for Inactive)
REMARK    1  A    between atoms: S_2  and  C_4
REMARK    2  A    between atoms: S_2  and  C_15
REMARK    3  A    between atoms: C_4  and  C_5
REMARK                            x       y       z     vdW  Elec       q    Type
REMARK                         _______ _______ _______ _____ _____    ______ ____
ROOT
ATOM      1  C   UNL     1       6.335   6.339  17.425  0.00  0.00    +0.000 C 
ENDROOT
BRANCH   1   2
ATOM      2  C   UNL     1       6.274   5.618  16.127  0.00  0.00    +0.000 A 
ATOM      3  C   UNL     1       5.295   4.782  15.628  0.00  0.00    +0.000 A 
ATOM      4  N   UNL     1       5.721   4.405  14.378  0.00  0.00    +0.000 N 
ATOM      5  C   UNL     1       5.091   3.610  13.428  0.00  0.00    +0.000 A 
ATOM      6  C   UNL     1       5.713   3.384  12.260  0.00  0.00    +0.000 A 
ATOM      7 CL   UNL     1       4.995   2.423  11.029  0.00  0.00    +0.000 Cl
ATOM      8  C   UNL     1       7.027   3.966  12.024  0.00  0.00    +0.000 A 
ATOM      9  C   UNL     1       7.628   4.735  12.954  0.00  0.00    +0.000 A 
ATOM     10  C   UNL     1       6.971   4.989  14.191  0.00  0.00    +0.000 A 
ATOM     11  N   UNL     1       7.327   5.704  15.238  0.00  0.00    +0.000 NA
ENDBRANCH   1   2
BRANCH   1  13
ATOM     12  O   UNL     1       7.402   4.078  18.354  0.00  0.00    +0.000 OA
ATOM     13  S   UNL     1       6.685   5.255  18.809  0.00  0.00    +0.000 S 
ATOM     14  O   UNL     1       7.188   6.048  19.917  0.00  0.00    +0.000 OA
BRANCH  13  15
ATOM     15  C   UNL     1       5.051   4.704  19.276  0.00  0.00    +0.000 A 
ATOM     16  C   UNL     1       4.796   3.334  19.391  0.00  0.00    +0.000 A 
ATOM     17  C   UNL     1       3.505   2.901  19.698  0.00  0.00    +0.000 A 
ATOM     18  C   UNL     1       2.489   3.835  19.902  0.00  0.00    +0.000 A 
ATOM     19 CL   UNL     1       0.889   3.296  20.228  0.00  0.00    +0.000 Cl
ATOM     20  C   UNL     1       2.758   5.203  19.832  0.00  0.00    +0.000 A 
ATOM     21  C   UNL     1       4.047   5.646  19.525  0.00  0.00    +0.000 A 
ENDBRANCH  13  15
ENDBRANCH   1  13
TORSDOF 3
ENDMDL
MODEL 3
REMARK VINA RESULT:      -7.3      3.595      7.096
REMARK  Name = 
REMARK  3 active torsions:
REMARK  status: ('A' for Active; 'I' for Inactive)
REMARK    1  A    between atoms: S_2  and  C_4
REMARK    2  A    between atoms: S_2  and  C_15
REMARK    3  A    between atoms: C_4  and  C_5
REMARK                            x       y       z     vdW  Elec       q    Type
REMARK                         _______ _______ _______ _____ _____    ______ ____
ROOT
ATOM      1  C   UNL     1       3.223   4.492  18.754  0.00  0.00    +0.000 C 
ENDROOT
BRANCH   1   2
ATOM      2  C   UNL     1       2.684   5.859  18.970  0.00  0.00    +0.000 A 
ATOM      3  C   UNL     1       2.098   6.410  20.093  0.00  0.00    +0.000 A 
ATOM      4  N   UNL     1       1.804   7.710  19.766  0.00  0.00    +0.000 N 
ATOM      5  C   UNL     1       1.250   8.717  20.548  0.00  0.00    +0.000 A 
ATOM      6  C   UNL     1       1.059   9.929  20.001  0.00  0.00    +0.000 A 
ATOM      7 CL   UNL     1       0.393  11.229  20.905  0.00  0.00    +0.000 Cl
ATOM      8  C   UNL     1       1.425  10.151  18.609  0.00  0.00    +0.000 A 
ATOM      9  C   UNL     1       1.961   9.165  17.861  0.00  0.00    +0.000 A 
ATOM     10  C   UNL     1       2.177   7.881  18.437  0.00  0.00    +0.000 A 
ATOM     11  N   UNL     1       2.688   6.776  17.937  0.00  0.00    +0.000 NA
ENDBRANCH   1   2
BRANCH   1  13
ATOM     12  O   UNL     1       5.458   5.579  19.721  0.00  0.00    +0.000 OA
ATOM     13  S   UNL     1       4.987   4.383  19.046  0.00  0.00    +0.000 S 
ATOM     14  O   UNL     1       5.302   3.065  19.569  0.00  0.00    +0.000 OA
BRANCH  13  15
ATOM     15  C   UNL     1       5.648   4.446  17.387  0.00  0.00    +0.000 A 
ATOM     16  C   UNL     1       7.005   4.727  17.200  0.00  0.00    +0.000 A 
ATOM     17  C   UNL     1       7.509   4.833  15.902  0.00  0.00    +0.000 A 
ATOM     18  C   UNL     1       6.661   4.646  14.810  0.00  0.00    +0.000 A 
ATOM     19 CL   UNL     1       7.274   4.832  13.213  0.00  0.00    +0.000 Cl
ATOM     20  C   UNL     1       5.317   4.321  15.001  0.00  0.00    +0.000 A 
ATOM     21  C   UNL     1       4.804   4.211  16.296  0.00  0.00    +0.000 A 
ENDBRANCH  13  15
ENDBRANCH   1  13
TORSDOF 3
ENDMDL
MODEL 4
REMARK VINA RESULT:      -7.3      3.561      7.047
REMARK  Name = 
REMARK  3 active torsions:
REMARK  status: ('A' for Active; 'I' for Inactive)
REMARK    1  A    between atoms: S_2  and  C_4
REMARK    2  A    between atoms: S_2  and  C_15
REMARK    3  A    between atoms: C_4  and  C_5
REMARK                            x       y       z     vdW  Elec       q    Type
REMARK                         _______ _______ _______ _____ _____    ______ ____
ROOT
ATOM      1  C   UNL     1       3.240   4.448  18.872  0.00  0.00    +0.000 C 
ENDROOT
BRANCH   1   2
ATOM      2  C   UNL     1       2.702   5.824  19.033  0.00  0.00    +0.000 A 
ATOM      3  C   UNL     1       2.094   6.411  20.125  0.00  0.00    +0.000 A 
ATOM      4  N   UNL     1       1.812   7.702  19.751  0.00  0.00    +0.000 N 
ATOM      5  C   UNL     1       1.245   8.735  20.488  0.00  0.00    +0.000 A 
ATOM      6  C   UNL     1       1.071   9.929  19.899  0.00  0.00    +0.000 A 
ATOM      7 CL   UNL     1       0.390  11.260  20.746  0.00  0.00    +0.000 Cl
ATOM      8  C   UNL     1       1.467  10.105  18.509  0.00  0.00    +0.000 A 
ATOM      9  C   UNL     1       2.015   9.094  17.804  0.00  0.00    +0.000 A 
ATOM     10  C   UNL     1       2.214   7.829  18.425  0.00  0.00    +0.000 A 
ATOM     11  N   UNL     1       2.732   6.707  17.971  0.00  0.00    +0.000 NA
ENDBRANCH   1   2
BRANCH   1  13
ATOM     12  O   UNL     1       5.505   5.569  19.724  0.00  0.00    +0.000 OA
ATOM     13  S   UNL     1       5.019   4.368  19.070  0.00  0.00    +0.000 S 
ATOM     14  O   UNL     1       5.382   3.054  19.571  0.00  0.00    +0.000 OA
BRANCH  13  15
ATOM     15  C   UNL     1       5.590   4.445  17.380  0.00  0.00    +0.000 A 
ATOM     16  C   UNL     1       4.698   4.159  16.341  0.00  0.00    +0.000 A 
ATOM     17  C   UNL     1       5.158   4.162  15.023  0.00  0.00    +0.000 A 
ATOM     18  C   UNL     1       6.494   4.462  14.754  0.00  0.00    +0.000 A 
ATOM     19 CL   UNL     1       7.070   4.412  13.134  0.00  0.00    +0.000 Cl
ATOM     20  C   UNL     1       7.371   4.792  15.790  0.00  0.00    +0.000 A 
ATOM     21  C   UNL     1       6.918   4.792  17.112  0.00  0.00    +0.000 A 
ENDBRANCH  13  15
ENDBRANCH   1  13
TORSDOF 3
ENDMDL
MODEL 5
REMARK VINA RESULT:      -7.1      3.477      4.491
REMARK  Name = 
REMARK  3 active torsions:
REMARK  status: ('A' for Active; 'I' for Inactive)
REMARK    1  A    between atoms: S_2  and  C_4
REMARK    2  A    between atoms: S_2  and  C_15
REMARK    3  A    between atoms: C_4  and  C_5
REMARK                            x       y       z     vdW  Elec       q    Type
REMARK                         _______ _______ _______ _____ _____    ______ ____
ROOT
ATOM      1  C   UNL     1       3.572   2.619  20.159  0.00  0.00    +0.000 C 
ENDROOT
BRANCH   1   2
ATOM      2  C   UNL     1       4.395   3.194  19.064  0.00  0.00    +0.000 A 
ATOM      3  C   UNL     1       4.411   2.889  17.718  0.00  0.00    +0.000 A 
ATOM      4  N   UNL     1       5.335   3.731  17.150  0.00  0.00    +0.000 N 
ATOM      5  C   UNL     1       5.706   3.873  15.818  0.00  0.00    +0.000 A 
ATOM      6  C   UNL     1       6.643   4.781  15.501  0.00  0.00    +0.000 A 
ATOM      7 CL   UNL     1       7.145   5.027  13.876  0.00  0.00    +0.000 Cl
ATOM      8  C   UNL     1       7.250   5.580  16.556  0.00  0.00    +0.000 A 
ATOM      9  C   UNL     1       6.883   5.432  17.845  0.00  0.00    +0.000 A 
ATOM     10  C   UNL     1       5.882   4.480  18.188  0.00  0.00    +0.000 A 
ATOM     11  N   UNL     1       5.344   4.157  19.346  0.00  0.00    +0.000 NA
ENDBRANCH   1   2
BRANCH   1  13
ATOM     12  O   UNL     1       1.199   2.343  18.974  0.00  0.00    +0.000 OA
ATOM     13  S   UNL     1       1.844   3.078  20.047  0.00  0.00    +0.000 S 
ATOM     14  O   UNL     1       1.270   3.095  21.381  0.00  0.00    +0.000 OA
BRANCH  13  15
ATOM     15  C   UNL     1       1.940   4.778  19.511  0.00  0.00    +0.000 A 
ATOM     16  C   UNL     1       1.952   5.066  18.142  0.00  0.00    +0.000 A 
ATOM     17  C   UNL     1       2.087   6.391  17.722  0.00  0.00    +0.000 A 
ATOM     18  C   UNL     1       2.193   7.412  18.667  0.00  0.00    +0.000 A 
ATOM     19 CL   UNL     1       2.413   9.036  18.146  0.00  0.00    +0.000 Cl
ATOM     20  C   UNL     1       2.135   7.125  20.032  0.00  0.00    +0.000 A 
ATOM     21  C   UNL     1       2.000   5.803  20.461  0.00  0.00    +0.000 A 
ENDBRANCH  13  15
ENDBRANCH   1  13
TORSDOF 3
ENDMDL
MODEL 6
REMARK VINA RESULT:      -7.1      3.833      7.278
REMARK  Name = 
REMARK  3 active torsions:
REMARK  status: ('A' for Active; 'I' for Inactive)
REMARK    1  A    between atoms: S_2  and  C_4
REMARK    2  A    between atoms: S_2  and  C_15
REMARK    3  A    between atoms: C_4  and  C_5
REMARK                            x       y       z     vdW  Elec       q    Type
REMARK                         _______ _______ _______ _____ _____    ______ ____
ROOT
ATOM      1  C   UNL     1       3.080   4.700  18.671  0.00  0.00    +0.000 C 
ENDROOT
BRANCH   1   2
ATOM      2  C   UNL     1       2.588   6.077  18.933  0.00  0.00    +0.000 A 
ATOM      3  C   UNL     1       2.519   7.166  18.085  0.00  0.00    +0.000 A 
ATOM      4  N   UNL     1       1.963   8.182  18.822  0.00  0.00    +0.000 N 
ATOM      5  C   UNL     1       1.629   9.476  18.437  0.00  0.00    +0.000 A 
ATOM      6  C   UNL     1       1.083  10.300  19.347  0.00  0.00    +0.000 A 
ATOM      7 CL   UNL     1       0.630  11.908  18.947  0.00  0.00    +0.000 Cl
ATOM      8  C   UNL     1       0.868   9.822  20.705  0.00  0.00    +0.000 A 
ATOM      9  C   UNL     1       1.197   8.566  21.066  0.00  0.00    +0.000 A 
ATOM     10  C   UNL     1       1.765   7.682  20.105  0.00  0.00    +0.000 A 
ATOM     11  N   UNL     1       2.153   6.428  20.195  0.00  0.00    +0.000 NA
ENDBRANCH   1   2
BRANCH   1  13
ATOM     12  O   UNL     1       5.328   5.670  19.729  0.00  0.00    +0.000 OA
ATOM     13  S   UNL     1       4.825   4.503  19.027  0.00  0.00    +0.000 S 
ATOM     14  O   UNL     1       5.054   3.168  19.552  0.00  0.00    +0.000 OA
BRANCH  13  15
ATOM     15  C   UNL     1       5.549   4.542  17.395  0.00  0.00    +0.000 A 
ATOM     16  C   UNL     1       6.932   4.703  17.262  0.00  0.00    +0.000 A 
ATOM     17  C   UNL     1       7.491   4.793  15.986  0.00  0.00    +0.000 A 
ATOM     18  C   UNL     1       6.671   4.707  14.861  0.00  0.00    +0.000 A 
ATOM     19 CL   UNL     1       7.357   4.872  13.292  0.00  0.00    +0.000 Cl
ATOM     20  C   UNL     1       5.297   4.501  14.997  0.00  0.00    +0.000 A 
ATOM     21  C   UNL     1       4.729   4.409  16.270  0.00  0.00    +0.000 A 
ENDBRANCH  13  15
ENDBRANCH   1  13
TORSDOF 3
ENDMDL
MODEL 7
REMARK VINA RESULT:      -7.1      2.098      6.475
REMARK  Name = 
REMARK  3 active torsions:
REMARK  status: ('A' for Active; 'I' for Inactive)
REMARK    1  A    between atoms: S_2  and  C_4
REMARK    2  A    between atoms: S_2  and  C_15
REMARK    3  A    between atoms: C_4  and  C_5
REMARK                            x       y       z     vdW  Elec       q    Type
REMARK                         _______ _______ _______ _____ _____    ______ ____
ROOT
ATOM      1  C   UNL     1       5.322   6.786  17.303  0.00  0.00    +0.000 C 
ENDROOT
BRANCH   1   2
ATOM      2  C   UNL     1       4.404   5.882  18.043  0.00  0.00    +0.000 A 
ATOM      3  C   UNL     1       4.462   5.443  19.351  0.00  0.00    +0.000 A 
ATOM      4  N   UNL     1       3.357   4.648  19.532  0.00  0.00    +0.000 N 
ATOM      5  C   UNL     1       2.911   3.996  20.676  0.00  0.00    +0.000 A 
ATOM      6  C   UNL     1       1.784   3.270  20.607  0.00  0.00    +0.000 A 
ATOM      7 CL   UNL     1       1.160   2.446  21.980  0.00  0.00    +0.000 Cl
ATOM      8  C   UNL     1       1.069   3.177  19.342  0.00  0.00    +0.000 A 
ATOM      9  C   UNL     1       1.512   3.813  18.239  0.00  0.00    +0.000 A 
ATOM     10  C   UNL     1       2.701   4.595  18.306  0.00  0.00    +0.000 A 
ATOM     11  N   UNL     1       3.325   5.312  17.396  0.00  0.00    +0.000 NA
ENDBRANCH   1   2
BRANCH   1  13
ATOM     12  O   UNL     1       7.895   7.098  16.673  0.00  0.00    +0.000 OA
ATOM     13  S   UNL     1       6.940   6.065  17.028  0.00  0.00    +0.000 S 
ATOM     14  O   UNL     1       7.229   5.125  18.097  0.00  0.00    +0.000 OA
BRANCH  13  15
ATOM     15  C   UNL     1       6.672   5.093  15.553  0.00  0.00    +0.000 A 
ATOM     16  C   UNL     1       7.353   5.429  14.378  0.00  0.00    +0.000 A 
ATOM     17  C   UNL     1       7.100   4.706  13.211  0.00  0.00    +0.000 A 
ATOM     18  C   UNL     1       6.186   3.653  13.230  0.00  0.00    +0.000 A 
ATOM     19 CL   UNL     1       5.837   2.801  11.777  0.00  0.00    +0.000 Cl
ATOM     20  C   UNL     1       5.542   3.292  14.415  0.00  0.00    +0.000 A 
ATOM     21  C   UNL     1       5.790   4.009  15.589  0.00  0.00    +0.000 A 
ENDBRANCH  13  15
ENDBRANCH   1  13
TORSDOF 3
ENDMDL
MODEL 8
REMARK VINA RESULT:      -7.1      3.527      4.512
REMARK  Name = 
REMARK  3 active torsions:
REMARK  status: ('A' for Active; 'I' for Inactive)
REMARK    1  A    between atoms: S_2  and  C_4
REMARK    2  A    between atoms: S_2  and  C_15
REMARK    3  A    between atoms: C_4  and  C_5
REMARK                            x       y       z     vdW  Elec       q    Type
REMARK                         _______ _______ _______ _____ _____    ______ ____
ROOT
ATOM      1  C   UNL     1       3.361   2.521  20.017  0.00  0.00    +0.000 C 
ENDROOT
BRANCH   1   2
ATOM      2  C   UNL     1       4.242   3.099  18.970  0.00  0.00    +0.000 A 
ATOM      3  C   UNL     1       4.261   2.872  17.608  0.00  0.00    +0.000 A 
ATOM      4  N   UNL     1       5.251   3.678  17.104  0.00  0.00    +0.000 N 
ATOM      5  C   UNL     1       5.654   3.871  15.788  0.00  0.00    +0.000 A 
ATOM      6  C   UNL     1       6.657   4.728  15.538  0.00  0.00    +0.000 A 
ATOM      7 CL   UNL     1       7.205   5.031  13.938  0.00  0.00    +0.000 Cl
ATOM      8  C   UNL     1       7.299   5.420  16.647  0.00  0.00    +0.000 A 
ATOM      9  C   UNL     1       6.900   5.224  17.920  0.00  0.00    +0.000 A 
ATOM     10  C   UNL     1       5.829   4.326  18.192  0.00  0.00    +0.000 A 
ATOM     11  N   UNL     1       5.250   3.975  19.321  0.00  0.00    +0.000 NA
ENDBRANCH   1   2
BRANCH   1  13
ATOM     12  O   UNL     1       0.978   2.480  18.819  0.00  0.00    +0.000 OA
ATOM     13  S   UNL     1       1.675   3.120  19.920  0.00  0.00    +0.000 S 
ATOM     14  O   UNL     1       1.099   3.134  21.253  0.00  0.00    +0.000 OA
BRANCH  13  15
ATOM     15  C   UNL     1       1.909   4.826  19.448  0.00  0.00    +0.000 A 
ATOM     16  C   UNL     1       2.000   5.807  20.441  0.00  0.00    +0.000 A 
ATOM     17  C   UNL     1       2.124   7.147  20.070  0.00  0.00    +0.000 A 
ATOM     18  C   UNL     1       2.170   7.493  18.719  0.00  0.00    +0.000 A 
ATOM     19 CL   UNL     1       2.269   9.150  18.266  0.00  0.00    +0.000 Cl
ATOM     20  C   UNL     1       2.125   6.508  17.731  0.00  0.00    +0.000 A 
ATOM     21  C   UNL     1       2.002   5.164  18.093  0.00  0.00    +0.000 A 
ENDBRANCH  13  15
ENDBRANCH   1  13
TORSDOF 3
ENDMDL
MODEL 9
REMARK VINA RESULT:      -7.0      2.095      6.605
REMARK  Name = 
REMARK  3 active torsions:
REMARK  status: ('A' for Active; 'I' for Inactive)
REMARK    1  A    between atoms: S_2  and  C_4
REMARK    2  A    between atoms: S_2  and  C_15
REMARK    3  A    between atoms: C_4  and  C_5
REMARK                            x       y       z     vdW  Elec       q    Type
REMARK                         _______ _______ _______ _____ _____    ______ ____
ROOT
ATOM      1  C   UNL     1       5.201   6.640  17.207  0.00  0.00    +0.000 C 
ENDROOT
BRANCH   1   2
ATOM      2  C   UNL     1       4.302   5.752  17.989  0.00  0.00    +0.000 A 
ATOM      3  C   UNL     1       4.343   5.411  19.327  0.00  0.00    +0.000 A 
ATOM      4  N   UNL     1       3.269   4.584  19.539  0.00  0.00    +0.000 N 
ATOM      5  C   UNL     1       2.821   3.996  20.716  0.00  0.00    +0.000 A 
ATOM      6  C   UNL     1       1.727   3.219  20.675  0.00  0.00    +0.000 A 
ATOM      7 CL   UNL     1       1.101   2.468  22.088  0.00  0.00    +0.000 Cl
ATOM      8  C   UNL     1       1.050   3.004  19.403  0.00  0.00    +0.000 A 
ATOM      9  C   UNL     1       1.495   3.579  18.268  0.00  0.00    +0.000 A 
ATOM     10  C   UNL     1       2.647   4.414  18.305  0.00  0.00    +0.000 A 
ATOM     11  N   UNL     1       3.265   5.091  17.361  0.00  0.00    +0.000 NA
ENDBRANCH   1   2
BRANCH   1  13
ATOM     12  O   UNL     1       7.785   6.945  16.621  0.00  0.00    +0.000 OA
ATOM     13  S   UNL     1       6.807   5.908  16.896  0.00  0.00    +0.000 S 
ATOM     14  O   UNL     1       7.067   4.891  17.899  0.00  0.00    +0.000 OA
BRANCH  13  15
ATOM     15  C   UNL     1       6.535   5.048  15.354  0.00  0.00    +0.000 A 
ATOM     16  C   UNL     1       5.478   4.136  15.254  0.00  0.00    +0.000 A 
ATOM     17  C   UNL     1       5.302   3.420  14.069  0.00  0.00    +0.000 A 
ATOM     18  C   UNL     1       6.168   3.630  12.995  0.00  0.00    +0.000 A 
ATOM     19 CL   UNL     1       5.980   2.707  11.556  0.00  0.00    +0.000 Cl
ATOM     20  C   UNL     1       7.194   4.573  13.083  0.00  0.00    +0.000 A 
ATOM     21  C   UNL     1       7.377   5.295  14.265  0.00  0.00    +0.000 A 
ENDBRANCH  13  15
ENDBRANCH   1  13
TORSDOF 3
ENDMDL
