MODEL 1
REMARK VINA RESULT:      -8.3      0.000      0.000
REMARK  Name = 
REMARK  3 active torsions:
REMARK  status: ('A' for Active; 'I' for Inactive)
REMARK    1  A    between atoms: C_2  and  C_3
REMARK    2  A    between atoms: C_4  and  N_5
REMARK    3  A    between atoms: C_16  and  C_17
REMARK                            x       y       z     vdW  Elec       q    Type
REMARK                         _______ _______ _______ _____ _____    ______ ____
ROOT
ATOM      1  C   UNL     1       0.357  15.127  22.394  0.00  0.00    +0.000 A 
ATOM      2  C   UNL     1       1.267  14.552  21.545  0.00  0.00    +0.000 A 
ATOM      3  C   UNL     1       0.830  13.246  21.046  0.00  0.00    +0.000 A 
ATOM      4  C   UNL     1      -0.036  12.181  21.537  0.00  0.00    +0.000 A 
ATOM      5  C   UNL     1      -0.993  12.830  22.370  0.00  0.00    +0.000 A 
ATOM      6  C   UNL     1      -0.894  14.365  22.747  0.00  0.00    +0.000 A 
ATOM      7  C   UNL     1      -2.091  15.059  23.434  0.00  0.00    +0.000 A 
ATOM      8  C   UNL     1      -2.118  16.442  23.776  0.00  0.00    +0.000 A 
ATOM      9  C   UNL     1      -3.201  17.117  24.382  0.00  0.00    +0.000 A 
ATOM     10  C   UNL     1      -4.357  16.428  24.674  0.00  0.00    +0.000 A 
ATOM     11  C   UNL     1      -4.418  15.106  24.312  0.00  0.00    +0.000 A 
ATOM     12  C   UNL     1      -3.318  14.411  23.693  0.00  0.00    +0.000 A 
ATOM     13  S   UNL     1      -3.735  12.777  23.117  0.00  0.00    +0.000 S 
ATOM     14  C   UNL     1      -2.130  11.995  22.914  0.00  0.00    +0.000 C 
ENDROOT
BRANCH   2  15
ATOM     15  N   UNL     1       2.694  14.833  21.255  0.00  0.00    +0.000 N 
ATOM     16  C   UNL     1       2.610  14.802  19.782  0.00  0.00    +0.000 C 
ATOM     17  C   UNL     1       3.892  14.709  19.083  0.00  0.00    +0.000 C 
ATOM     18  C   UNL     1       5.240  15.112  19.482  0.00  0.00    +0.000 A 
ATOM     19  C   UNL     1       5.965  15.657  18.400  0.00  0.00    +0.000 A 
ATOM     20  C   UNL     1       7.279  16.037  18.601  0.00  0.00    +0.000 A 
ATOM     21  C   UNL     1       7.737  15.876  19.898  0.00  0.00    +0.000 A 
ATOM     22  C   UNL     1       6.907  15.409  21.019  0.00  0.00    +0.000 A 
ATOM     23  C   UNL     1       5.539  15.085  20.837  0.00  0.00    +0.000 A 
ATOM     24  C   UNL     1       4.263  14.631  21.843  0.00  0.00    +0.000 C 
ENDBRANCH   2  15
BRANCH   4  25
ATOM     25  C   UNL     1       0.414  10.639  20.945  0.00  0.00    +0.000 A 
ATOM     26  C   UNL     1       0.116   9.768  22.002  0.00  0.00    +0.000 A 
ATOM     27  C   UNL     1      -0.261   8.476  21.805  0.00  0.00    +0.000 A 
ATOM     28  C   UNL     1       0.874   7.869  21.438  0.00  0.00    +0.000 A 
ATOM     29  C   UNL     1       1.415   8.388  20.280  0.00  0.00    +0.000 A 
ATOM     30  C   UNL     1       2.205   7.411  19.661  0.00  0.00    +0.000 A 
ATOM     31  C   UNL     1       2.438   7.456  18.318  0.00  0.00    +0.000 A 
ATOM     32  C   UNL     1       1.907   8.542  17.641  0.00  0.00    +0.000 A 
ATOM     33  C   UNL     1       1.280   9.666  18.337  0.00  0.00    +0.000 A 
ATOM     34  C   UNL     1       1.006   9.727  19.796  0.00  0.00    +0.000 A 
ENDBRANCH   4  25
BRANCH   1  36
ATOM     35  N   UNL     1       1.112  17.479  23.222  0.00  0.00    +0.000 NA
ATOM     36  C   UNL     1       0.730  16.454  22.853  0.00  0.00    +0.000 C 
ENDBRANCH   1  36
TORSDOF 3
ENDMDL
MODEL 2
REMARK VINA RESULT:      -8.0      0.576      1.114
REMARK  Name = 
REMARK  3 active torsions:
REMARK  status: ('A' for Active; 'I' for Inactive)
REMARK    1  A    between atoms: C_2  and  C_3
REMARK    2  A    between atoms: C_4  and  N_5
REMARK    3  A    between atoms: C_16  and  C_17
REMARK                            x       y       z     vdW  Elec       q    Type
REMARK                         _______ _______ _______ _____ _____    ______ ____
ROOT
ATOM      1  C   UNL     1       0.435  15.202  22.021  0.00  0.00    +0.000 A 
ATOM      2  C   UNL     1       1.239  14.619  21.075  0.00  0.00    +0.000 A 
ATOM      3  C   UNL     1       0.808  13.264  20.724  0.00  0.00    +0.000 A 
ATOM      4  C   UNL     1       0.088  12.191  21.401  0.00  0.00    +0.000 A 
ATOM      5  C   UNL     1      -0.768  12.846  22.333  0.00  0.00    +0.000 A 
ATOM      6  C   UNL     1      -0.703  14.405  22.603  0.00  0.00    +0.000 A 
ATOM      7  C   UNL     1      -1.821  15.083  23.426  0.00  0.00    +0.000 A 
ATOM      8  C   UNL     1      -1.875  16.482  23.689  0.00  0.00    +0.000 A 
ATOM      9  C   UNL     1      -2.892  17.141  24.416  0.00  0.00    +0.000 A 
ATOM     10  C   UNL     1      -3.950  16.418  24.920  0.00  0.00    +0.000 A 
ATOM     11  C   UNL     1      -3.988  15.074  24.647  0.00  0.00    +0.000 A 
ATOM     12  C   UNL     1      -2.955  14.395  23.906  0.00  0.00    +0.000 A 
ATOM     13  S   UNL     1      -3.360  12.708  23.493  0.00  0.00    +0.000 S 
ATOM     14  C   UNL     1      -1.761  11.994  23.091  0.00  0.00    +0.000 C 
ENDROOT
BRANCH   2  15
ATOM     15  N   UNL     1       2.588  14.948  20.555  0.00  0.00    +0.000 N 
ATOM     16  C   UNL     1       3.378  14.270  21.601  0.00  0.00    +0.000 C 
ATOM     17  C   UNL     1       4.796  14.630  21.649  0.00  0.00    +0.000 C 
ATOM     18  C   UNL     1       5.697  15.140  20.616  0.00  0.00    +0.000 A 
ATOM     19  C   UNL     1       6.989  14.582  20.728  0.00  0.00    +0.000 A 
ATOM     20  C   UNL     1       7.976  15.002  19.856  0.00  0.00    +0.000 A 
ATOM     21  C   UNL     1       7.558  15.924  18.910  0.00  0.00    +0.000 A 
ATOM     22  C   UNL     1       6.172  16.391  18.761  0.00  0.00    +0.000 A 
ATOM     23  C   UNL     1       5.139  15.909  19.605  0.00  0.00    +0.000 A 
ATOM     24  C   UNL     1       3.465  16.105  19.695  0.00  0.00    +0.000 C 
ENDBRANCH   2  15
BRANCH   4  25
ATOM     25  C   UNL     1       0.532  10.638  20.835  0.00  0.00    +0.000 A 
ATOM     26  C   UNL     1       0.196   9.781  21.892  0.00  0.00    +0.000 A 
ATOM     27  C   UNL     1      -0.192   8.493  21.698  0.00  0.00    +0.000 A 
ATOM     28  C   UNL     1       0.943   7.867  21.364  0.00  0.00    +0.000 A 
ATOM     29  C   UNL     1       1.519   8.368  20.215  0.00  0.00    +0.000 A 
ATOM     30  C   UNL     1       2.311   7.375  19.625  0.00  0.00    +0.000 A 
ATOM     31  C   UNL     1       2.577   7.404  18.288  0.00  0.00    +0.000 A 
ATOM     32  C   UNL     1       2.077   8.491  17.587  0.00  0.00    +0.000 A 
ATOM     33  C   UNL     1       1.449   9.629  18.257  0.00  0.00    +0.000 A 
ATOM     34  C   UNL     1       1.139   9.707  19.709  0.00  0.00    +0.000 A 
ENDBRANCH   4  25
BRANCH   1  36
ATOM     35  N   UNL     1       1.170  17.634  22.597  0.00  0.00    +0.000 NA
ATOM     36  C   UNL     1       0.796  16.572  22.342  0.00  0.00    +0.000 C 
ENDBRANCH   1  36
TORSDOF 3
ENDMDL
MODEL 3
REMARK VINA RESULT:      -7.8      2.036      2.523
REMARK  Name = 
REMARK  3 active torsions:
REMARK  status: ('A' for Active; 'I' for Inactive)
REMARK    1  A    between atoms: C_2  and  C_3
REMARK    2  A    between atoms: C_4  and  N_5
REMARK    3  A    between atoms: C_16  and  C_17
REMARK                            x       y       z     vdW  Elec       q    Type
REMARK                         _______ _______ _______ _____ _____    ______ ____
ROOT
ATOM      1  C   UNL     1       1.058  15.581  19.640  0.00  0.00    +0.000 A 
ATOM      2  C   UNL     1       1.947  14.665  19.138  0.00  0.00    +0.000 A 
ATOM      3  C   UNL     1       1.402  13.307  19.105  0.00  0.00    +0.000 A 
ATOM      4  C   UNL     1       0.402  12.566  19.866  0.00  0.00    +0.000 A 
ATOM      5  C   UNL     1      -0.524  13.549  20.322  0.00  0.00    +0.000 A 
ATOM      6  C   UNL     1      -0.283  15.102  20.130  0.00  0.00    +0.000 A 
ATOM      7  C   UNL     1      -1.435  16.092  20.414  0.00  0.00    +0.000 A 
ATOM      8  C   UNL     1      -1.333  17.502  20.232  0.00  0.00    +0.000 A 
ATOM      9  C   UNL     1      -2.370  18.435  20.458  0.00  0.00    +0.000 A 
ATOM     10  C   UNL     1      -3.607  17.995  20.874  0.00  0.00    +0.000 A 
ATOM     11  C   UNL     1      -3.788  16.641  21.006  0.00  0.00    +0.000 A 
ATOM     12  C   UNL     1      -2.736  15.683  20.778  0.00  0.00    +0.000 A 
ATOM     13  S   UNL     1      -3.292  13.990  20.792  0.00  0.00    +0.000 S 
ATOM     14  C   UNL     1      -1.771  13.064  21.026  0.00  0.00    +0.000 C 
ENDROOT
BRANCH   2  15
ATOM     15  N   UNL     1       3.409  14.707  18.895  0.00  0.00    +0.000 N 
ATOM     16  C   UNL     1       3.848  14.684  20.304  0.00  0.00    +0.000 C 
ATOM     17  C   UNL     1       5.248  15.046  20.531  0.00  0.00    +0.000 C 
ATOM     18  C   UNL     1       6.418  14.966  19.659  0.00  0.00    +0.000 A 
ATOM     19  C   UNL     1       7.574  14.573  20.369  0.00  0.00    +0.000 A 
ATOM     20  C   UNL     1       8.779  14.503  19.696  0.00  0.00    +0.000 A 
ATOM     21  C   UNL     1       8.705  14.793  18.344  0.00  0.00    +0.000 A 
ATOM     22  C   UNL     1       7.457  15.087  17.626  0.00  0.00    +0.000 A 
ATOM     23  C   UNL     1       6.206  15.091  18.294  0.00  0.00    +0.000 A 
ATOM     24  C   UNL     1       4.593  15.270  17.832  0.00  0.00    +0.000 C 
ENDBRANCH   2  15
BRANCH   4  25
ATOM     25  C   UNL     1       0.717  10.884  19.909  0.00  0.00    +0.000 A 
ATOM     26  C   UNL     1       0.232  10.479  21.160  0.00  0.00    +0.000 A 
ATOM     27  C   UNL     1      -0.275   9.237  21.383  0.00  0.00    +0.000 A 
ATOM     28  C   UNL     1       0.808   8.450  21.390  0.00  0.00    +0.000 A 
ATOM     29  C   UNL     1       1.501   8.473  20.198  0.00  0.00    +0.000 A 
ATOM     30  C   UNL     1       2.221   7.280  20.060  0.00  0.00    +0.000 A 
ATOM     31  C   UNL     1       2.570   6.820  18.824  0.00  0.00    +0.000 A 
ATOM     32  C   UNL     1       2.227   7.628  17.751  0.00  0.00    +0.000 A 
ATOM     33  C   UNL     1       1.680   8.973  17.930  0.00  0.00    +0.000 A 
ATOM     34  C   UNL     1       1.293   9.576  19.231  0.00  0.00    +0.000 A 
ENDBRANCH   4  25
BRANCH   1  36
ATOM     35  N   UNL     1       1.998  18.011  19.666  0.00  0.00    +0.000 NA
ATOM     36  C   UNL     1       1.545  16.950  19.624  0.00  0.00    +0.000 C 
ENDBRANCH   1  36
TORSDOF 3
ENDMDL
MODEL 4
REMARK VINA RESULT:      -7.7      1.713      1.715
REMARK  Name = 
REMARK  3 active torsions:
REMARK  status: ('A' for Active; 'I' for Inactive)
REMARK    1  A    between atoms: C_2  and  C_3
REMARK    2  A    between atoms: C_4  and  N_5
REMARK    3  A    between atoms: C_16  and  C_17
REMARK                            x       y       z     vdW  Elec       q    Type
REMARK                         _______ _______ _______ _____ _____    ______ ____
ROOT
ATOM      1  C   UNL     1       0.203  15.507  20.485  0.00  0.00    +0.000 A 
ATOM      2  C   UNL     1       1.252  14.762  20.011  0.00  0.00    +0.000 A 
ATOM      3  C   UNL     1       0.880  13.373  19.732  0.00  0.00    +0.000 A 
ATOM      4  C   UNL     1      -0.118  12.440  20.241  0.00  0.00    +0.000 A 
ATOM      5  C   UNL     1      -1.206  13.254  20.672  0.00  0.00    +0.000 A 
ATOM      6  C   UNL     1      -1.126  14.835  20.709  0.00  0.00    +0.000 A 
ATOM      7  C   UNL     1      -2.414  15.657  20.939  0.00  0.00    +0.000 A 
ATOM      8  C   UNL     1      -2.455  17.082  20.948  0.00  0.00    +0.000 A 
ATOM      9  C   UNL     1      -3.615  17.868  21.131  0.00  0.00    +0.000 A 
ATOM     10  C   UNL     1      -4.836  17.254  21.302  0.00  0.00    +0.000 A 
ATOM     11  C   UNL     1      -4.873  15.884  21.240  0.00  0.00    +0.000 A 
ATOM     12  C   UNL     1      -3.695  15.076  21.054  0.00  0.00    +0.000 A 
ATOM     13  S   UNL     1      -4.045  13.350  20.778  0.00  0.00    +0.000 S 
ATOM     14  C   UNL     1      -2.470  12.555  21.120  0.00  0.00    +0.000 C 
ENDROOT
BRANCH   2  15
ATOM     15  N   UNL     1       2.719  14.981  19.994  0.00  0.00    +0.000 N 
ATOM     16  C   UNL     1       2.951  14.668  18.570  0.00  0.00    +0.000 C 
ATOM     17  C   UNL     1       4.349  14.443  18.198  0.00  0.00    +0.000 C 
ATOM     18  C   UNL     1       5.595  14.914  18.800  0.00  0.00    +0.000 A 
ATOM     19  C   UNL     1       6.558  15.241  17.820  0.00  0.00    +0.000 A 
ATOM     20  C   UNL     1       7.813  15.652  18.229  0.00  0.00    +0.000 A 
ATOM     21  C   UNL     1       7.975  15.741  19.602  0.00  0.00    +0.000 A 
ATOM     22  C   UNL     1       6.906  15.498  20.581  0.00  0.00    +0.000 A 
ATOM     23  C   UNL     1       5.595  15.146  20.168  0.00  0.00    +0.000 A 
ATOM     24  C   UNL     1       4.115  14.894  20.937  0.00  0.00    +0.000 C 
ENDBRANCH   2  15
BRANCH   4  25
ATOM     25  C   UNL     1       0.383  10.808  20.124  0.00  0.00    +0.000 A 
ATOM     26  C   UNL     1       0.011  10.248  21.354  0.00  0.00    +0.000 A 
ATOM     27  C   UNL     1      -0.342   8.942  21.490  0.00  0.00    +0.000 A 
ATOM     28  C   UNL     1       0.820   8.287  21.382  0.00  0.00    +0.000 A 
ATOM     29  C   UNL     1       1.444   8.487  20.168  0.00  0.00    +0.000 A 
ATOM     30  C   UNL     1       2.284   7.401  19.896  0.00  0.00    +0.000 A 
ATOM     31  C   UNL     1       2.617   7.086  18.612  0.00  0.00    +0.000 A 
ATOM     32  C   UNL     1       2.132   7.934  17.628  0.00  0.00    +0.000 A 
ATOM     33  C   UNL     1       1.449   9.188  17.947  0.00  0.00    +0.000 A 
ATOM     34  C   UNL     1       1.065   9.634  19.311  0.00  0.00    +0.000 A 
ENDBRANCH   4  25
BRANCH   1  36
ATOM     35  N   UNL     1       0.798  18.024  20.796  0.00  0.00    +0.000 NA
ATOM     36  C   UNL     1       0.523  16.906  20.708  0.00  0.00    +0.000 C 
ENDBRANCH   1  36
TORSDOF 3
ENDMDL
MODEL 5
REMARK VINA RESULT:      -7.7      2.282      2.867
REMARK  Name = 
REMARK  3 active torsions:
REMARK  status: ('A' for Active; 'I' for Inactive)
REMARK    1  A    between atoms: C_2  and  C_3
REMARK    2  A    between atoms: C_4  and  N_5
REMARK    3  A    between atoms: C_16  and  C_17
REMARK                            x       y       z     vdW  Elec       q    Type
REMARK                         _______ _______ _______ _____ _____    ______ ____
ROOT
ATOM      1  C   UNL     1      -0.458  16.068  22.370  0.00  0.00    +0.000 A 
ATOM      2  C   UNL     1       0.200  15.537  21.290  0.00  0.00    +0.000 A 
ATOM      3  C   UNL     1      -0.646  14.646  20.493  0.00  0.00    +0.000 A 
ATOM      4  C   UNL     1      -1.801  13.796  20.756  0.00  0.00    +0.000 A 
ATOM      5  C   UNL     1      -2.479  14.413  21.847  0.00  0.00    +0.000 A 
ATOM      6  C   UNL     1      -1.881  15.651  22.633  0.00  0.00    +0.000 A 
ATOM      7  C   UNL     1      -2.775  16.426  23.627  0.00  0.00    +0.000 A 
ATOM      8  C   UNL     1      -2.345  17.575  24.351  0.00  0.00    +0.000 A 
ATOM      9  C   UNL     1      -3.139  18.323  25.250  0.00  0.00    +0.000 A 
ATOM     10  C   UNL     1      -4.450  17.962  25.466  0.00  0.00    +0.000 A 
ATOM     11  C   UNL     1      -4.944  16.901  24.750  0.00  0.00    +0.000 A 
ATOM     12  C   UNL     1      -4.140  16.133  23.832  0.00  0.00    +0.000 A 
ATOM     13  S   UNL     1      -5.076  14.964  22.865  0.00  0.00    +0.000 S 
ATOM     14  C   UNL     1      -3.815  13.837  22.259  0.00  0.00    +0.000 C 
ENDROOT
BRANCH   2  15
ATOM     15  N   UNL     1       1.635  15.448  20.927  0.00  0.00    +0.000 N 
ATOM     16  C   UNL     1       1.461  15.033  19.521  0.00  0.00    +0.000 C 
ATOM     17  C   UNL     1       2.662  14.508  18.869  0.00  0.00    +0.000 C 
ATOM     18  C   UNL     1       4.081  14.737  19.134  0.00  0.00    +0.000 A 
ATOM     19  C   UNL     1       4.830  14.816  17.939  0.00  0.00    +0.000 A 
ATOM     20  C   UNL     1       6.201  14.976  18.020  0.00  0.00    +0.000 A 
ATOM     21  C   UNL     1       6.696  15.089  19.308  0.00  0.00    +0.000 A 
ATOM     22  C   UNL     1       5.862  15.115  20.519  0.00  0.00    +0.000 A 
ATOM     23  C   UNL     1       4.449  15.023  20.441  0.00  0.00    +0.000 A 
ATOM     24  C   UNL     1       3.171  15.115  21.540  0.00  0.00    +0.000 C 
ENDBRANCH   2  15
BRANCH   4  25
ATOM     25  C   UNL     1      -1.887  12.453  19.698  0.00  0.00    +0.000 A 
ATOM     26  C   UNL     1      -0.776  11.673  20.046  0.00  0.00    +0.000 A 
ATOM     27  C   UNL     1      -0.765  10.319  19.933  0.00  0.00    +0.000 A 
ATOM     28  C   UNL     1      -0.675  10.113  18.613  0.00  0.00    +0.000 A 
ATOM     29  C   UNL     1      -1.738  10.640  17.909  0.00  0.00    +0.000 A 
ATOM     30  C   UNL     1      -1.888   9.938  16.707  0.00  0.00    +0.000 A 
ATOM     31  C   UNL     1      -3.097   9.893  16.077  0.00  0.00    +0.000 A 
ATOM     32  C   UNL     1      -4.119  10.626  16.661  0.00  0.00    +0.000 A 
ATOM     33  C   UNL     1      -3.886  11.532  17.786  0.00  0.00    +0.000 A 
ATOM     34  C   UNL     1      -2.603  11.674  18.522  0.00  0.00    +0.000 A 
ENDBRANCH   4  25
BRANCH   1  36
ATOM     35  N   UNL     1       1.030  17.746  23.695  0.00  0.00    +0.000 NA
ATOM     36  C   UNL     1       0.334  17.009  23.142  0.00  0.00    +0.000 C 
ENDBRANCH   1  36
TORSDOF 3
ENDMDL
MODEL 6
REMARK VINA RESULT:      -7.6      1.110      1.122
REMARK  Name = 
REMARK  3 active torsions:
REMARK  status: ('A' for Active; 'I' for Inactive)
REMARK    1  A    between atoms: C_2  and  C_3
REMARK    2  A    between atoms: C_4  and  N_5
REMARK    3  A    between atoms: C_16  and  C_17
REMARK                            x       y       z     vdW  Elec       q    Type
REMARK                         _______ _______ _______ _____ _____    ______ ____
ROOT
ATOM      1  C   UNL     1      -0.454  15.517  21.399  0.00  0.00    +0.000 A 
ATOM      2  C   UNL     1       0.522  14.907  20.653  0.00  0.00    +0.000 A 
ATOM      3  C   UNL     1       0.217  13.506  20.358  0.00  0.00    +0.000 A 
ATOM      4  C   UNL     1      -0.559  12.451  21.000  0.00  0.00    +0.000 A 
ATOM      5  C   UNL     1      -1.588  13.127  21.717  0.00  0.00    +0.000 A 
ATOM      6  C   UNL     1      -1.638  14.704  21.855  0.00  0.00    +0.000 A 
ATOM      7  C   UNL     1      -2.907  15.380  22.420  0.00  0.00    +0.000 A 
ATOM      8  C   UNL     1      -3.066  16.790  22.546  0.00  0.00    +0.000 A 
ATOM      9  C   UNL     1      -4.219  17.445  23.035  0.00  0.00    +0.000 A 
ATOM     10  C   UNL     1      -5.314  16.704  23.420  0.00  0.00    +0.000 A 
ATOM     11  C   UNL     1      -5.247  15.343  23.264  0.00  0.00    +0.000 A 
ATOM     12  C   UNL     1      -4.075  14.667  22.766  0.00  0.00    +0.000 A 
ATOM     13  S   UNL     1      -4.329  12.933  22.444  0.00  0.00    +0.000 S 
ATOM     14  C   UNL     1      -2.656  12.282  22.375  0.00  0.00    +0.000 C 
ENDROOT
BRANCH   2  15
ATOM     15  N   UNL     1       1.924  15.272  20.334  0.00  0.00    +0.000 N 
ATOM     16  C   UNL     1       2.157  14.267  19.279  0.00  0.00    +0.000 C 
ATOM     17  C   UNL     1       3.558  14.062  18.908  0.00  0.00    +0.000 C 
ATOM     18  C   UNL     1       4.720  14.944  19.002  0.00  0.00    +0.000 A 
ATOM     19  C   UNL     1       5.573  14.807  17.884  0.00  0.00    +0.000 A 
ATOM     20  C   UNL     1       6.747  15.536  17.847  0.00  0.00    +0.000 A 
ATOM     21  C   UNL     1       6.939  16.380  18.928  0.00  0.00    +0.000 A 
ATOM     22  C   UNL     1       5.967  16.572  20.014  0.00  0.00    +0.000 A 
ATOM     23  C   UNL     1       4.728  15.883  20.023  0.00  0.00    +0.000 A 
ATOM     24  C   UNL     1       3.345  15.899  20.992  0.00  0.00    +0.000 C 
ENDBRANCH   2  15
BRANCH   4  25
ATOM     25  C   UNL     1       0.041  10.886  20.654  0.00  0.00    +0.000 A 
ATOM     26  C   UNL     1      -0.205  10.159  21.827  0.00  0.00    +0.000 A 
ATOM     27  C   UNL     1      -0.460   8.824  21.824  0.00  0.00    +0.000 A 
ATOM     28  C   UNL     1       0.733   8.275  21.566  0.00  0.00    +0.000 A 
ATOM     29  C   UNL     1       1.255   8.662  20.349  0.00  0.00    +0.000 A 
ATOM     30  C   UNL     1       2.145   7.681  19.896  0.00  0.00    +0.000 A 
ATOM     31  C   UNL     1       2.408   7.545  18.564  0.00  0.00    +0.000 A 
ATOM     32  C   UNL     1       1.799   8.464  17.723  0.00  0.00    +0.000 A 
ATOM     33  C   UNL     1       1.057   9.617  18.234  0.00  0.00    +0.000 A 
ATOM     34  C   UNL     1       0.741   9.870  19.664  0.00  0.00    +0.000 A 
ENDBRANCH   4  25
BRANCH   1  36
ATOM     35  N   UNL     1       0.033  18.048  21.780  0.00  0.00    +0.000 NA
ATOM     36  C   UNL     1      -0.213  16.927  21.652  0.00  0.00    +0.000 C 
ENDBRANCH   1  36
TORSDOF 3
ENDMDL
MODEL 7
REMARK VINA RESULT:      -7.5      2.182      6.570
REMARK  Name = 
REMARK  3 active torsions:
REMARK  status: ('A' for Active; 'I' for Inactive)
REMARK    1  A    between atoms: C_2  and  C_3
REMARK    2  A    between atoms: C_4  and  N_5
REMARK    3  A    between atoms: C_16  and  C_17
REMARK                            x       y       z     vdW  Elec       q    Type
REMARK                         _______ _______ _______ _____ _____    ______ ____
ROOT
ATOM      1  C   UNL     1      -1.386  13.787  22.203  0.00  0.00    +0.000 A 
ATOM      2  C   UNL     1      -0.152  13.305  21.846  0.00  0.00    +0.000 A 
ATOM      3  C   UNL     1       0.807  14.371  21.550  0.00  0.00    +0.000 A 
ATOM      4  C   UNL     1       0.723  15.744  21.067  0.00  0.00    +0.000 A 
ATOM      5  C   UNL     1      -0.549  16.217  21.504  0.00  0.00    +0.000 A 
ATOM      6  C   UNL     1      -1.619  15.275  22.193  0.00  0.00    +0.000 A 
ATOM      7  C   UNL     1      -2.860  15.898  22.869  0.00  0.00    +0.000 A 
ATOM      8  C   UNL     1      -3.858  15.142  23.550  0.00  0.00    +0.000 A 
ATOM      9  C   UNL     1      -4.992  15.677  24.200  0.00  0.00    +0.000 A 
ATOM     10  C   UNL     1      -5.188  17.040  24.220  0.00  0.00    +0.000 A 
ATOM     11  C   UNL     1      -4.230  17.829  23.635  0.00  0.00    +0.000 A 
ATOM     12  C   UNL     1      -3.070  17.290  22.971  0.00  0.00    +0.000 A 
ATOM     13  S   UNL     1      -1.872  18.526  22.504  0.00  0.00    +0.000 S 
ATOM     14  C   UNL     1      -0.870  17.678  21.278  0.00  0.00    +0.000 C 
ENDROOT
BRANCH   2  15
ATOM     15  N   UNL     1       0.326  11.966  21.427  0.00  0.00    +0.000 N 
ATOM     16  C   UNL     1       0.354  12.210  19.971  0.00  0.00    +0.000 C 
ATOM     17  C   UNL     1       0.463  11.012  19.137  0.00  0.00    +0.000 C 
ATOM     18  C   UNL     1       1.019   9.689  19.417  0.00  0.00    +0.000 A 
ATOM     19  C   UNL     1       1.705   9.163  18.300  0.00  0.00    +0.000 A 
ATOM     20  C   UNL     1       2.244   7.893  18.385  0.00  0.00    +0.000 A 
ATOM     21  C   UNL     1       2.082   7.277  19.614  0.00  0.00    +0.000 A 
ATOM     22  C   UNL     1       1.458   7.910  20.785  0.00  0.00    +0.000 A 
ATOM     23  C   UNL     1       0.968   9.240  20.728  0.00  0.00    +0.000 A 
ATOM     24  C   UNL     1       0.303  10.328  21.833  0.00  0.00    +0.000 C 
ENDBRANCH   2  15
BRANCH   4  25
ATOM     25  C   UNL     1       2.120  16.229  20.205  0.00  0.00    +0.000 A 
ATOM     26  C   UNL     1       1.787  16.004  18.862  0.00  0.00    +0.000 A 
ATOM     27  C   UNL     1       2.287  16.756  17.846  0.00  0.00    +0.000 A 
ATOM     28  C   UNL     1       3.559  16.349  17.747  0.00  0.00    +0.000 A 
ATOM     29  C   UNL     1       4.287  16.563  18.899  0.00  0.00    +0.000 A 
ATOM     30  C   UNL     1       5.645  16.665  18.575  0.00  0.00    +0.000 A 
ATOM     31  C   UNL     1       6.502  17.349  19.386  0.00  0.00    +0.000 A 
ATOM     32  C   UNL     1       5.961  17.864  20.553  0.00  0.00    +0.000 A 
ATOM     33  C   UNL     1       4.597  17.554  20.984  0.00  0.00    +0.000 A 
ATOM     34  C   UNL     1       3.597  16.796  20.189  0.00  0.00    +0.000 A 
ENDBRANCH   4  25
BRANCH   1  36
ATOM     35  N   UNL     1      -3.030  11.881  22.876  0.00  0.00    +0.000 NA
ATOM     36  C   UNL     1      -2.341  12.755  22.568  0.00  0.00    +0.000 C 
ENDBRANCH   1  36
TORSDOF 3
ENDMDL
MODEL 8
REMARK VINA RESULT:      -7.5      2.901      7.064
REMARK  Name = 
REMARK  3 active torsions:
REMARK  status: ('A' for Active; 'I' for Inactive)
REMARK    1  A    between atoms: C_2  and  C_3
REMARK    2  A    between atoms: C_4  and  N_5
REMARK    3  A    between atoms: C_16  and  C_17
REMARK                            x       y       z     vdW  Elec       q    Type
REMARK                         _______ _______ _______ _____ _____    ______ ____
ROOT
ATOM      1  C   UNL     1      -0.734  14.871  21.906  0.00  0.00    +0.000 A 
ATOM      2  C   UNL     1      -1.347  13.670  22.159  0.00  0.00    +0.000 A 
ATOM      3  C   UNL     1      -0.456  12.526  21.952  0.00  0.00    +0.000 A 
ATOM      4  C   UNL     1       0.710  12.251  21.121  0.00  0.00    +0.000 A 
ATOM      5  C   UNL     1       1.340  13.514  20.929  0.00  0.00    +0.000 A 
ATOM      6  C   UNL     1       0.689  14.874  21.413  0.00  0.00    +0.000 A 
ATOM      7  C   UNL     1       1.534  16.168  21.405  0.00  0.00    +0.000 A 
ATOM      8  C   UNL     1       1.055  17.431  21.859  0.00  0.00    +0.000 A 
ATOM      9  C   UNL     1       1.803  18.629  21.889  0.00  0.00    +0.000 A 
ATOM     10  C   UNL     1       3.115  18.626  21.471  0.00  0.00    +0.000 A 
ATOM     11  C   UNL     1       3.655  17.426  21.081  0.00  0.00    +0.000 A 
ATOM     12  C   UNL     1       2.898  16.200  21.048  0.00  0.00    +0.000 A 
ATOM     13  S   UNL     1       3.890  14.754  20.728  0.00  0.00    +0.000 S 
ATOM     14  C   UNL     1       2.675  13.532  20.220  0.00  0.00    +0.000 C 
ENDROOT
BRANCH   2  15
ATOM     15  N   UNL     1      -2.767  13.275  22.314  0.00  0.00    +0.000 N 
ATOM     16  C   UNL     1      -3.080  13.081  20.885  0.00  0.00    +0.000 C 
ATOM     17  C   UNL     1      -4.505  12.997  20.560  0.00  0.00    +0.000 C 
ATOM     18  C   UNL     1      -5.655  12.592  21.366  0.00  0.00    +0.000 A 
ATOM     19  C   UNL     1      -6.588  11.849  20.610  0.00  0.00    +0.000 A 
ATOM     20  C   UNL     1      -7.761  11.437  21.215  0.00  0.00    +0.000 A 
ATOM     21  C   UNL     1      -7.871  11.774  22.554  0.00  0.00    +0.000 A 
ATOM     22  C   UNL     1      -6.821  12.451  23.328  0.00  0.00    +0.000 A 
ATOM     23  C   UNL     1      -5.586  12.813  22.734  0.00  0.00    +0.000 A 
ATOM     24  C   UNL     1      -4.136  13.484  23.279  0.00  0.00    +0.000 C 
ENDBRANCH   2  15
BRANCH   4  25
ATOM     25  C   UNL     1       0.860  10.593  20.722  0.00  0.00    +0.000 A 
ATOM     26  C   UNL     1       0.244   9.928  21.791  0.00  0.00    +0.000 A 
ATOM     27  C   UNL     1      -0.394   8.736  21.645  0.00  0.00    +0.000 A 
ATOM     28  C   UNL     1       0.606   7.859  21.490  0.00  0.00    +0.000 A 
ATOM     29  C   UNL     1       1.387   8.119  20.383  0.00  0.00    +0.000 A 
ATOM     30  C   UNL     1       1.999   6.933  19.961  0.00  0.00    +0.000 A 
ATOM     31  C   UNL     1       2.396   6.780  18.665  0.00  0.00    +0.000 A 
ATOM     32  C   UNL     1       2.214   7.876  17.836  0.00  0.00    +0.000 A 
ATOM     33  C   UNL     1       1.785   9.178  18.347  0.00  0.00    +0.000 A 
ATOM     34  C   UNL     1       1.359   9.454  19.743  0.00  0.00    +0.000 A 
ENDBRANCH   4  25
BRANCH   1  36
ATOM     35  N   UNL     1      -2.238  16.925  22.462  0.00  0.00    +0.000 NA
ATOM     36  C   UNL     1      -1.571  16.029  22.167  0.00  0.00    +0.000 C 
ENDBRANCH   1  36
TORSDOF 3
ENDMDL
MODEL 9
REMARK VINA RESULT:      -7.5      3.332      7.426
REMARK  Name = 
REMARK  3 active torsions:
REMARK  status: ('A' for Active; 'I' for Inactive)
REMARK    1  A    between atoms: C_2  and  C_3
REMARK    2  A    between atoms: C_4  and  N_5
REMARK    3  A    between atoms: C_16  and  C_17
REMARK                            x       y       z     vdW  Elec       q    Type
REMARK                         _______ _______ _______ _____ _____    ______ ____
ROOT
ATOM      1  C   UNL     1      -1.167  14.854  20.145  0.00  0.00    +0.000 A 
ATOM      2  C   UNL     1      -1.564  13.788  20.912  0.00  0.00    +0.000 A 
ATOM      3  C   UNL     1      -0.598  12.687  20.895  0.00  0.00    +0.000 A 
ATOM      4  C   UNL     1       0.404  12.195  19.956  0.00  0.00    +0.000 A 
ATOM      5  C   UNL     1       0.822  13.341  19.220  0.00  0.00    +0.000 A 
ATOM      6  C   UNL     1       0.119  14.753  19.366  0.00  0.00    +0.000 A 
ATOM      7  C   UNL     1       0.779  16.001  18.738  0.00  0.00    +0.000 A 
ATOM      8  C   UNL     1       0.248  17.319  18.849  0.00  0.00    +0.000 A 
ATOM      9  C   UNL     1       0.834  18.487  18.310  0.00  0.00    +0.000 A 
ATOM     10  C   UNL     1       2.026  18.400  17.627  0.00  0.00    +0.000 A 
ATOM     11  C   UNL     1       2.621  17.166  17.540  0.00  0.00    +0.000 A 
ATOM     12  C   UNL     1       2.030  15.971  18.087  0.00  0.00    +0.000 A 
ATOM     13  S   UNL     1       3.108  14.552  18.042  0.00  0.00    +0.000 S 
ATOM     14  C   UNL     1       1.977  13.174  18.258  0.00  0.00    +0.000 C 
ENDROOT
BRANCH   2  15
ATOM     15  N   UNL     1      -2.865  13.405  21.511  0.00  0.00    +0.000 N 
ATOM     16  C   UNL     1      -3.582  13.105  20.257  0.00  0.00    +0.000 C 
ATOM     17  C   UNL     1      -5.037  12.996  20.378  0.00  0.00    +0.000 C 
ATOM     18  C   UNL     1      -5.888  12.653  21.516  0.00  0.00    +0.000 A 
ATOM     19  C   UNL     1      -6.985  11.854  21.127  0.00  0.00    +0.000 A 
ATOM     20  C   UNL     1      -7.916  11.488  22.081  0.00  0.00    +0.000 A 
ATOM     21  C   UNL     1      -7.632  11.925  23.364  0.00  0.00    +0.000 A 
ATOM     22  C   UNL     1      -6.416  12.659  23.741  0.00  0.00    +0.000 A 
ATOM     23  C   UNL     1      -5.421  12.976  22.782  0.00  0.00    +0.000 A 
ATOM     24  C   UNL     1      -3.890  13.686  22.821  0.00  0.00    +0.000 C 
ENDBRANCH   2  15
BRANCH   4  25
ATOM     25  C   UNL     1       0.674  10.511  20.102  0.00  0.00    +0.000 A 
ATOM     26  C   UNL     1       0.036  10.166  21.301  0.00  0.00    +0.000 A 
ATOM     27  C   UNL     1      -0.521   8.943  21.511  0.00  0.00    +0.000 A 
ATOM     28  C   UNL     1       0.536   8.139  21.676  0.00  0.00    +0.000 A 
ATOM     29  C   UNL     1       1.365   8.101  20.574  0.00  0.00    +0.000 A 
ATOM     30  C   UNL     1       2.070   6.891  20.568  0.00  0.00    +0.000 A 
ATOM     31  C   UNL     1       2.551   6.374  19.401  0.00  0.00    +0.000 A 
ATOM     32  C   UNL     1       2.355   7.143  18.264  0.00  0.00    +0.000 A 
ATOM     33  C   UNL     1       1.820   8.504  18.325  0.00  0.00    +0.000 A 
ATOM     34  C   UNL     1       1.296   9.166  19.548  0.00  0.00    +0.000 A 
ENDBRANCH   4  25
BRANCH   1  36
ATOM     35  N   UNL     1      -2.815  16.864  20.318  0.00  0.00    +0.000 NA
ATOM     36  C   UNL     1      -2.071  15.989  20.195  0.00  0.00    +0.000 C 
ENDBRANCH   1  36
TORSDOF 3
ENDMDL
