MODEL 1
REMARK VINA RESULT:      -8.1      0.000      0.000
REMARK  Name = 
REMARK  4 active torsions:
REMARK  status: ('A' for Active; 'I' for Inactive)
REMARK    1  A    between atoms: C_1  and  C_2
REMARK    2  A    between atoms: C_2  and  C_3
REMARK    3  A    between atoms: C_6  and  C_7
REMARK    4  A    between atoms: C_7  and  N_8
REMARK                            x       y       z     vdW  Elec       q    Type
REMARK                         _______ _______ _______ _____ _____    ______ ____
ROOT
ATOM      1  N   UNL     1       6.268   5.811  16.260  0.00  0.00    +0.000 NA
ATOM      2  C   UNL     1       4.879   5.365  16.326  0.00  0.00    +0.000 C 
ATOM      3  C   UNL     1       4.677   4.253  17.343  0.00  0.00    +0.000 C 
ATOM      4  C   UNL     1       5.043   4.681  18.776  0.00  0.00    +0.000 C 
ATOM      5  C   UNL     1       6.321   5.557  18.813  0.00  0.00    +0.000 C 
ATOM      6  C   UNL     1       6.660   6.373  17.553  0.00  0.00    +0.000 C 
ATOM      7  C   UNL     1       3.867   5.384  19.504  0.00  0.00    +0.000 C 
ATOM      8  N   UNL     1       2.722   4.508  19.685  0.00  0.00    +0.000 N 
ATOM      9  C   UNL     1       2.886   3.175  19.984  0.00  0.00    +0.000 C 
ATOM     10  O   UNL     1       1.942   2.497  20.380  0.00  0.00    +0.000 OA
ATOM     11  C   UNL     1       4.277   2.590  19.697  0.00  0.00    +0.000 C 
ATOM     12  O   UNL     1       5.363   3.504  19.567  0.00  0.00    +0.000 OA
ATOM     13  H   UNL     1       1.822   4.886  19.956  0.00  0.00    +0.000 HD
ENDROOT
BRANCH   1  14
ATOM     14  C   UNL     1       7.226   4.825  15.714  0.00  0.00    +0.000 C 
BRANCH  14  18
ATOM     15  C   UNL     1       6.234   3.525  12.466  0.00  0.00    +0.000 A 
ATOM     16  C   UNL     1       7.164   4.433  12.003  0.00  0.00    +0.000 A 
ATOM     17  C   UNL     1       7.629   5.140  13.127  0.00  0.00    +0.000 A 
ATOM     18  C   UNL     1       7.038   4.569  14.239  0.00  0.00    +0.000 A 
ATOM     19  O   UNL     1       6.145   3.605  13.832  0.00  0.00    +0.000 OA
BRANCH  15  21
ATOM     20  C   UNL     1       4.068   3.195  11.199  0.00  0.00    +0.000 C 
ATOM     21  C   UNL     1       5.356   2.583  11.719  0.00  0.00    +0.000 C 
ENDBRANCH  15  21
ENDBRANCH  14  18
ENDBRANCH   1  14
TORSDOF 3
ENDMDL
MODEL 2
REMARK VINA RESULT:      -8.0      1.145      1.215
REMARK  Name = 
REMARK  4 active torsions:
REMARK  status: ('A' for Active; 'I' for Inactive)
REMARK    1  A    between atoms: C_1  and  C_2
REMARK    2  A    between atoms: C_2  and  C_3
REMARK    3  A    between atoms: C_6  and  C_7
REMARK    4  A    between atoms: C_7  and  N_8
REMARK                            x       y       z     vdW  Elec       q    Type
REMARK                         _______ _______ _______ _____ _____    ______ ____
ROOT
ATOM      1  N   UNL     1       6.039   5.514  16.797  0.00  0.00    +0.000 NA
ATOM      2  C   UNL     1       4.643   5.363  16.393  0.00  0.00    +0.000 C 
ATOM      3  C   UNL     1       4.017   4.091  16.940  0.00  0.00    +0.000 C 
ATOM      4  C   UNL     1       4.009   4.043  18.478  0.00  0.00    +0.000 C 
ATOM      5  C   UNL     1       5.325   4.595  19.084  0.00  0.00    +0.000 C 
ATOM      6  C   UNL     1       6.112   5.625  18.255  0.00  0.00    +0.000 C 
ATOM      7  C   UNL     1       2.774   4.758  19.088  0.00  0.00    +0.000 C 
ATOM      8  N   UNL     1       1.522   4.122  18.714  0.00  0.00    +0.000 N 
ATOM      9  C   UNL     1       1.422   2.753  18.618  0.00  0.00    +0.000 C 
ATOM     10  O   UNL     1       0.325   2.205  18.550  0.00  0.00    +0.000 OA
ATOM     11  C   UNL     1       2.749   1.989  18.503  0.00  0.00    +0.000 C 
ATOM     12  O   UNL     1       3.935   2.661  18.921  0.00  0.00    +0.000 OA
ATOM     13  H   UNL     1       0.639   4.593  18.867  0.00  0.00    +0.000 HD
ENDROOT
BRANCH   1  14
ATOM     14  C   UNL     1       6.978   4.530  16.217  0.00  0.00    +0.000 C 
BRANCH  14  18
ATOM     15  C   UNL     1       6.349   3.637  12.749  0.00  0.00    +0.000 A 
ATOM     16  C   UNL     1       7.227   4.670  12.496  0.00  0.00    +0.000 A 
ATOM     17  C   UNL     1       7.543   5.243  13.742  0.00  0.00    +0.000 A 
ATOM     18  C   UNL     1       6.923   4.474  14.710  0.00  0.00    +0.000 A 
ATOM     19  O   UNL     1       6.152   3.512  14.101  0.00  0.00    +0.000 OA
BRANCH  15  21
ATOM     20  C   UNL     1       4.248   3.255  11.391  0.00  0.00    +0.000 C 
ATOM     21  C   UNL     1       5.616   2.747  11.808  0.00  0.00    +0.000 C 
ENDBRANCH  15  21
ENDBRANCH  14  18
ENDBRANCH   1  14
TORSDOF 3
ENDMDL
MODEL 3
REMARK VINA RESULT:      -6.9      1.672      2.158
REMARK  Name = 
REMARK  4 active torsions:
REMARK  status: ('A' for Active; 'I' for Inactive)
REMARK    1  A    between atoms: C_1  and  C_2
REMARK    2  A    between atoms: C_2  and  C_3
REMARK    3  A    between atoms: C_6  and  C_7
REMARK    4  A    between atoms: C_7  and  N_8
REMARK                            x       y       z     vdW  Elec       q    Type
REMARK                         _______ _______ _______ _____ _____    ______ ____
ROOT
ATOM      1  N   UNL     1       3.906   4.604  16.828  0.00  0.00    +0.000 NA
ATOM      2  C   UNL     1       2.892   3.625  17.211  0.00  0.00    +0.000 C 
ATOM      3  C   UNL     1       3.035   3.180  18.657  0.00  0.00    +0.000 C 
ATOM      4  C   UNL     1       2.887   4.342  19.656  0.00  0.00    +0.000 C 
ATOM      5  C   UNL     1       3.588   5.631  19.158  0.00  0.00    +0.000 C 
ATOM      6  C   UNL     1       3.745   5.813  17.638  0.00  0.00    +0.000 C 
ATOM      7  C   UNL     1       1.407   4.622  20.026  0.00  0.00    +0.000 C 
ATOM      8  N   UNL     1       0.780   3.499  20.702  0.00  0.00    +0.000 N 
ATOM      9  C   UNL     1       1.478   2.737  21.610  0.00  0.00    +0.000 C 
ATOM     10  O   UNL     1       0.895   1.959  22.359  0.00  0.00    +0.000 OA
ATOM     11  C   UNL     1       3.008   2.854  21.549  0.00  0.00    +0.000 C 
ATOM     12  O   UNL     1       3.556   4.000  20.901  0.00  0.00    +0.000 OA
ATOM     13  H   UNL     1      -0.226   3.463  20.817  0.00  0.00    +0.000 HD
ENDROOT
BRANCH   1  14
ATOM     14  C   UNL     1       5.293   4.094  16.774  0.00  0.00    +0.000 C 
BRANCH  14  18
ATOM     15  C   UNL     1       6.205   3.814  13.265  0.00  0.00    +0.000 A 
ATOM     16  C   UNL     1       7.237   4.649  13.636  0.00  0.00    +0.000 A 
ATOM     17  C   UNL     1       7.024   4.973  14.989  0.00  0.00    +0.000 A 
ATOM     18  C   UNL     1       5.928   4.244  15.413  0.00  0.00    +0.000 A 
ATOM     19  O   UNL     1       5.394   3.565  14.342  0.00  0.00    +0.000 OA
BRANCH  15  21
ATOM     20  C   UNL     1       4.389   3.265  11.588  0.00  0.00    +0.000 C 
ATOM     21  C   UNL     1       5.867   3.238  11.934  0.00  0.00    +0.000 C 
ENDBRANCH  15  21
ENDBRANCH  14  18
ENDBRANCH   1  14
TORSDOF 3
ENDMDL
MODEL 4
REMARK VINA RESULT:      -6.9      2.618      4.687
REMARK  Name = 
REMARK  4 active torsions:
REMARK  status: ('A' for Active; 'I' for Inactive)
REMARK    1  A    between atoms: C_1  and  C_2
REMARK    2  A    between atoms: C_2  and  C_3
REMARK    3  A    between atoms: C_6  and  C_7
REMARK    4  A    between atoms: C_7  and  N_8
REMARK                            x       y       z     vdW  Elec       q    Type
REMARK                         _______ _______ _______ _____ _____    ______ ____
ROOT
ATOM      1  N   UNL     1       5.300   5.494  15.673  0.00  0.00    +0.000 NA
ATOM      2  C   UNL     1       4.367   4.372  15.745  0.00  0.00    +0.000 C 
ATOM      3  C   UNL     1       4.108   3.926  17.175  0.00  0.00    +0.000 C 
ATOM      4  C   UNL     1       3.487   5.036  18.042  0.00  0.00    +0.000 C 
ATOM      5  C   UNL     1       4.118   6.422  17.753  0.00  0.00    +0.000 C 
ATOM      6  C   UNL     1       4.720   6.652  16.356  0.00  0.00    +0.000 C 
ATOM      7  C   UNL     1       1.942   5.093  17.917  0.00  0.00    +0.000 C 
ATOM      8  N   UNL     1       1.300   3.879  18.393  0.00  0.00    +0.000 N 
ATOM      9  C   UNL     1       1.776   3.209  19.497  0.00  0.00    +0.000 C 
ATOM     10  O   UNL     1       1.103   2.342  20.046  0.00  0.00    +0.000 OA
ATOM     11  C   UNL     1       3.214   3.548  19.918  0.00  0.00    +0.000 C 
ATOM     12  O   UNL     1       3.769   4.772  19.443  0.00  0.00    +0.000 OA
ATOM     13  H   UNL     1       0.326   3.696  18.185  0.00  0.00    +0.000 HD
ENDROOT
BRANCH   1  14
ATOM     14  C   UNL     1       6.691   5.190  16.074  0.00  0.00    +0.000 C 
BRANCH  14  18
ATOM     15  C   UNL     1       7.955   8.073  17.894  0.00  0.00    +0.000 A 
ATOM     16  C   UNL     1       8.158   7.146  18.894  0.00  0.00    +0.000 A 
ATOM     17  C   UNL     1       7.637   5.927  18.423  0.00  0.00    +0.000 A 
ATOM     18  C   UNL     1       7.228   6.137  17.119  0.00  0.00    +0.000 A 
ATOM     19  O   UNL     1       7.380   7.468  16.806  0.00  0.00    +0.000 OA
BRANCH  15  21
ATOM     20  C   UNL     1       9.074  10.044  19.021  0.00  0.00    +0.000 C 
ATOM     21  C   UNL     1       8.218   9.539  17.874  0.00  0.00    +0.000 C 
ENDBRANCH  15  21
ENDBRANCH  14  18
ENDBRANCH   1  14
TORSDOF 3
ENDMDL
MODEL 5
REMARK VINA RESULT:      -6.8      3.029      5.213
REMARK  Name = 
REMARK  4 active torsions:
REMARK  status: ('A' for Active; 'I' for Inactive)
REMARK    1  A    between atoms: C_1  and  C_2
REMARK    2  A    between atoms: C_2  and  C_3
REMARK    3  A    between atoms: C_6  and  C_7
REMARK    4  A    between atoms: C_7  and  N_8
REMARK                            x       y       z     vdW  Elec       q    Type
REMARK                         _______ _______ _______ _____ _____    ______ ____
ROOT
ATOM      1  N   UNL     1       6.068   4.853  16.905  0.00  0.00    +0.000 NA
ATOM      2  C   UNL     1       6.154   4.437  18.303  0.00  0.00    +0.000 C 
ATOM      3  C   UNL     1       4.865   4.698  19.065  0.00  0.00    +0.000 C 
ATOM      4  C   UNL     1       3.662   3.935  18.480  0.00  0.00    +0.000 C 
ATOM      5  C   UNL     1       3.672   3.933  16.930  0.00  0.00    +0.000 C 
ATOM      6  C   UNL     1       5.035   4.067  16.228  0.00  0.00    +0.000 C 
ATOM      7  C   UNL     1       3.547   2.492  19.037  0.00  0.00    +0.000 C 
ATOM      8  N   UNL     1       3.312   2.466  20.471  0.00  0.00    +0.000 N 
ATOM      9  C   UNL     1       2.497   3.396  21.075  0.00  0.00    +0.000 C 
ATOM     10  O   UNL     1       2.099   3.233  22.224  0.00  0.00    +0.000 OA
ATOM     11  C   UNL     1       2.213   4.667  20.261  0.00  0.00    +0.000 C 
ATOM     12  O   UNL     1       2.431   4.612  18.853  0.00  0.00    +0.000 OA
ATOM     13  H   UNL     1       3.418   1.606  20.995  0.00  0.00    +0.000 HD
ENDROOT
BRANCH   1  14
ATOM     14  C   UNL     1       5.961   6.311  16.682  0.00  0.00    +0.000 C 
BRANCH  14  18
ATOM     15  C   UNL     1       8.173   8.890  17.979  0.00  0.00    +0.000 A 
ATOM     16  C   UNL     1       8.630   7.863  18.779  0.00  0.00    +0.000 A 
ATOM     17  C   UNL     1       7.822   6.746  18.499  0.00  0.00    +0.000 A 
ATOM     18  C   UNL     1       6.971   7.107  17.471  0.00  0.00    +0.000 A 
ATOM     19  O   UNL     1       7.154   8.440  17.179  0.00  0.00    +0.000 OA
BRANCH  15  21
ATOM     20  C   UNL     1       9.461  10.774  19.072  0.00  0.00    +0.000 C 
ATOM     21  C   UNL     1       8.587  10.319  17.919  0.00  0.00    +0.000 C 
ENDBRANCH  15  21
ENDBRANCH  14  18
ENDBRANCH   1  14
TORSDOF 3
ENDMDL
MODEL 6
REMARK VINA RESULT:      -6.8      3.926      8.137
REMARK  Name = 
REMARK  4 active torsions:
REMARK  status: ('A' for Active; 'I' for Inactive)
REMARK    1  A    between atoms: C_1  and  C_2
REMARK    2  A    between atoms: C_2  and  C_3
REMARK    3  A    between atoms: C_6  and  C_7
REMARK    4  A    between atoms: C_7  and  N_8
REMARK                            x       y       z     vdW  Elec       q    Type
REMARK                         _______ _______ _______ _____ _____    ______ ____
ROOT
ATOM      1  N   UNL     1       2.088   6.239  19.175  0.00  0.00    +0.000 NA
ATOM      2  C   UNL     1       2.842   6.551  17.964  0.00  0.00    +0.000 C 
ATOM      3  C   UNL     1       4.303   6.147  18.073  0.00  0.00    +0.000 C 
ATOM      4  C   UNL     1       4.489   4.636  18.298  0.00  0.00    +0.000 C 
ATOM      5  C   UNL     1       3.440   4.061  19.282  0.00  0.00    +0.000 C 
ATOM      6  C   UNL     1       2.090   4.791  19.389  0.00  0.00    +0.000 C 
ATOM      7  C   UNL     1       4.502   3.835  16.969  0.00  0.00    +0.000 C 
ATOM      8  N   UNL     1       5.616   4.198  16.110  0.00  0.00    +0.000 N 
ATOM      9  C   UNL     1       6.855   4.484  16.636  0.00  0.00    +0.000 C 
ATOM     10  O   UNL     1       7.847   4.544  15.915  0.00  0.00    +0.000 OA
ATOM     11  C   UNL     1       6.888   4.811  18.137  0.00  0.00    +0.000 C 
ATOM     12  O   UNL     1       5.777   4.394  18.927  0.00  0.00    +0.000 OA
ATOM     13  H   UNL     1       5.634   3.910  15.140  0.00  0.00    +0.000 HD
ENDROOT
BRANCH   1  14
ATOM     14  C   UNL     1       2.454   7.027  20.372  0.00  0.00    +0.000 C 
BRANCH  14  18
ATOM     15  C   UNL     1       0.132   9.405  21.847  0.00  0.00    +0.000 A 
ATOM     16  C   UNL     1       0.076   9.897  20.559  0.00  0.00    +0.000 A 
ATOM     17  C   UNL     1       1.002   9.153  19.805  0.00  0.00    +0.000 A 
ATOM     18  C   UNL     1       1.513   8.176  20.638  0.00  0.00    +0.000 A 
ATOM     19  O   UNL     1       1.013   8.356  21.907  0.00  0.00    +0.000 OA
BRANCH  15  21
ATOM     20  C   UNL     1      -1.239  11.218  22.960  0.00  0.00    +0.000 C 
ATOM     21  C   UNL     1      -0.555   9.869  23.083  0.00  0.00    +0.000 C 
ENDBRANCH  15  21
ENDBRANCH  14  18
ENDBRANCH   1  14
TORSDOF 3
ENDMDL
MODEL 7
REMARK VINA RESULT:      -6.7      3.743      7.462
REMARK  Name = 
REMARK  4 active torsions:
REMARK  status: ('A' for Active; 'I' for Inactive)
REMARK    1  A    between atoms: C_1  and  C_2
REMARK    2  A    between atoms: C_2  and  C_3
REMARK    3  A    between atoms: C_6  and  C_7
REMARK    4  A    between atoms: C_7  and  N_8
REMARK                            x       y       z     vdW  Elec       q    Type
REMARK                         _______ _______ _______ _____ _____    ______ ____
ROOT
ATOM      1  N   UNL     1       2.094   5.892  19.380  0.00  0.00    +0.000 NA
ATOM      2  C   UNL     1       2.742   6.145  18.096  0.00  0.00    +0.000 C 
ATOM      3  C   UNL     1       4.247   5.940  18.158  0.00  0.00    +0.000 C 
ATOM      4  C   UNL     1       4.638   4.501  18.543  0.00  0.00    +0.000 C 
ATOM      5  C   UNL     1       3.720   3.926  19.652  0.00  0.00    +0.000 C 
ATOM      6  C   UNL     1       2.293   4.492  19.758  0.00  0.00    +0.000 C 
ATOM      7  C   UNL     1       4.690   3.552  17.317  0.00  0.00    +0.000 C 
ATOM      8  N   UNL     1       5.706   3.942  16.354  0.00  0.00    +0.000 N 
ATOM      9  C   UNL     1       6.921   4.439  16.764  0.00  0.00    +0.000 C 
ATOM     10  O   UNL     1       7.861   4.533  15.980  0.00  0.00    +0.000 OA
ATOM     11  C   UNL     1       6.983   4.949  18.212  0.00  0.00    +0.000 C 
ATOM     12  O   UNL     1       5.975   4.498  19.113  0.00  0.00    +0.000 OA
ATOM     13  H   UNL     1       5.714   3.542  15.424  0.00  0.00    +0.000 HD
ENDROOT
BRANCH   1  14
ATOM     14  C   UNL     1       2.412   6.859  20.453  0.00  0.00    +0.000 C 
BRANCH  14  18
ATOM     15  C   UNL     1       0.415   9.812  19.737  0.00  0.00    +0.000 A 
ATOM     16  C   UNL     1       0.057   9.689  21.063  0.00  0.00    +0.000 A 
ATOM     17  C   UNL     1       0.668   8.513  21.537  0.00  0.00    +0.000 A 
ATOM     18  C   UNL     1       1.451   8.021  20.509  0.00  0.00    +0.000 A 
ATOM     19  O   UNL     1       1.262   8.793  19.386  0.00  0.00    +0.000 OA
BRANCH  15  21
ATOM     20  C   UNL     1      -1.299  10.460  17.990  0.00  0.00    +0.000 C 
ATOM     21  C   UNL     1      -0.012  10.807  18.715  0.00  0.00    +0.000 C 
ENDBRANCH  15  21
ENDBRANCH  14  18
ENDBRANCH   1  14
TORSDOF 3
ENDMDL
MODEL 8
REMARK VINA RESULT:      -6.7      2.520      6.454
REMARK  Name = 
REMARK  4 active torsions:
REMARK  status: ('A' for Active; 'I' for Inactive)
REMARK    1  A    between atoms: C_1  and  C_2
REMARK    2  A    between atoms: C_2  and  C_3
REMARK    3  A    between atoms: C_6  and  C_7
REMARK    4  A    between atoms: C_7  and  N_8
REMARK                            x       y       z     vdW  Elec       q    Type
REMARK                         _______ _______ _______ _____ _____    ______ ____
ROOT
ATOM      1  N   UNL     1       3.530   3.182  19.106  0.00  0.00    +0.000 NA
ATOM      2  C   UNL     1       4.154   2.681  17.883  0.00  0.00    +0.000 C 
ATOM      3  C   UNL     1       4.476   3.796  16.901  0.00  0.00    +0.000 C 
ATOM      4  C   UNL     1       5.462   4.829  17.475  0.00  0.00    +0.000 C 
ATOM      5  C   UNL     1       5.166   5.153  18.962  0.00  0.00    +0.000 C 
ATOM      6  C   UNL     1       4.466   4.070  19.799  0.00  0.00    +0.000 C 
ATOM      7  C   UNL     1       6.943   4.408  17.283  0.00  0.00    +0.000 C 
ATOM      8  N   UNL     1       7.317   4.311  15.882  0.00  0.00    +0.000 N 
ATOM      9  C   UNL     1       6.835   5.206  14.954  0.00  0.00    +0.000 C 
ATOM     10  O   UNL     1       7.334   5.284  13.835  0.00  0.00    +0.000 OA
ATOM     11  C   UNL     1       5.595   6.008  15.377  0.00  0.00    +0.000 C 
ATOM     12  O   UNL     1       5.307   6.091  16.770  0.00  0.00    +0.000 OA
ATOM     13  H   UNL     1       8.178   3.854  15.609  0.00  0.00    +0.000 HD
ENDROOT
BRANCH   1  14
ATOM     14  C   UNL     1       2.172   3.743  18.943  0.00  0.00    +0.000 C 
BRANCH  14  18
ATOM     15  C   UNL     1       2.248   7.371  18.705  0.00  0.00    +0.000 A 
ATOM     16  C   UNL     1       2.061   7.299  20.070  0.00  0.00    +0.000 A 
ATOM     17  C   UNL     1       1.909   5.936  20.383  0.00  0.00    +0.000 A 
ATOM     18  C   UNL     1       2.106   5.226  19.214  0.00  0.00    +0.000 A 
ATOM     19  O   UNL     1       2.270   6.108  18.170  0.00  0.00    +0.000 OA
BRANCH  15  21
ATOM     20  C   UNL     1       1.324   9.633  18.044  0.00  0.00    +0.000 C 
ATOM     21  C   UNL     1       2.368   8.556  17.813  0.00  0.00    +0.000 C 
ENDBRANCH  15  21
ENDBRANCH  14  18
ENDBRANCH   1  14
TORSDOF 3
ENDMDL
MODEL 9
REMARK VINA RESULT:      -6.7      1.662      2.275
REMARK  Name = 
REMARK  4 active torsions:
REMARK  status: ('A' for Active; 'I' for Inactive)
REMARK    1  A    between atoms: C_1  and  C_2
REMARK    2  A    between atoms: C_2  and  C_3
REMARK    3  A    between atoms: C_6  and  C_7
REMARK    4  A    between atoms: C_7  and  N_8
REMARK                            x       y       z     vdW  Elec       q    Type
REMARK                         _______ _______ _______ _____ _____    ______ ____
ROOT
ATOM      1  N   UNL     1       5.878   5.516  17.491  0.00  0.00    +0.000 NA
ATOM      2  C   UNL     1       4.523   5.345  16.974  0.00  0.00    +0.000 C 
ATOM      3  C   UNL     1       3.882   4.051  17.448  0.00  0.00    +0.000 C 
ATOM      4  C   UNL     1       3.753   3.976  18.981  0.00  0.00    +0.000 C 
ATOM      5  C   UNL     1       5.004   4.542  19.699  0.00  0.00    +0.000 C 
ATOM      6  C   UNL     1       5.834   5.601  18.952  0.00  0.00    +0.000 C 
ATOM      7  C   UNL     1       2.459   4.655  19.501  0.00  0.00    +0.000 C 
ATOM      8  N   UNL     1       1.254   4.002  19.018  0.00  0.00    +0.000 N 
ATOM      9  C   UNL     1       1.189   2.633  18.892  0.00  0.00    +0.000 C 
ATOM     10  O   UNL     1       0.113   2.066  18.728  0.00  0.00    +0.000 OA
ATOM     11  C   UNL     1       2.538   1.897  18.871  0.00  0.00    +0.000 C 
ATOM     12  O   UNL     1       3.672   2.584  19.393  0.00  0.00    +0.000 OA
ATOM     13  H   UNL     1       0.352   4.453  19.108  0.00  0.00    +0.000 HD
ENDROOT
BRANCH   1  14
ATOM     14  C   UNL     1       6.881   4.560  16.972  0.00  0.00    +0.000 C 
BRANCH  14  18
ATOM     15  C   UNL     1       7.622   5.164  13.464  0.00  0.00    +0.000 A 
ATOM     16  C   UNL     1       6.611   4.246  13.263  0.00  0.00    +0.000 A 
ATOM     17  C   UNL     1       6.222   3.793  14.537  0.00  0.00    +0.000 A 
ATOM     18  C   UNL     1       6.941   4.523  15.465  0.00  0.00    +0.000 A 
ATOM     19  O   UNL     1       7.836   5.336  14.807  0.00  0.00    +0.000 OA
BRANCH  15  21
ATOM     20  C   UNL     1       7.771   6.238  11.177  0.00  0.00    +0.000 C 
ATOM     21  C   UNL     1       8.469   5.891  12.479  0.00  0.00    +0.000 C 
ENDBRANCH  15  21
ENDBRANCH  14  18
ENDBRANCH   1  14
TORSDOF 3
ENDMDL
