MODEL 1
REMARK VINA RESULT:      -8.1      0.000      0.000
REMARK  Name = 
REMARK  8 active torsions:
REMARK  status: ('A' for Active; 'I' for Inactive)
REMARK    1  A    between atoms: C_1  and  C_2
REMARK    2  A    between atoms: C_2  and  C_3
REMARK    3  A    between atoms: C_2  and  O_4
REMARK    4  A    between atoms: O_4  and  C_5
REMARK    5  A    between atoms: C_9  and  N_10
REMARK    6  A    between atoms: C_11  and  C_13
REMARK    7  A    between atoms: C_16  and  N_17
REMARK    8  A    between atoms: C_22  and  C_23
REMARK                            x       y       z     vdW  Elec       q    Type
REMARK                         _______ _______ _______ _____ _____    ______ ____
ROOT
ATOM      1  C   UNL     1       2.666   7.238  18.285  0.00  0.00    +0.000 A 
ATOM      2  C   UNL     1       3.730   7.687  17.510  0.00  0.00    +0.000 A 
ATOM      3  C   UNL     1       4.586   6.780  16.877  0.00  0.00    +0.000 A 
ATOM      4  C   UNL     1       4.445   5.381  16.999  0.00  0.00    +0.000 A 
ATOM      5  C   UNL     1       3.373   4.928  17.803  0.00  0.00    +0.000 A 
ATOM      6  C   UNL     1       2.489   5.863  18.427  0.00  0.00    +0.000 A 
ENDROOT
BRANCH   4   7
ATOM      7  N   UNL     1       5.335   4.518  16.357  0.00  0.00    +0.000 N 
ATOM      8  C   UNL     1       6.790   4.583  16.607  0.00  0.00    +0.000 C 
ATOM      9  C   UNL     1       7.414   4.836  15.241  0.00  0.00    +0.000 C 
ATOM     10  C   UNL     1       6.507   4.047  14.322  0.00  0.00    +0.000 C 
ATOM     11  C   UNL     1       5.115   4.286  14.909  0.00  0.00    +0.000 C 
ENDBRANCH   4   7
BRANCH   1  13
ATOM     12  N   UNL     1       1.159   9.154  17.943  0.00  0.00    +0.000 N 
ATOM     13  C   UNL     1       1.735   8.265  18.836  0.00  0.00    +0.000 C 
ATOM     14  O   UNL     1       1.536   8.217  20.048  0.00  0.00    +0.000 OA
ATOM     15  H   UNL     1       1.329   9.011  16.958  0.00  0.00    +0.000 HD
BRANCH  12  20
ATOM     16  C   UNL     1      -2.073  10.948  18.346  0.00  0.00    +0.000 A 
ATOM     17  C   UNL     1      -1.668  12.148  18.922  0.00  0.00    +0.000 A 
ATOM     18  C   UNL     1      -0.322  12.374  19.183  0.00  0.00    +0.000 A 
ATOM     19  C   UNL     1       0.625  11.399  18.866  0.00  0.00    +0.000 A 
ATOM     20  C   UNL     1       0.242  10.188  18.273  0.00  0.00    +0.000 A 
ATOM     21  C   UNL     1      -1.117   9.984  17.994  0.00  0.00    +0.000 A 
BRANCH  16  22
ATOM     22  O   UNL     1      -3.414  10.828  18.112  0.00  0.00    +0.000 OA
BRANCH  22  24
ATOM     23  C   UNL     1      -3.822  10.647  15.764  0.00  0.00    +0.000 C 
ATOM     24  C   UNL     1      -3.946  11.544  16.992  0.00  0.00    +0.000 C 
ATOM     25  C   UNL     1      -5.413  11.850  17.280  0.00  0.00    +0.000 C 
ENDBRANCH  22  24
ENDBRANCH  16  22
ENDBRANCH  12  20
ENDBRANCH   1  13
BRANCH   5  26
ATOM     26  C   UNL     1       3.056   3.477  18.088  0.00  0.00    +0.000 C 
ATOM     27  F   UNL     1       4.024   2.708  18.647  0.00  0.00    +0.000 F 
ATOM     28  F   UNL     1       1.984   3.355  18.932  0.00  0.00    +0.000 F 
ATOM     29  F   UNL     1       2.673   2.820  16.948  0.00  0.00    +0.000 F 
ENDBRANCH   5  26
TORSDOF 6
ENDMDL
MODEL 2
REMARK VINA RESULT:      -8.0      3.467      9.016
REMARK  Name = 
REMARK  8 active torsions:
REMARK  status: ('A' for Active; 'I' for Inactive)
REMARK    1  A    between atoms: C_1  and  C_2
REMARK    2  A    between atoms: C_2  and  C_3
REMARK    3  A    between atoms: C_2  and  O_4
REMARK    4  A    between atoms: O_4  and  C_5
REMARK    5  A    between atoms: C_9  and  N_10
REMARK    6  A    between atoms: C_11  and  C_13
REMARK    7  A    between atoms: C_16  and  N_17
REMARK    8  A    between atoms: C_22  and  C_23
REMARK                            x       y       z     vdW  Elec       q    Type
REMARK                         _______ _______ _______ _____ _____    ______ ____
ROOT
ATOM      1  C   UNL     1       2.287   7.622  18.889  0.00  0.00    +0.000 A 
ATOM      2  C   UNL     1       1.881   8.424  17.827  0.00  0.00    +0.000 A 
ATOM      3  C   UNL     1       1.040   9.521  18.042  0.00  0.00    +0.000 A 
ATOM      4  C   UNL     1       0.542   9.867  19.315  0.00  0.00    +0.000 A 
ATOM      5  C   UNL     1       0.943   9.039  20.391  0.00  0.00    +0.000 A 
ATOM      6  C   UNL     1       1.821   7.933  20.165  0.00  0.00    +0.000 A 
ENDROOT
BRANCH   4   7
ATOM      7  N   UNL     1      -0.305  10.966  19.474  0.00  0.00    +0.000 N 
ATOM      8  C   UNL     1      -1.634  11.015  18.831  0.00  0.00    +0.000 C 
ATOM      9  C   UNL     1      -1.607  12.267  17.964  0.00  0.00    +0.000 C 
ATOM     10  C   UNL     1      -0.769  13.214  18.794  0.00  0.00    +0.000 C 
ATOM     11  C   UNL     1       0.316  12.308  19.377  0.00  0.00    +0.000 C 
ENDBRANCH   4   7
BRANCH   1  13
ATOM     12  N   UNL     1       4.394   6.874  17.858  0.00  0.00    +0.000 N 
ATOM     13  C   UNL     1       3.269   6.538  18.595  0.00  0.00    +0.000 C 
ATOM     14  O   UNL     1       3.006   5.432  19.061  0.00  0.00    +0.000 OA
ATOM     15  H   UNL     1       4.535   7.847  17.629  0.00  0.00    +0.000 HD
BRANCH  12  20
ATOM     16  C   UNL     1       6.325   4.393  15.873  0.00  0.00    +0.000 A 
ATOM     17  C   UNL     1       7.472   4.235  16.645  0.00  0.00    +0.000 A 
ATOM     18  C   UNL     1       7.618   4.949  17.828  0.00  0.00    +0.000 A 
ATOM     19  C   UNL     1       6.613   5.823  18.246  0.00  0.00    +0.000 A 
ATOM     20  C   UNL     1       5.443   5.988  17.491  0.00  0.00    +0.000 A 
ATOM     21  C   UNL     1       5.300   5.243  16.312  0.00  0.00    +0.000 A 
BRANCH  16  22
ATOM     22  O   UNL     1       6.268   3.635  14.738  0.00  0.00    +0.000 OA
BRANCH  22  24
ATOM     23  C   UNL     1       7.444   4.957  13.131  0.00  0.00    +0.000 C 
ATOM     24  C   UNL     1       6.102   4.330  13.498  0.00  0.00    +0.000 C 
ATOM     25  C   UNL     1       5.682   3.315  12.439  0.00  0.00    +0.000 C 
ENDBRANCH  22  24
ENDBRANCH  16  22
ENDBRANCH  12  20
ENDBRANCH   1  13
BRANCH   5  26
ATOM     26  C   UNL     1       0.508   9.213  21.829  0.00  0.00    +0.000 C 
ATOM     27  F   UNL     1       0.266  10.471  22.275  0.00  0.00    +0.000 F 
ATOM     28  F   UNL     1      -0.645   8.523  22.090  0.00  0.00    +0.000 F 
ATOM     29  F   UNL     1       1.430   8.684  22.693  0.00  0.00    +0.000 F 
ENDBRANCH   5  26
TORSDOF 6
ENDMDL
MODEL 3
REMARK VINA RESULT:      -7.9      0.909      1.117
REMARK  Name = 
REMARK  8 active torsions:
REMARK  status: ('A' for Active; 'I' for Inactive)
REMARK    1  A    between atoms: C_1  and  C_2
REMARK    2  A    between atoms: C_2  and  C_3
REMARK    3  A    between atoms: C_2  and  O_4
REMARK    4  A    between atoms: O_4  and  C_5
REMARK    5  A    between atoms: C_9  and  N_10
REMARK    6  A    between atoms: C_11  and  C_13
REMARK    7  A    between atoms: C_16  and  N_17
REMARK    8  A    between atoms: C_22  and  C_23
REMARK                            x       y       z     vdW  Elec       q    Type
REMARK                         _______ _______ _______ _____ _____    ______ ____
ROOT
ATOM      1  C   UNL     1       2.787   6.997  18.846  0.00  0.00    +0.000 A 
ATOM      2  C   UNL     1       3.591   7.486  17.821  0.00  0.00    +0.000 A 
ATOM      3  C   UNL     1       4.444   6.632  17.114  0.00  0.00    +0.000 A 
ATOM      4  C   UNL     1       4.560   5.256  17.401  0.00  0.00    +0.000 A 
ATOM      5  C   UNL     1       3.754   4.766  18.456  0.00  0.00    +0.000 A 
ATOM      6  C   UNL     1       2.868   5.642  19.158  0.00  0.00    +0.000 A 
ENDROOT
BRANCH   4   7
ATOM      7  N   UNL     1       5.437   4.449  16.673  0.00  0.00    +0.000 N 
ATOM      8  C   UNL     1       6.900   4.649  16.733  0.00  0.00    +0.000 C 
ATOM      9  C   UNL     1       7.323   4.902  15.292  0.00  0.00    +0.000 C 
ATOM     10  C   UNL     1       6.382   4.004  14.518  0.00  0.00    +0.000 C 
ATOM     11  C   UNL     1       5.059   4.145  15.272  0.00  0.00    +0.000 C 
ENDBRANCH   4   7
BRANCH   1  13
ATOM     12  N   UNL     1       1.422   9.044  18.731  0.00  0.00    +0.000 N 
ATOM     13  C   UNL     1       1.826   7.948  19.478  0.00  0.00    +0.000 C 
ATOM     14  O   UNL     1       1.448   7.659  20.611  0.00  0.00    +0.000 OA
ATOM     15  H   UNL     1       1.731   9.101  17.772  0.00  0.00    +0.000 HD
BRANCH  12  20
ATOM     16  C   UNL     1      -1.506  11.335  18.677  0.00  0.00    +0.000 A 
ATOM     17  C   UNL     1      -1.385  11.987  19.900  0.00  0.00    +0.000 A 
ATOM     18  C   UNL     1      -0.335  11.674  20.755  0.00  0.00    +0.000 A 
ATOM     19  C   UNL     1       0.601  10.706  20.386  0.00  0.00    +0.000 A 
ATOM     20  C   UNL     1       0.508  10.046  19.153  0.00  0.00    +0.000 A 
ATOM     21  C   UNL     1      -0.544  10.390  18.291  0.00  0.00    +0.000 A 
BRANCH  16  22
ATOM     22  O   UNL     1      -2.560  11.725  17.901  0.00  0.00    +0.000 OA
BRANCH  22  24
ATOM     23  C   UNL     1      -4.828  10.970  17.926  0.00  0.00    +0.000 C 
ATOM     24  C   UNL     1      -3.420  10.694  17.404  0.00  0.00    +0.000 C 
ATOM     25  C   UNL     1      -3.398  10.753  15.879  0.00  0.00    +0.000 C 
ENDBRANCH  22  24
ENDBRANCH  16  22
ENDBRANCH  12  20
ENDBRANCH   1  13
BRANCH   5  26
ATOM     26  C   UNL     1       3.740   3.335  18.944  0.00  0.00    +0.000 C 
ATOM     27  F   UNL     1       4.895   2.812  19.427  0.00  0.00    +0.000 F 
ATOM     28  F   UNL     1       2.831   3.159  19.952  0.00  0.00    +0.000 F 
ATOM     29  F   UNL     1       3.331   2.478  17.956  0.00  0.00    +0.000 F 
ENDBRANCH   5  26
TORSDOF 6
ENDMDL
MODEL 4
REMARK VINA RESULT:      -7.8      4.392      9.841
REMARK  Name = 
REMARK  8 active torsions:
REMARK  status: ('A' for Active; 'I' for Inactive)
REMARK    1  A    between atoms: C_1  and  C_2
REMARK    2  A    between atoms: C_2  and  C_3
REMARK    3  A    between atoms: C_2  and  O_4
REMARK    4  A    between atoms: O_4  and  C_5
REMARK    5  A    between atoms: C_9  and  N_10
REMARK    6  A    between atoms: C_11  and  C_13
REMARK    7  A    between atoms: C_16  and  N_17
REMARK    8  A    between atoms: C_22  and  C_23
REMARK                            x       y       z     vdW  Elec       q    Type
REMARK                         _______ _______ _______ _____ _____    ______ ____
ROOT
ATOM      1  C   UNL     1       1.255   9.503  19.226  0.00  0.00    +0.000 A 
ATOM      2  C   UNL     1       0.507   9.192  20.358  0.00  0.00    +0.000 A 
ATOM      3  C   UNL     1      -0.273  10.167  20.988  0.00  0.00    +0.000 A 
ATOM      4  C   UNL     1      -0.336  11.504  20.543  0.00  0.00    +0.000 A 
ATOM      5  C   UNL     1       0.440  11.821  19.402  0.00  0.00    +0.000 A 
ATOM      6  C   UNL     1       1.216  10.811  18.751  0.00  0.00    +0.000 A 
ENDROOT
BRANCH   4   7
ATOM      7  N   UNL     1      -1.121  12.441  21.215  0.00  0.00    +0.000 N 
ATOM      8  C   UNL     1      -1.077  12.572  22.687  0.00  0.00    +0.000 C 
ATOM      9  C   UNL     1      -2.510  12.337  23.147  0.00  0.00    +0.000 C 
ATOM     10  C   UNL     1      -3.313  12.962  22.027  0.00  0.00    +0.000 C 
ATOM     11  C   UNL     1      -2.529  12.576  20.772  0.00  0.00    +0.000 C 
ENDBRANCH   4   7
BRANCH   1  13
ATOM     12  N   UNL     1       2.055   7.175  19.220  0.00  0.00    +0.000 N 
ATOM     13  C   UNL     1       1.974   8.384  18.549  0.00  0.00    +0.000 C 
ATOM     14  O   UNL     1       2.413   8.627  17.427  0.00  0.00    +0.000 OA
ATOM     15  H   UNL     1       1.556   7.084  20.092  0.00  0.00    +0.000 HD
BRANCH  12  20
ATOM     16  C   UNL     1       4.701   4.633  18.615  0.00  0.00    +0.000 A 
ATOM     17  C   UNL     1       4.020   3.680  17.862  0.00  0.00    +0.000 A 
ATOM     18  C   UNL     1       2.679   3.870  17.550  0.00  0.00    +0.000 A 
ATOM     19  C   UNL     1       2.014   5.016  17.988  0.00  0.00    +0.000 A 
ATOM     20  C   UNL     1       2.683   5.996  18.735  0.00  0.00    +0.000 A 
ATOM     21  C   UNL     1       4.042   5.802  19.022  0.00  0.00    +0.000 A 
BRANCH  16  22
ATOM     22  O   UNL     1       6.018   4.364  18.854  0.00  0.00    +0.000 OA
BRANCH  22  24
ATOM     23  C   UNL     1       7.999   5.610  19.343  0.00  0.00    +0.000 C 
ATOM     24  C   UNL     1       6.980   5.247  18.266  0.00  0.00    +0.000 C 
ATOM     25  C   UNL     1       7.662   4.507  17.119  0.00  0.00    +0.000 C 
ENDBRANCH  22  24
ENDBRANCH  16  22
ENDBRANCH  12  20
ENDBRANCH   1  13
BRANCH   5  26
ATOM     26  C   UNL     1       0.538  13.193  18.774  0.00  0.00    +0.000 C 
ATOM     27  F   UNL     1      -0.570  13.706  18.184  0.00  0.00    +0.000 F 
ATOM     28  F   UNL     1       0.912  14.138  19.693  0.00  0.00    +0.000 F 
ATOM     29  F   UNL     1       1.519  13.232  17.819  0.00  0.00    +0.000 F 
ENDBRANCH   5  26
TORSDOF 6
ENDMDL
MODEL 5
REMARK VINA RESULT:      -7.7      1.995      3.107
REMARK  Name = 
REMARK  8 active torsions:
REMARK  status: ('A' for Active; 'I' for Inactive)
REMARK    1  A    between atoms: C_1  and  C_2
REMARK    2  A    between atoms: C_2  and  C_3
REMARK    3  A    between atoms: C_2  and  O_4
REMARK    4  A    between atoms: O_4  and  C_5
REMARK    5  A    between atoms: C_9  and  N_10
REMARK    6  A    between atoms: C_11  and  C_13
REMARK    7  A    between atoms: C_16  and  N_17
REMARK    8  A    between atoms: C_22  and  C_23
REMARK                            x       y       z     vdW  Elec       q    Type
REMARK                         _______ _______ _______ _____ _____    ______ ____
ROOT
ATOM      1  C   UNL     1       2.389   7.791  18.223  0.00  0.00    +0.000 A 
ATOM      2  C   UNL     1       2.020   6.849  19.178  0.00  0.00    +0.000 A 
ATOM      3  C   UNL     1       2.649   5.601  19.231  0.00  0.00    +0.000 A 
ATOM      4  C   UNL     1       3.660   5.214  18.327  0.00  0.00    +0.000 A 
ATOM      5  C   UNL     1       4.021   6.167  17.345  0.00  0.00    +0.000 A 
ATOM      6  C   UNL     1       3.388   7.450  17.314  0.00  0.00    +0.000 A 
ENDROOT
BRANCH   4   7
ATOM      7  N   UNL     1       4.248   3.950  18.414  0.00  0.00    +0.000 N 
ATOM      8  C   UNL     1       3.728   2.802  17.642  0.00  0.00    +0.000 C 
ATOM      9  C   UNL     1       3.378   1.751  18.687  0.00  0.00    +0.000 C 
ATOM     10  C   UNL     1       4.459   1.958  19.726  0.00  0.00    +0.000 C 
ATOM     11  C   UNL     1       4.620   3.478  19.769  0.00  0.00    +0.000 C 
ENDBRANCH   4   7
BRANCH   1  13
ATOM     12  N   UNL     1       0.723   9.306  19.218  0.00  0.00    +0.000 N 
ATOM     13  C   UNL     1       1.749   9.136  18.302  0.00  0.00    +0.000 C 
ATOM     14  O   UNL     1       2.211   9.997  17.556  0.00  0.00    +0.000 OA
ATOM     15  H   UNL     1       0.517   8.541  19.843  0.00  0.00    +0.000 HD
BRANCH  12  20
ATOM     16  C   UNL     1      -2.055  11.776  19.134  0.00  0.00    +0.000 A 
ATOM     17  C   UNL     1      -1.526  12.832  19.871  0.00  0.00    +0.000 A 
ATOM     18  C   UNL     1      -0.247  12.734  20.404  0.00  0.00    +0.000 A 
ATOM     19  C   UNL     1       0.511  11.580  20.199  0.00  0.00    +0.000 A 
ATOM     20  C   UNL     1       0.005  10.510  19.448  0.00  0.00    +0.000 A 
ATOM     21  C   UNL     1      -1.279  10.633  18.896  0.00  0.00    +0.000 A 
BRANCH  16  22
ATOM     22  O   UNL     1      -3.312  11.974  18.637  0.00  0.00    +0.000 OA
BRANCH  22  24
ATOM     23  C   UNL     1      -5.376  10.828  18.263  0.00  0.00    +0.000 C 
ATOM     24  C   UNL     1      -3.896  10.899  17.894  0.00  0.00    +0.000 C 
ATOM     25  C   UNL     1      -3.733  11.206  16.408  0.00  0.00    +0.000 C 
ENDBRANCH  22  24
ENDBRANCH  16  22
ENDBRANCH  12  20
ENDBRANCH   1  13
BRANCH   5  26
ATOM     26  C   UNL     1       5.059   5.952  16.267  0.00  0.00    +0.000 C 
ATOM     27  F   UNL     1       4.990   4.815  15.531  0.00  0.00    +0.000 F 
ATOM     28  F   UNL     1       5.041   6.965  15.346  0.00  0.00    +0.000 F 
ATOM     29  F   UNL     1       6.327   5.980  16.787  0.00  0.00    +0.000 F 
ENDBRANCH   5  26
TORSDOF 6
ENDMDL
MODEL 6
REMARK VINA RESULT:      -7.7      1.247      1.431
REMARK  Name = 
REMARK  8 active torsions:
REMARK  status: ('A' for Active; 'I' for Inactive)
REMARK    1  A    between atoms: C_1  and  C_2
REMARK    2  A    between atoms: C_2  and  C_3
REMARK    3  A    between atoms: C_2  and  O_4
REMARK    4  A    between atoms: O_4  and  C_5
REMARK    5  A    between atoms: C_9  and  N_10
REMARK    6  A    between atoms: C_11  and  C_13
REMARK    7  A    between atoms: C_16  and  N_17
REMARK    8  A    between atoms: C_22  and  C_23
REMARK                            x       y       z     vdW  Elec       q    Type
REMARK                         _______ _______ _______ _____ _____    ______ ____
ROOT
ATOM      1  C   UNL     1       2.476   7.980  18.055  0.00  0.00    +0.000 A 
ATOM      2  C   UNL     1       3.707   8.144  17.428  0.00  0.00    +0.000 A 
ATOM      3  C   UNL     1       4.498   7.036  17.105  0.00  0.00    +0.000 A 
ATOM      4  C   UNL     1       4.120   5.711  17.407  0.00  0.00    +0.000 A 
ATOM      5  C   UNL     1       2.876   5.549  18.062  0.00  0.00    +0.000 A 
ATOM      6  C   UNL     1       2.063   6.686  18.367  0.00  0.00    +0.000 A 
ENDROOT
BRANCH   4   7
ATOM      7  N   UNL     1       4.952   4.640  17.075  0.00  0.00    +0.000 N 
ATOM      8  C   UNL     1       6.286   4.480  17.689  0.00  0.00    +0.000 C 
ATOM      9  C   UNL     1       7.260   4.466  16.519  0.00  0.00    +0.000 C 
ATOM     10  C   UNL     1       6.466   3.749  15.449  0.00  0.00    +0.000 C 
ATOM     11  C   UNL     1       5.049   4.290  15.638  0.00  0.00    +0.000 C 
ENDBRANCH   4   7
BRANCH   1  13
ATOM     12  N   UNL     1       0.692   9.162  19.272  0.00  0.00    +0.000 N 
ATOM     13  C   UNL     1       1.645   9.200  18.267  0.00  0.00    +0.000 C 
ATOM     14  O   UNL     1       1.899  10.158  17.540  0.00  0.00    +0.000 OA
ATOM     15  H   UNL     1       0.663   8.344  19.864  0.00  0.00    +0.000 HD
BRANCH  12  20
ATOM     16  C   UNL     1      -2.174  11.525  19.106  0.00  0.00    +0.000 A 
ATOM     17  C   UNL     1      -1.996  12.277  20.263  0.00  0.00    +0.000 A 
ATOM     18  C   UNL     1      -0.927  12.008  21.109  0.00  0.00    +0.000 A 
ATOM     19  C   UNL     1      -0.029  10.985  20.799  0.00  0.00    +0.000 A 
ATOM     20  C   UNL     1      -0.181  10.224  19.632  0.00  0.00    +0.000 A 
ATOM     21  C   UNL     1      -1.251  10.523  18.776  0.00  0.00    +0.000 A 
BRANCH  16  22
ATOM     22  O   UNL     1      -3.243  11.877  18.331  0.00  0.00    +0.000 OA
BRANCH  22  24
ATOM     23  C   UNL     1      -5.418  10.933  18.029  0.00  0.00    +0.000 C 
ATOM     24  C   UNL     1      -3.940  10.820  17.663  0.00  0.00    +0.000 C 
ATOM     25  C   UNL     1      -3.750  11.003  16.161  0.00  0.00    +0.000 C 
ENDBRANCH  22  24
ENDBRANCH  16  22
ENDBRANCH  12  20
ENDBRANCH   1  13
BRANCH   5  26
ATOM     26  C   UNL     1       2.292   4.224  18.498  0.00  0.00    +0.000 C 
ATOM     27  F   UNL     1       3.039   3.430  19.306  0.00  0.00    +0.000 F 
ATOM     28  F   UNL     1       1.112   4.395  19.173  0.00  0.00    +0.000 F 
ATOM     29  F   UNL     1       1.962   3.447  17.418  0.00  0.00    +0.000 F 
ENDBRANCH   5  26
TORSDOF 6
ENDMDL
MODEL 7
REMARK VINA RESULT:      -7.7      1.582      3.017
REMARK  Name = 
REMARK  8 active torsions:
REMARK  status: ('A' for Active; 'I' for Inactive)
REMARK    1  A    between atoms: C_1  and  C_2
REMARK    2  A    between atoms: C_2  and  C_3
REMARK    3  A    between atoms: C_2  and  O_4
REMARK    4  A    between atoms: O_4  and  C_5
REMARK    5  A    between atoms: C_9  and  N_10
REMARK    6  A    between atoms: C_11  and  C_13
REMARK    7  A    between atoms: C_16  and  N_17
REMARK    8  A    between atoms: C_22  and  C_23
REMARK                            x       y       z     vdW  Elec       q    Type
REMARK                         _______ _______ _______ _____ _____    ______ ____
ROOT
ATOM      1  C   UNL     1       2.735   7.224  18.297  0.00  0.00    +0.000 A 
ATOM      2  C   UNL     1       3.829   7.657  17.554  0.00  0.00    +0.000 A 
ATOM      3  C   UNL     1       4.645   6.741  16.883  0.00  0.00    +0.000 A 
ATOM      4  C   UNL     1       4.432   5.347  16.931  0.00  0.00    +0.000 A 
ATOM      5  C   UNL     1       3.330   4.908  17.703  0.00  0.00    +0.000 A 
ATOM      6  C   UNL     1       2.487   5.855  18.367  0.00  0.00    +0.000 A 
ENDROOT
BRANCH   4   7
ATOM      7  N   UNL     1       5.283   4.473  16.252  0.00  0.00    +0.000 N 
ATOM      8  C   UNL     1       6.745   4.494  16.472  0.00  0.00    +0.000 C 
ATOM      9  C   UNL     1       7.346   4.757  15.098  0.00  0.00    +0.000 C 
ATOM     10  C   UNL     1       6.398   4.012  14.184  0.00  0.00    +0.000 C 
ATOM     11  C   UNL     1       5.026   4.277  14.806  0.00  0.00    +0.000 C 
ENDBRANCH   4   7
BRANCH   1  13
ATOM     12  N   UNL     1       1.330   9.229  18.042  0.00  0.00    +0.000 N 
ATOM     13  C   UNL     1       1.852   8.269  18.893  0.00  0.00    +0.000 C 
ATOM     14  O   UNL     1       1.639   8.170  20.099  0.00  0.00    +0.000 OA
ATOM     15  H   UNL     1       1.503   9.128  17.052  0.00  0.00    +0.000 HD
BRANCH  12  20
ATOM     16  C   UNL     1       0.232  12.586  19.205  0.00  0.00    +0.000 A 
ATOM     17  C   UNL     1      -1.154  12.472  19.149  0.00  0.00    +0.000 A 
ATOM     18  C   UNL     1      -1.737  11.285  18.724  0.00  0.00    +0.000 A 
ATOM     19  C   UNL     1      -0.935  10.203  18.356  0.00  0.00    +0.000 A 
ATOM     20  C   UNL     1       0.463  10.290  18.418  0.00  0.00    +0.000 A 
ATOM     21  C   UNL     1       1.037  11.487  18.871  0.00  0.00    +0.000 A 
BRANCH  16  22
ATOM     22  O   UNL     1       0.709  13.785  19.652  0.00  0.00    +0.000 OA
BRANCH  22  24
ATOM     23  C   UNL     1       2.537  14.993  18.697  0.00  0.00    +0.000 C 
ATOM     24  C   UNL     1       2.130  13.937  19.721  0.00  0.00    +0.000 C 
ATOM     25  C   UNL     1       2.489  14.398  21.130  0.00  0.00    +0.000 C 
ENDBRANCH  22  24
ENDBRANCH  16  22
ENDBRANCH  12  20
ENDBRANCH   1  13
BRANCH   5  26
ATOM     26  C   UNL     1       2.936   3.463  17.910  0.00  0.00    +0.000 C 
ATOM     27  F   UNL     1       3.877   2.605  18.379  0.00  0.00    +0.000 F 
ATOM     28  F   UNL     1       1.892   3.350  18.789  0.00  0.00    +0.000 F 
ATOM     29  F   UNL     1       2.473   2.904  16.748  0.00  0.00    +0.000 F 
ENDBRANCH   5  26
TORSDOF 6
ENDMDL
MODEL 8
REMARK VINA RESULT:      -7.7      3.806      9.269
REMARK  Name = 
REMARK  8 active torsions:
REMARK  status: ('A' for Active; 'I' for Inactive)
REMARK    1  A    between atoms: C_1  and  C_2
REMARK    2  A    between atoms: C_2  and  C_3
REMARK    3  A    between atoms: C_2  and  O_4
REMARK    4  A    between atoms: O_4  and  C_5
REMARK    5  A    between atoms: C_9  and  N_10
REMARK    6  A    between atoms: C_11  and  C_13
REMARK    7  A    between atoms: C_16  and  N_17
REMARK    8  A    between atoms: C_22  and  C_23
REMARK                            x       y       z     vdW  Elec       q    Type
REMARK                         _______ _______ _______ _____ _____    ______ ____
ROOT
ATOM      1  C   UNL     1       1.006   9.768  19.301  0.00  0.00    +0.000 A 
ATOM      2  C   UNL     1       0.708  11.058  18.873  0.00  0.00    +0.000 A 
ATOM      3  C   UNL     1       0.038  11.952  19.715  0.00  0.00    +0.000 A 
ATOM      4  C   UNL     1      -0.390  11.608  21.014  0.00  0.00    +0.000 A 
ATOM      5  C   UNL     1      -0.101  10.289  21.439  0.00  0.00    +0.000 A 
ATOM      6  C   UNL     1       0.605   9.389  20.580  0.00  0.00    +0.000 A 
ENDROOT
BRANCH   4   7
ATOM      7  N   UNL     1      -1.066  12.534  21.809  0.00  0.00    +0.000 N 
ATOM      8  C   UNL     1      -2.427  12.999  21.466  0.00  0.00    +0.000 C 
ATOM      9  C   UNL     1      -2.305  14.512  21.334  0.00  0.00    +0.000 C 
ATOM     10  C   UNL     1      -1.282  14.845  22.398  0.00  0.00    +0.000 C 
ATOM     11  C   UNL     1      -0.282  13.692  22.301  0.00  0.00    +0.000 C 
ENDBRANCH   4   7
BRANCH   1  13
ATOM     12  N   UNL     1       2.292   7.710  18.887  0.00  0.00    +0.000 N 
ATOM     13  C   UNL     1       1.817   8.912  18.387  0.00  0.00    +0.000 C 
ATOM     14  O   UNL     1       1.973   9.339  17.245  0.00  0.00    +0.000 OA
ATOM     15  H   UNL     1       1.999   7.434  19.813  0.00  0.00    +0.000 HD
BRANCH  12  20
ATOM     16  C   UNL     1       3.332   4.452  17.427  0.00  0.00    +0.000 A 
ATOM     17  C   UNL     1       4.497   4.798  16.748  0.00  0.00    +0.000 A 
ATOM     18  C   UNL     1       4.947   6.112  16.766  0.00  0.00    +0.000 A 
ATOM     19  C   UNL     1       4.234   7.087  17.466  0.00  0.00    +0.000 A 
ATOM     20  C   UNL     1       3.067   6.759  18.169  0.00  0.00    +0.000 A 
ATOM     21  C   UNL     1       2.637   5.424  18.162  0.00  0.00    +0.000 A 
BRANCH  16  22
ATOM     22  O   UNL     1       2.982   3.133  17.365  0.00  0.00    +0.000 OA
BRANCH  22  24
ATOM     23  C   UNL     1       1.333   2.060  18.723  0.00  0.00    +0.000 C 
ATOM     24  C   UNL     1       2.805   2.446  18.608  0.00  0.00    +0.000 C 
ATOM     25  C   UNL     1       3.682   1.198  18.588  0.00  0.00    +0.000 C 
ENDBRANCH  22  24
ENDBRANCH  16  22
ENDBRANCH  12  20
ENDBRANCH   1  13
BRANCH   5  26
ATOM     26  C   UNL     1      -0.490   9.705  22.779  0.00  0.00    +0.000 C 
ATOM     27  F   UNL     1      -1.416  10.364  23.519  0.00  0.00    +0.000 F 
ATOM     28  F   UNL     1      -0.988   8.437  22.646  0.00  0.00    +0.000 F 
ATOM     29  F   UNL     1       0.603   9.564  23.593  0.00  0.00    +0.000 F 
ENDBRANCH   5  26
TORSDOF 6
ENDMDL
MODEL 9
REMARK VINA RESULT:      -7.7      1.719      2.841
REMARK  Name = 
REMARK  8 active torsions:
REMARK  status: ('A' for Active; 'I' for Inactive)
REMARK    1  A    between atoms: C_1  and  C_2
REMARK    2  A    between atoms: C_2  and  C_3
REMARK    3  A    between atoms: C_2  and  O_4
REMARK    4  A    between atoms: O_4  and  C_5
REMARK    5  A    between atoms: C_9  and  N_10
REMARK    6  A    between atoms: C_11  and  C_13
REMARK    7  A    between atoms: C_16  and  N_17
REMARK    8  A    between atoms: C_22  and  C_23
REMARK                            x       y       z     vdW  Elec       q    Type
REMARK                         _______ _______ _______ _____ _____    ______ ____
ROOT
ATOM      1  C   UNL     1       2.831   7.072  18.590  0.00  0.00    +0.000 A 
ATOM      2  C   UNL     1       3.642   7.556  17.568  0.00  0.00    +0.000 A 
ATOM      3  C   UNL     1       4.510   6.702  16.880  0.00  0.00    +0.000 A 
ATOM      4  C   UNL     1       4.635   5.330  17.183  0.00  0.00    +0.000 A 
ATOM      5  C   UNL     1       3.822   4.845  18.235  0.00  0.00    +0.000 A 
ATOM      6  C   UNL     1       2.920   5.722  18.918  0.00  0.00    +0.000 A 
ENDROOT
BRANCH   4   7
ATOM      7  N   UNL     1       5.525   4.522  16.474  0.00  0.00    +0.000 N 
ATOM      8  C   UNL     1       6.980   4.786  16.482  0.00  0.00    +0.000 C 
ATOM      9  C   UNL     1       7.353   4.980  15.018  0.00  0.00    +0.000 C 
ATOM     10  C   UNL     1       6.432   4.003  14.320  0.00  0.00    +0.000 C 
ATOM     11  C   UNL     1       5.125   4.129  15.102  0.00  0.00    +0.000 C 
ENDBRANCH   4   7
BRANCH   1  13
ATOM     12  N   UNL     1       1.307   8.995  18.380  0.00  0.00    +0.000 N 
ATOM     13  C   UNL     1       1.856   8.022  19.200  0.00  0.00    +0.000 C 
ATOM     14  O   UNL     1       1.598   7.840  20.389  0.00  0.00    +0.000 OA
ATOM     15  H   UNL     1       1.529   8.962  17.396  0.00  0.00    +0.000 HD
BRANCH  12  20
ATOM     16  C   UNL     1      -0.283  11.709  20.363  0.00  0.00    +0.000 A 
ATOM     17  C   UNL     1      -1.437  11.967  19.627  0.00  0.00    +0.000 A 
ATOM     18  C   UNL     1      -1.697  11.246  18.468  0.00  0.00    +0.000 A 
ATOM     19  C   UNL     1      -0.804  10.261  18.041  0.00  0.00    +0.000 A 
ATOM     20  C   UNL     1       0.356   9.975  18.773  0.00  0.00    +0.000 A 
ATOM     21  C   UNL     1       0.593  10.694  19.954  0.00  0.00    +0.000 A 
BRANCH  16  22
ATOM     22  O   UNL     1      -0.126  12.456  21.495  0.00  0.00    +0.000 OA
BRANCH  22  24
ATOM     23  C   UNL     1      -1.427  11.337  23.159  0.00  0.00    +0.000 C 
ATOM     24  C   UNL     1      -1.273  12.613  22.337  0.00  0.00    +0.000 C 
ATOM     25  C   UNL     1      -1.028  13.809  23.253  0.00  0.00    +0.000 C 
ENDBRANCH  22  24
ENDBRANCH  16  22
ENDBRANCH  12  20
ENDBRANCH   1  13
BRANCH   5  26
ATOM     26  C   UNL     1       3.815   3.419  18.739  0.00  0.00    +0.000 C 
ATOM     27  F   UNL     1       3.648   2.422  17.835  0.00  0.00    +0.000 F 
ATOM     28  F   UNL     1       4.982   3.111  19.386  0.00  0.00    +0.000 F 
ATOM     29  F   UNL     1       2.838   3.231  19.682  0.00  0.00    +0.000 F 
ENDBRANCH   5  26
TORSDOF 6
ENDMDL
