MODEL 1
REMARK VINA RESULT:      -8.4      0.000      0.000
REMARK  Name = 
REMARK  10 active torsions:
REMARK  status: ('A' for Active; 'I' for Inactive)
REMARK    1  A    between atoms: C_1  and  O_2
REMARK    2  A    between atoms: O_2  and  C_3
REMARK    3  A    between atoms: C_7  and  C_8
REMARK    4  A    between atoms: C_8  and  N_9
REMARK    5  A    between atoms: N_9  and  C_10
REMARK    6  A    between atoms: N_9  and  C_11
REMARK    7  A    between atoms: C_11  and  C_12
REMARK    8  A    between atoms: C_16  and  C_17
REMARK    9  A    between atoms: C_17  and  O_18
REMARK   10  A    between atoms: O_18  and  C_19
REMARK                            x       y       z     vdW  Elec       q    Type
REMARK                         _______ _______ _______ _____ _____    ______ ____
ROOT
ATOM      1  C   UNL     1       2.477   6.653  19.568  0.00  0.00    +0.000 A 
ATOM      2  C   UNL     1       2.842   6.972  18.251  0.00  0.00    +0.000 A 
ATOM      3  C   UNL     1       2.562   8.238  17.734  0.00  0.00    +0.000 A 
ATOM      4  C   UNL     1       1.910   9.191  18.522  0.00  0.00    +0.000 A 
ATOM      5  C   UNL     1       1.542   8.893  19.848  0.00  0.00    +0.000 A 
ATOM      6  C   UNL     1       1.837   7.621  20.366  0.00  0.00    +0.000 A 
ENDROOT
BRANCH   1   7
ATOM      7  C   UNL     1       2.763   5.277  20.116  0.00  0.00    +0.000 C 
BRANCH   7   8
ATOM      8  N   UNL     1       2.028   4.220  19.385  0.00  0.00    +0.000 NA
ATOM      9  C   UNL     1       0.920   3.741  20.235  0.00  0.00    +0.000 C 
BRANCH   8  10
ATOM     10  C   UNL     1       2.940   3.115  18.999  0.00  0.00    +0.000 C 
BRANCH  10  15
ATOM     11  C   UNL     1       6.389   4.403  17.951  0.00  0.00    +0.000 A 
ATOM     12  C   UNL     1       6.206   4.534  16.570  0.00  0.00    +0.000 A 
ATOM     13  C   UNL     1       4.987   4.198  15.978  0.00  0.00    +0.000 A 
ATOM     14  C   UNL     1       3.932   3.735  16.763  0.00  0.00    +0.000 A 
ATOM     15  C   UNL     1       4.091   3.597  18.150  0.00  0.00    +0.000 A 
ATOM     16  C   UNL     1       5.325   3.922  18.742  0.00  0.00    +0.000 A 
BRANCH  11  18
ATOM     17  C   UNL     1       7.831   5.860  19.273  0.00  0.00    +0.000 C 
ATOM     18  O   UNL     1       7.591   4.761  18.475  0.00  0.00    +0.000 OA
ENDBRANCH  11  18
ENDBRANCH  10  15
ENDBRANCH   8  10
ENDBRANCH   7   8
ENDBRANCH   1   7
BRANCH   5  19
ATOM     19  C   UNL     1       0.855   9.933  20.702  0.00  0.00    +0.000 C 
BRANCH  19  20
ATOM     20  O   UNL     1       0.431  10.976  19.899  0.00  0.00    +0.000 OA
BRANCH  20  21
ATOM     21  C   UNL     1      -0.783  11.089  19.292  0.00  0.00    +0.000 A 
ATOM     22  C   UNL     1      -1.779  11.794  19.980  0.00  0.00    +0.000 A 
ATOM     23  C   UNL     1      -3.025  12.032  19.396  0.00  0.00    +0.000 A 
ATOM     24  C   UNL     1      -3.295  11.560  18.109  0.00  0.00    +0.000 A 
ATOM     25  C   UNL     1      -4.517  11.824  17.484  0.00  0.00    +0.000 A 
ATOM     26  C   UNL     1      -4.745  11.342  16.198  0.00  0.00    +0.000 A 
ATOM     27  C   UNL     1      -3.743  10.593  15.568  0.00  0.00    +0.000 A 
ATOM     28  O   UNL     1      -3.930  10.157  14.447  0.00  0.00    +0.000 OA
ATOM     29  O   UNL     1      -2.581  10.364  16.186  0.00  0.00    +0.000 OA
ATOM     30  C   UNL     1      -2.319  10.814  17.411  0.00  0.00    +0.000 A 
ATOM     31  C   UNL     1      -1.063  10.581  18.002  0.00  0.00    +0.000 A 
ENDBRANCH  20  21
ENDBRANCH  19  20
ENDBRANCH   5  19
TORSDOF 8
ENDMDL
MODEL 2
REMARK VINA RESULT:      -8.4      1.195      1.895
REMARK  Name = 
REMARK  10 active torsions:
REMARK  status: ('A' for Active; 'I' for Inactive)
REMARK    1  A    between atoms: C_1  and  O_2
REMARK    2  A    between atoms: O_2  and  C_3
REMARK    3  A    between atoms: C_7  and  C_8
REMARK    4  A    between atoms: C_8  and  N_9
REMARK    5  A    between atoms: N_9  and  C_10
REMARK    6  A    between atoms: N_9  and  C_11
REMARK    7  A    between atoms: C_11  and  C_12
REMARK    8  A    between atoms: C_16  and  C_17
REMARK    9  A    between atoms: C_17  and  O_18
REMARK   10  A    between atoms: O_18  and  C_19
REMARK                            x       y       z     vdW  Elec       q    Type
REMARK                         _______ _______ _______ _____ _____    ______ ____
ROOT
ATOM      1  C   UNL     1       2.372   6.096  19.480  0.00  0.00    +0.000 A 
ATOM      2  C   UNL     1       2.839   6.431  18.200  0.00  0.00    +0.000 A 
ATOM      3  C   UNL     1       2.730   7.743  17.736  0.00  0.00    +0.000 A 
ATOM      4  C   UNL     1       2.149   8.728  18.542  0.00  0.00    +0.000 A 
ATOM      5  C   UNL     1       1.682   8.413  19.832  0.00  0.00    +0.000 A 
ATOM      6  C   UNL     1       1.804   7.093  20.296  0.00  0.00    +0.000 A 
ENDROOT
BRANCH   1   7
ATOM      7  C   UNL     1       2.473   4.672  19.969  0.00  0.00    +0.000 C 
BRANCH   7   8
ATOM      8  N   UNL     1       3.072   3.774  18.956  0.00  0.00    +0.000 NA
ATOM      9  C   UNL     1       2.347   2.488  18.977  0.00  0.00    +0.000 C 
BRANCH   8  10
ATOM     10  C   UNL     1       4.522   3.590  19.208  0.00  0.00    +0.000 C 
BRANCH  10  15
ATOM     11  C   UNL     1       5.693   4.203  15.615  0.00  0.00    +0.000 A 
ATOM     12  C   UNL     1       6.953   4.766  15.847  0.00  0.00    +0.000 A 
ATOM     13  C   UNL     1       7.417   4.959  17.150  0.00  0.00    +0.000 A 
ATOM     14  C   UNL     1       6.630   4.582  18.237  0.00  0.00    +0.000 A 
ATOM     15  C   UNL     1       5.364   4.015  18.028  0.00  0.00    +0.000 A 
ATOM     16  C   UNL     1       4.892   3.835  16.716  0.00  0.00    +0.000 A 
BRANCH  11  18
ATOM     17  C   UNL     1       6.128   3.749  13.258  0.00  0.00    +0.000 C 
ATOM     18  O   UNL     1       5.300   4.023  14.327  0.00  0.00    +0.000 OA
ENDBRANCH  11  18
ENDBRANCH  10  15
ENDBRANCH   8  10
ENDBRANCH   7   8
ENDBRANCH   1   7
BRANCH   5  19
ATOM     19  C   UNL     1       1.073   9.485  20.706  0.00  0.00    +0.000 C 
BRANCH  19  20
ATOM     20  O   UNL     1       0.718  10.566  19.921  0.00  0.00    +0.000 OA
BRANCH  20  21
ATOM     21  C   UNL     1      -0.499  10.787  19.349  0.00  0.00    +0.000 A 
ATOM     22  C   UNL     1      -1.377  11.644  20.024  0.00  0.00    +0.000 A 
ATOM     23  C   UNL     1      -2.610  11.993  19.468  0.00  0.00    +0.000 A 
ATOM     24  C   UNL     1      -2.985  11.481  18.224  0.00  0.00    +0.000 A 
ATOM     25  C   UNL     1      -4.193  11.851  17.624  0.00  0.00    +0.000 A 
ATOM     26  C   UNL     1      -4.526  11.324  16.379  0.00  0.00    +0.000 A 
ATOM     27  C   UNL     1      -3.645  10.425  15.765  0.00  0.00    +0.000 A 
ATOM     28  O   UNL     1      -3.927   9.949  14.681  0.00  0.00    +0.000 OA
ATOM     29  O   UNL     1      -2.493  10.097  16.357  0.00  0.00    +0.000 OA
ATOM     30  C   UNL     1      -2.131  10.585  17.542  0.00  0.00    +0.000 A 
ATOM     31  C   UNL     1      -0.888  10.240  18.104  0.00  0.00    +0.000 A 
ENDBRANCH  20  21
ENDBRANCH  19  20
ENDBRANCH   5  19
TORSDOF 8
ENDMDL
MODEL 3
REMARK VINA RESULT:      -8.3      1.970      2.693
REMARK  Name = 
REMARK  10 active torsions:
REMARK  status: ('A' for Active; 'I' for Inactive)
REMARK    1  A    between atoms: C_1  and  O_2
REMARK    2  A    between atoms: O_2  and  C_3
REMARK    3  A    between atoms: C_7  and  C_8
REMARK    4  A    between atoms: C_8  and  N_9
REMARK    5  A    between atoms: N_9  and  C_10
REMARK    6  A    between atoms: N_9  and  C_11
REMARK    7  A    between atoms: C_11  and  C_12
REMARK    8  A    between atoms: C_16  and  C_17
REMARK    9  A    between atoms: C_17  and  O_18
REMARK   10  A    between atoms: O_18  and  C_19
REMARK                            x       y       z     vdW  Elec       q    Type
REMARK                         _______ _______ _______ _____ _____    ______ ____
ROOT
ATOM      1  C   UNL     1       2.299   7.166  19.543  0.00  0.00    +0.000 A 
ATOM      2  C   UNL     1       2.784   7.448  18.257  0.00  0.00    +0.000 A 
ATOM      3  C   UNL     1       2.432   8.640  17.621  0.00  0.00    +0.000 A 
ATOM      4  C   UNL     1       1.591   9.556  18.260  0.00  0.00    +0.000 A 
ATOM      5  C   UNL     1       1.100   9.296  19.553  0.00  0.00    +0.000 A 
ATOM      6  C   UNL     1       1.466   8.099  20.191  0.00  0.00    +0.000 A 
ENDROOT
BRANCH   1   7
ATOM      7  C   UNL     1       2.664   5.868  20.217  0.00  0.00    +0.000 C 
BRANCH   7   8
ATOM      8  N   UNL     1       2.424   4.697  19.343  0.00  0.00    +0.000 NA
ATOM      9  C   UNL     1       1.255   3.955  19.859  0.00  0.00    +0.000 C 
BRANCH   8  10
ATOM     10  C   UNL     1       3.630   3.837  19.271  0.00  0.00    +0.000 C 
BRANCH  10  15
ATOM     11  C   UNL     1       5.720   5.010  16.285  0.00  0.00    +0.000 A 
ATOM     12  C   UNL     1       6.802   5.603  16.946  0.00  0.00    +0.000 A 
ATOM     13  C   UNL     1       6.851   5.639  18.341  0.00  0.00    +0.000 A 
ATOM     14  C   UNL     1       5.824   5.071  19.093  0.00  0.00    +0.000 A 
ATOM     15  C   UNL     1       4.731   4.469  18.453  0.00  0.00    +0.000 A 
ATOM     16  C   UNL     1       4.675   4.447  17.048  0.00  0.00    +0.000 A 
BRANCH  11  18
ATOM     17  C   UNL     1       6.254   3.986  14.136  0.00  0.00    +0.000 C 
ATOM     18  O   UNL     1       5.732   4.989  14.926  0.00  0.00    +0.000 OA
ENDBRANCH  11  18
ENDBRANCH  10  15
ENDBRANCH   8  10
ENDBRANCH   7   8
ENDBRANCH   1   7
BRANCH   5  19
ATOM     19  C   UNL     1       0.206  10.298  20.247  0.00  0.00    +0.000 C 
BRANCH  19  20
ATOM     20  O   UNL     1      -0.335  11.154  19.307  0.00  0.00    +0.000 OA
BRANCH  20  21
ATOM     21  C   UNL     1      -1.642  11.219  18.927  0.00  0.00    +0.000 A 
ATOM     22  C   UNL     1      -2.071  10.306  17.955  0.00  0.00    +0.000 A 
ATOM     23  C   UNL     1      -3.412  10.244  17.569  0.00  0.00    +0.000 A 
ATOM     24  C   UNL     1      -4.346  11.105  18.150  0.00  0.00    +0.000 A 
ATOM     25  C   UNL     1      -5.702  11.033  17.815  0.00  0.00    +0.000 A 
ATOM     26  C   UNL     1      -6.602  11.904  18.423  0.00  0.00    +0.000 A 
ATOM     27  C   UNL     1      -6.121  12.840  19.347  0.00  0.00    +0.000 A 
ATOM     28  O   UNL     1      -6.895  13.614  19.880  0.00  0.00    +0.000 OA
ATOM     29  O   UNL     1      -4.822  12.880  19.655  0.00  0.00    +0.000 OA
ATOM     30  C   UNL     1      -3.929  12.059  19.105  0.00  0.00    +0.000 A 
ATOM     31  C   UNL     1      -2.578  12.114  19.494  0.00  0.00    +0.000 A 
ENDBRANCH  20  21
ENDBRANCH  19  20
ENDBRANCH   5  19
TORSDOF 8
ENDMDL
MODEL 4
REMARK VINA RESULT:      -8.2      3.064      3.941
REMARK  Name = 
REMARK  10 active torsions:
REMARK  status: ('A' for Active; 'I' for Inactive)
REMARK    1  A    between atoms: C_1  and  O_2
REMARK    2  A    between atoms: O_2  and  C_3
REMARK    3  A    between atoms: C_7  and  C_8
REMARK    4  A    between atoms: C_8  and  N_9
REMARK    5  A    between atoms: N_9  and  C_10
REMARK    6  A    between atoms: N_9  and  C_11
REMARK    7  A    between atoms: C_11  and  C_12
REMARK    8  A    between atoms: C_16  and  C_17
REMARK    9  A    between atoms: C_17  and  O_18
REMARK   10  A    between atoms: O_18  and  C_19
REMARK                            x       y       z     vdW  Elec       q    Type
REMARK                         _______ _______ _______ _____ _____    ______ ____
ROOT
ATOM      1  C   UNL     1       2.228   6.949  19.707  0.00  0.00    +0.000 A 
ATOM      2  C   UNL     1       2.431   7.274  18.357  0.00  0.00    +0.000 A 
ATOM      3  C   UNL     1       2.004   8.507  17.862  0.00  0.00    +0.000 A 
ATOM      4  C   UNL     1       1.366   9.422  18.705  0.00  0.00    +0.000 A 
ATOM      5  C   UNL     1       1.160   9.118  20.064  0.00  0.00    +0.000 A 
ATOM      6  C   UNL     1       1.601   7.880  20.559  0.00  0.00    +0.000 A 
ENDROOT
BRANCH   1   7
ATOM      7  C   UNL     1       2.671   5.607  20.233  0.00  0.00    +0.000 C 
BRANCH   7   8
ATOM      8  N   UNL     1       2.818   4.604  19.154  0.00  0.00    +0.000 NA
ATOM      9  C   UNL     1       1.824   3.533  19.367  0.00  0.00    +0.000 C 
BRANCH   8  10
ATOM     10  C   UNL     1       4.201   4.069  19.117  0.00  0.00    +0.000 C 
BRANCH  10  15
ATOM     11  C   UNL     1       6.713   5.874  16.861  0.00  0.00    +0.000 A 
ATOM     12  C   UNL     1       6.319   5.397  15.605  0.00  0.00    +0.000 A 
ATOM     13  C   UNL     1       5.263   4.491  15.486  0.00  0.00    +0.000 A 
ATOM     14  C   UNL     1       4.580   4.059  16.623  0.00  0.00    +0.000 A 
ATOM     15  C   UNL     1       4.956   4.524  17.891  0.00  0.00    +0.000 A 
ATOM     16  C   UNL     1       6.029   5.424  18.011  0.00  0.00    +0.000 A 
BRANCH  11  18
ATOM     17  C   UNL     1       7.683   8.025  17.477  0.00  0.00    +0.000 C 
ATOM     18  O   UNL     1       7.736   6.766  16.915  0.00  0.00    +0.000 OA
ENDBRANCH  11  18
ENDBRANCH  10  15
ENDBRANCH   8  10
ENDBRANCH   7   8
ENDBRANCH   1   7
BRANCH   5  19
ATOM     19  C   UNL     1       0.487  10.118  20.977  0.00  0.00    +0.000 C 
BRANCH  19  20
ATOM     20  O   UNL     1       1.240  11.277  21.017  0.00  0.00    +0.000 OA
BRANCH  20  21
ATOM     21  C   UNL     1       0.950  12.453  20.395  0.00  0.00    +0.000 A 
ATOM     22  C   UNL     1      -0.389  12.865  20.396  0.00  0.00    +0.000 A 
ATOM     23  C   UNL     1      -0.763  14.097  19.857  0.00  0.00    +0.000 A 
ATOM     24  C   UNL     1       0.204  14.938  19.299  0.00  0.00    +0.000 A 
ATOM     25  C   UNL     1      -0.136  16.196  18.794  0.00  0.00    +0.000 A 
ATOM     26  C   UNL     1       0.858  17.006  18.253  0.00  0.00    +0.000 A 
ATOM     27  C   UNL     1       2.176  16.532  18.219  0.00  0.00    +0.000 A 
ATOM     28  O   UNL     1       3.055  17.225  17.742  0.00  0.00    +0.000 OA
ATOM     29  O   UNL     1       2.474  15.329  18.718  0.00  0.00    +0.000 OA
ATOM     30  C   UNL     1       1.555  14.527  19.253  0.00  0.00    +0.000 A 
ATOM     31  C   UNL     1       1.927  13.285  19.802  0.00  0.00    +0.000 A 
ENDBRANCH  20  21
ENDBRANCH  19  20
ENDBRANCH   5  19
TORSDOF 8
ENDMDL
MODEL 5
REMARK VINA RESULT:      -8.2      2.819      3.863
REMARK  Name = 
REMARK  10 active torsions:
REMARK  status: ('A' for Active; 'I' for Inactive)
REMARK    1  A    between atoms: C_1  and  O_2
REMARK    2  A    between atoms: O_2  and  C_3
REMARK    3  A    between atoms: C_7  and  C_8
REMARK    4  A    between atoms: C_8  and  N_9
REMARK    5  A    between atoms: N_9  and  C_10
REMARK    6  A    between atoms: N_9  and  C_11
REMARK    7  A    between atoms: C_11  and  C_12
REMARK    8  A    between atoms: C_16  and  C_17
REMARK    9  A    between atoms: C_17  and  O_18
REMARK   10  A    between atoms: O_18  and  C_19
REMARK                            x       y       z     vdW  Elec       q    Type
REMARK                         _______ _______ _______ _____ _____    ______ ____
ROOT
ATOM      1  C   UNL     1       2.250   5.250  19.226  0.00  0.00    +0.000 A 
ATOM      2  C   UNL     1       2.465   5.882  17.992  0.00  0.00    +0.000 A 
ATOM      3  C   UNL     1       2.394   7.272  17.896  0.00  0.00    +0.000 A 
ATOM      4  C   UNL     1       2.101   8.042  19.026  0.00  0.00    +0.000 A 
ATOM      5  C   UNL     1       1.889   7.427  20.275  0.00  0.00    +0.000 A 
ATOM      6  C   UNL     1       1.972   6.028  20.367  0.00  0.00    +0.000 A 
ENDROOT
BRANCH   1   7
ATOM      7  C   UNL     1       2.306   3.746  19.321  0.00  0.00    +0.000 C 
BRANCH   7   8
ATOM      8  N   UNL     1       3.487   3.185  18.624  0.00  0.00    +0.000 NA
ATOM      9  C   UNL     1       3.374   1.713  18.615  0.00  0.00    +0.000 C 
BRANCH   8  10
ATOM     10  C   UNL     1       4.743   3.635  19.272  0.00  0.00    +0.000 C 
BRANCH  10  15
ATOM     11  C   UNL     1       7.262   6.202  17.959  0.00  0.00    +0.000 A 
ATOM     12  C   UNL     1       7.180   5.962  16.583  0.00  0.00    +0.000 A 
ATOM     13  C   UNL     1       6.332   4.972  16.082  0.00  0.00    +0.000 A 
ATOM     14  C   UNL     1       5.547   4.217  16.952  0.00  0.00    +0.000 A 
ATOM     15  C   UNL     1       5.610   4.441  18.335  0.00  0.00    +0.000 A 
ATOM     16  C   UNL     1       6.476   5.428  18.839  0.00  0.00    +0.000 A 
BRANCH  11  18
ATOM     17  C   UNL     1       8.087   8.497  17.953  0.00  0.00    +0.000 C 
ATOM     18  O   UNL     1       8.091   7.189  18.390  0.00  0.00    +0.000 OA
ENDBRANCH  11  18
ENDBRANCH  10  15
ENDBRANCH   8  10
ENDBRANCH   7   8
ENDBRANCH   1   7
BRANCH   5  19
ATOM     19  C   UNL     1       1.592   8.264  21.498  0.00  0.00    +0.000 C 
BRANCH  19  20
ATOM     20  O   UNL     1       0.240   8.555  21.533  0.00  0.00    +0.000 OA
BRANCH  20  21
ATOM     21  C   UNL     1      -0.325   9.790  21.436  0.00  0.00    +0.000 A 
ATOM     22  C   UNL     1      -0.575  10.280  20.148  0.00  0.00    +0.000 A 
ATOM     23  C   UNL     1      -1.230  11.498  19.956  0.00  0.00    +0.000 A 
ATOM     24  C   UNL     1      -1.640  12.251  21.058  0.00  0.00    +0.000 A 
ATOM     25  C   UNL     1      -2.338  13.452  20.894  0.00  0.00    +0.000 A 
ATOM     26  C   UNL     1      -2.736  14.169  22.019  0.00  0.00    +0.000 A 
ATOM     27  C   UNL     1      -2.415  13.673  23.289  0.00  0.00    +0.000 A 
ATOM     28  O   UNL     1      -2.749  14.293  24.281  0.00  0.00    +0.000 OA
ATOM     29  O   UNL     1      -1.756  12.518  23.416  0.00  0.00    +0.000 OA
ATOM     30  C   UNL     1      -1.365  11.796  22.367  0.00  0.00    +0.000 A 
ATOM     31  C   UNL     1      -0.709  10.565  22.555  0.00  0.00    +0.000 A 
ENDBRANCH  20  21
ENDBRANCH  19  20
ENDBRANCH   5  19
TORSDOF 8
ENDMDL
MODEL 6
REMARK VINA RESULT:      -8.2      5.334      9.378
REMARK  Name = 
REMARK  10 active torsions:
REMARK  status: ('A' for Active; 'I' for Inactive)
REMARK    1  A    between atoms: C_1  and  O_2
REMARK    2  A    between atoms: O_2  and  C_3
REMARK    3  A    between atoms: C_7  and  C_8
REMARK    4  A    between atoms: C_8  and  N_9
REMARK    5  A    between atoms: N_9  and  C_10
REMARK    6  A    between atoms: N_9  and  C_11
REMARK    7  A    between atoms: C_11  and  C_12
REMARK    8  A    between atoms: C_16  and  C_17
REMARK    9  A    between atoms: C_17  and  O_18
REMARK   10  A    between atoms: O_18  and  C_19
REMARK                            x       y       z     vdW  Elec       q    Type
REMARK                         _______ _______ _______ _____ _____    ______ ____
ROOT
ATOM      1  C   UNL     1       5.984   6.043  17.675  0.00  0.00    +0.000 A 
ATOM      2  C   UNL     1       6.573   5.232  18.657  0.00  0.00    +0.000 A 
ATOM      3  C   UNL     1       7.713   5.669  19.334  0.00  0.00    +0.000 A 
ATOM      4  C   UNL     1       8.277   6.913  19.033  0.00  0.00    +0.000 A 
ATOM      5  C   UNL     1       7.696   7.744  18.057  0.00  0.00    +0.000 A 
ATOM      6  C   UNL     1       6.543   7.303  17.386  0.00  0.00    +0.000 A 
ENDROOT
BRANCH   1   7
ATOM      7  C   UNL     1       4.765   5.558  16.931  0.00  0.00    +0.000 C 
BRANCH   7   8
ATOM      8  N   UNL     1       4.685   4.080  16.891  0.00  0.00    +0.000 NA
ATOM      9  C   UNL     1       5.428   3.598  15.710  0.00  0.00    +0.000 C 
BRANCH   8  10
ATOM     10  C   UNL     1       3.272   3.630  16.872  0.00  0.00    +0.000 C 
BRANCH  10  15
ATOM     11  C   UNL     1       1.809   4.878  20.183  0.00  0.00    +0.000 A 
ATOM     12  C   UNL     1       1.540   3.661  20.820  0.00  0.00    +0.000 A 
ATOM     13  C   UNL     1       1.813   2.449  20.184  0.00  0.00    +0.000 A 
ATOM     14  C   UNL     1       2.370   2.438  18.906  0.00  0.00    +0.000 A 
ATOM     15  C   UNL     1       2.650   3.645  18.248  0.00  0.00    +0.000 A 
ATOM     16  C   UNL     1       2.360   4.866  18.884  0.00  0.00    +0.000 A 
BRANCH  11  18
ATOM     17  C   UNL     1       1.820   7.305  20.420  0.00  0.00    +0.000 C 
ATOM     18  O   UNL     1       1.539   6.027  20.855  0.00  0.00    +0.000 OA
ENDBRANCH  11  18
ENDBRANCH  10  15
ENDBRANCH   8  10
ENDBRANCH   7   8
ENDBRANCH   1   7
BRANCH   5  19
ATOM     19  C   UNL     1       8.298   9.096  17.748  0.00  0.00    +0.000 C 
BRANCH  19  20
ATOM     20  O   UNL     1       9.209   9.425  18.735  0.00  0.00    +0.000 OA
BRANCH  20  21
ATOM     21  C   UNL     1       9.467  10.674  19.216  0.00  0.00    +0.000 A 
ATOM     22  C   UNL     1       9.329  10.869  20.596  0.00  0.00    +0.000 A 
ATOM     23  C   UNL     1       9.655  12.092  21.185  0.00  0.00    +0.000 A 
ATOM     24  C   UNL     1      10.121  13.145  20.395  0.00  0.00    +0.000 A 
ATOM     25  C   UNL     1      10.498  14.365  20.965  0.00  0.00    +0.000 A 
ATOM     26  C   UNL     1      10.965  15.387  20.144  0.00  0.00    +0.000 A 
ATOM     27  C   UNL     1      11.033  15.169  18.762  0.00  0.00    +0.000 A 
ATOM     28  O   UNL     1      11.430  16.057  18.030  0.00  0.00    +0.000 OA
ATOM     29  O   UNL     1      10.675  13.991  18.245  0.00  0.00    +0.000 OA
ATOM     30  C   UNL     1      10.232  12.984  18.996  0.00  0.00    +0.000 A 
ATOM     31  C   UNL     1       9.907  11.747  18.407  0.00  0.00    +0.000 A 
ENDBRANCH  20  21
ENDBRANCH  19  20
ENDBRANCH   5  19
TORSDOF 8
ENDMDL
MODEL 7
REMARK VINA RESULT:      -8.2      2.757      4.226
REMARK  Name = 
REMARK  10 active torsions:
REMARK  status: ('A' for Active; 'I' for Inactive)
REMARK    1  A    between atoms: C_1  and  O_2
REMARK    2  A    between atoms: O_2  and  C_3
REMARK    3  A    between atoms: C_7  and  C_8
REMARK    4  A    between atoms: C_8  and  N_9
REMARK    5  A    between atoms: N_9  and  C_10
REMARK    6  A    between atoms: N_9  and  C_11
REMARK    7  A    between atoms: C_11  and  C_12
REMARK    8  A    between atoms: C_16  and  C_17
REMARK    9  A    between atoms: C_17  and  O_18
REMARK   10  A    between atoms: O_18  and  C_19
REMARK                            x       y       z     vdW  Elec       q    Type
REMARK                         _______ _______ _______ _____ _____    ______ ____
ROOT
ATOM      1  C   UNL     1       2.090   4.621  18.521  0.00  0.00    +0.000 A 
ATOM      2  C   UNL     1       1.785   4.575  19.890  0.00  0.00    +0.000 A 
ATOM      3  C   UNL     1       1.768   5.750  20.643  0.00  0.00    +0.000 A 
ATOM      4  C   UNL     1       2.063   6.977  20.040  0.00  0.00    +0.000 A 
ATOM      5  C   UNL     1       2.364   7.045  18.666  0.00  0.00    +0.000 A 
ATOM      6  C   UNL     1       2.368   5.860  17.912  0.00  0.00    +0.000 A 
ENDROOT
BRANCH   1   7
ATOM      7  C   UNL     1       2.127   3.346  17.715  0.00  0.00    +0.000 C 
BRANCH   7   8
ATOM      8  N   UNL     1       3.472   2.726  17.711  0.00  0.00    +0.000 NA
ATOM      9  C   UNL     1       3.415   1.470  18.485  0.00  0.00    +0.000 C 
BRANCH   8  10
ATOM     10  C   UNL     1       4.485   3.662  18.257  0.00  0.00    +0.000 C 
BRANCH  10  15
ATOM     11  C   UNL     1       6.967   5.906  16.397  0.00  0.00    +0.000 A 
ATOM     12  C   UNL     1       7.035   5.246  15.164  0.00  0.00    +0.000 A 
ATOM     13  C   UNL     1       6.299   4.082  14.937  0.00  0.00    +0.000 A 
ATOM     14  C   UNL     1       5.477   3.567  15.939  0.00  0.00    +0.000 A 
ATOM     15  C   UNL     1       5.392   4.211  17.182  0.00  0.00    +0.000 A 
ATOM     16  C   UNL     1       6.146   5.376  17.414  0.00  0.00    +0.000 A 
BRANCH  11  18
ATOM     17  C   UNL     1       7.796   7.782  17.716  0.00  0.00    +0.000 C 
ATOM     18  O   UNL     1       7.692   7.044  16.556  0.00  0.00    +0.000 OA
ENDBRANCH  11  18
ENDBRANCH  10  15
ENDBRANCH   8  10
ENDBRANCH   7   8
ENDBRANCH   1   7
BRANCH   5  19
ATOM     19  C   UNL     1       2.662   8.375  18.014  0.00  0.00    +0.000 C 
BRANCH  19  20
ATOM     20  O   UNL     1       1.494   9.108  17.917  0.00  0.00    +0.000 OA
BRANCH  20  21
ATOM     21  C   UNL     1       1.337  10.427  18.217  0.00  0.00    +0.000 A 
ATOM     22  C   UNL     1       0.157  10.798  18.874  0.00  0.00    +0.000 A 
ATOM     23  C   UNL     1      -0.049  12.113  19.296  0.00  0.00    +0.000 A 
ATOM     24  C   UNL     1       0.928  13.083  19.058  0.00  0.00    +0.000 A 
ATOM     25  C   UNL     1       0.767  14.396  19.510  0.00  0.00    +0.000 A 
ATOM     26  C   UNL     1       1.767  15.332  19.259  0.00  0.00    +0.000 A 
ATOM     27  C   UNL     1       2.906  14.932  18.548  0.00  0.00    +0.000 A 
ATOM     28  O   UNL     1       3.785  15.741  18.313  0.00  0.00    +0.000 OA
ATOM     29  O   UNL     1       3.037  13.669  18.136  0.00  0.00    +0.000 OA
ATOM     30  C   UNL     1       2.109  12.741  18.363  0.00  0.00    +0.000 A 
ATOM     31  C   UNL     1       2.314  11.413  17.945  0.00  0.00    +0.000 A 
ENDBRANCH  20  21
ENDBRANCH  19  20
ENDBRANCH   5  19
TORSDOF 8
ENDMDL
MODEL 8
REMARK VINA RESULT:      -8.2      3.419      4.436
REMARK  Name = 
REMARK  10 active torsions:
REMARK  status: ('A' for Active; 'I' for Inactive)
REMARK    1  A    between atoms: C_1  and  O_2
REMARK    2  A    between atoms: O_2  and  C_3
REMARK    3  A    between atoms: C_7  and  C_8
REMARK    4  A    between atoms: C_8  and  N_9
REMARK    5  A    between atoms: N_9  and  C_10
REMARK    6  A    between atoms: N_9  and  C_11
REMARK    7  A    between atoms: C_11  and  C_12
REMARK    8  A    between atoms: C_16  and  C_17
REMARK    9  A    between atoms: C_17  and  O_18
REMARK   10  A    between atoms: O_18  and  C_19
REMARK                            x       y       z     vdW  Elec       q    Type
REMARK                         _______ _______ _______ _____ _____    ______ ____
ROOT
ATOM      1  C   UNL     1       2.559   6.762  19.394  0.00  0.00    +0.000 A 
ATOM      2  C   UNL     1       2.609   7.438  18.165  0.00  0.00    +0.000 A 
ATOM      3  C   UNL     1       2.021   8.697  18.034  0.00  0.00    +0.000 A 
ATOM      4  C   UNL     1       1.372   9.288  19.124  0.00  0.00    +0.000 A 
ATOM      5  C   UNL     1       1.318   8.628  20.367  0.00  0.00    +0.000 A 
ATOM      6  C   UNL     1       1.921   7.366  20.494  0.00  0.00    +0.000 A 
ENDROOT
BRANCH   1   7
ATOM      7  C   UNL     1       3.177   5.392  19.524  0.00  0.00    +0.000 C 
BRANCH   7   8
ATOM      8  N   UNL     1       2.898   4.538  18.348  0.00  0.00    +0.000 NA
ATOM      9  C   UNL     1       1.560   3.936  18.508  0.00  0.00    +0.000 C 
BRANCH   8  10
ATOM     10  C   UNL     1       3.949   3.503  18.188  0.00  0.00    +0.000 C 
BRANCH  10  15
ATOM     11  C   UNL     1       5.995   4.162  15.019  0.00  0.00    +0.000 A 
ATOM     12  C   UNL     1       7.138   4.752  15.570  0.00  0.00    +0.000 A 
ATOM     13  C   UNL     1       7.245   4.949  16.948  0.00  0.00    +0.000 A 
ATOM     14  C   UNL     1       6.212   4.548  17.795  0.00  0.00    +0.000 A 
ATOM     15  C   UNL     1       5.057   3.953  17.266  0.00  0.00    +0.000 A 
ATOM     16  C   UNL     1       4.944   3.770  15.876  0.00  0.00    +0.000 A 
BRANCH  11  18
ATOM     17  C   UNL     1       6.966   4.271  12.785  0.00  0.00    +0.000 C 
ATOM     18  O   UNL     1       5.952   3.980  13.674  0.00  0.00    +0.000 OA
ENDBRANCH  11  18
ENDBRANCH  10  15
ENDBRANCH   8  10
ENDBRANCH   7   8
ENDBRANCH   1   7
BRANCH   5  19
ATOM     19  C   UNL     1       0.633   9.279  21.547  0.00  0.00    +0.000 C 
BRANCH  19  20
ATOM     20  O   UNL     1       0.565  10.644  21.339  0.00  0.00    +0.000 OA
BRANCH  20  21
ATOM     21  C   UNL     1      -0.286  11.515  21.949  0.00  0.00    +0.000 A 
ATOM     22  C   UNL     1      -0.007  12.881  21.815  0.00  0.00    +0.000 A 
ATOM     23  C   UNL     1      -0.872  13.846  22.335  0.00  0.00    +0.000 A 
ATOM     24  C   UNL     1      -2.033  13.454  23.006  0.00  0.00    +0.000 A 
ATOM     25  C   UNL     1      -2.940  14.399  23.495  0.00  0.00    +0.000 A 
ATOM     26  C   UNL     1      -4.089  13.967  24.151  0.00  0.00    +0.000 A 
ATOM     27  C   UNL     1      -4.300  12.592  24.314  0.00  0.00    +0.000 A 
ATOM     28  O   UNL     1      -5.296  12.199  24.893  0.00  0.00    +0.000 OA
ATOM     29  O   UNL     1      -3.422  11.711  23.828  0.00  0.00    +0.000 OA
ATOM     30  C   UNL     1      -2.316  12.081  23.186  0.00  0.00    +0.000 A 
ATOM     31  C   UNL     1      -1.443  11.113  22.656  0.00  0.00    +0.000 A 
ENDBRANCH  20  21
ENDBRANCH  19  20
ENDBRANCH   5  19
TORSDOF 8
ENDMDL
MODEL 9
REMARK VINA RESULT:      -8.1      1.652      2.151
REMARK  Name = 
REMARK  10 active torsions:
REMARK  status: ('A' for Active; 'I' for Inactive)
REMARK    1  A    between atoms: C_1  and  O_2
REMARK    2  A    between atoms: O_2  and  C_3
REMARK    3  A    between atoms: C_7  and  C_8
REMARK    4  A    between atoms: C_8  and  N_9
REMARK    5  A    between atoms: N_9  and  C_10
REMARK    6  A    between atoms: N_9  and  C_11
REMARK    7  A    between atoms: C_11  and  C_12
REMARK    8  A    between atoms: C_16  and  C_17
REMARK    9  A    between atoms: C_17  and  O_18
REMARK   10  A    between atoms: O_18  and  C_19
REMARK                            x       y       z     vdW  Elec       q    Type
REMARK                         _______ _______ _______ _____ _____    ______ ____
ROOT
ATOM      1  C   UNL     1       2.464   7.002  19.471  0.00  0.00    +0.000 A 
ATOM      2  C   UNL     1       3.123   7.028  18.232  0.00  0.00    +0.000 A 
ATOM      3  C   UNL     1       2.944   8.108  17.367  0.00  0.00    +0.000 A 
ATOM      4  C   UNL     1       2.102   9.166  17.725  0.00  0.00    +0.000 A 
ATOM      5  C   UNL     1       1.438   9.162  18.967  0.00  0.00    +0.000 A 
ATOM      6  C   UNL     1       1.631   8.077  19.838  0.00  0.00    +0.000 A 
ENDROOT
BRANCH   1   7
ATOM      7  C   UNL     1       2.643   5.823  20.394  0.00  0.00    +0.000 C 
BRANCH   7   8
ATOM      8  N   UNL     1       2.154   4.562  19.793  0.00  0.00    +0.000 NA
ATOM      9  C   UNL     1       0.960   4.115  20.538  0.00  0.00    +0.000 C 
BRANCH   8  10
ATOM     10  C   UNL     1       3.219   3.530  19.794  0.00  0.00    +0.000 C 
BRANCH  10  15
ATOM     11  C   UNL     1       6.470   4.451  17.993  0.00  0.00    +0.000 A 
ATOM     12  C   UNL     1       6.099   4.227  16.662  0.00  0.00    +0.000 A 
ATOM     13  C   UNL     1       4.818   3.770  16.347  0.00  0.00    +0.000 A 
ATOM     14  C   UNL     1       3.887   3.541  17.360  0.00  0.00    +0.000 A 
ATOM     15  C   UNL     1       4.236   3.760  18.701  0.00  0.00    +0.000 A 
ATOM     16  C   UNL     1       5.531   4.205  19.018  0.00  0.00    +0.000 A 
BRANCH  11  18
ATOM     17  C   UNL     1       8.080   5.795  19.236  0.00  0.00    +0.000 C 
ATOM     18  O   UNL     1       7.724   4.911  18.240  0.00  0.00    +0.000 OA
ENDBRANCH  11  18
ENDBRANCH  10  15
ENDBRANCH   8  10
ENDBRANCH   7   8
ENDBRANCH   1   7
BRANCH   5  19
ATOM     19  C   UNL     1       0.545  10.317  19.358  0.00  0.00    +0.000 C 
BRANCH  19  20
ATOM     20  O   UNL     1      -0.065  10.826  18.227  0.00  0.00    +0.000 OA
BRANCH  20  21
ATOM     21  C   UNL     1      -1.401  11.025  18.046  0.00  0.00    +0.000 A 
ATOM     22  C   UNL     1      -1.989  10.435  16.920  0.00  0.00    +0.000 A 
ATOM     23  C   UNL     1      -3.366  10.515  16.703  0.00  0.00    +0.000 A 
ATOM     24  C   UNL     1      -4.177  11.197  17.613  0.00  0.00    +0.000 A 
ATOM     25  C   UNL     1      -5.564  11.254  17.443  0.00  0.00    +0.000 A 
ATOM     26  C   UNL     1      -6.339  11.937  18.376  0.00  0.00    +0.000 A 
ATOM     27  C   UNL     1      -5.704  12.562  19.457  0.00  0.00    +0.000 A 
ATOM     28  O   UNL     1      -6.366  13.170  20.277  0.00  0.00    +0.000 OA
ATOM     29  O   UNL     1      -4.378  12.483  19.599  0.00  0.00    +0.000 OA
ATOM     30  C   UNL     1      -3.601  11.832  18.736  0.00  0.00    +0.000 A 
ATOM     31  C   UNL     1      -2.214  11.744  18.952  0.00  0.00    +0.000 A 
ENDBRANCH  20  21
ENDBRANCH  19  20
ENDBRANCH   5  19
TORSDOF 8
ENDMDL
