MODEL 1
REMARK VINA RESULT:      -8.6      0.000      0.000
REMARK  Name = 
REMARK  11 active torsions:
REMARK  status: ('A' for Active; 'I' for Inactive)
REMARK    1  A    between atoms: C_1  and  C_2
REMARK    2  A    between atoms: C_7  and  C_8
REMARK    3  A    between atoms: C_8  and  O_9
REMARK    4  A    between atoms: O_9  and  C_10
REMARK    5  A    between atoms: C_14  and  N_15
REMARK    6  A    between atoms: N_15  and  C_16
REMARK    7  A    between atoms: N_24  and  C1*_25
REMARK    8  A    between atoms: C4*_27  and  C5*_28
REMARK    9  A    between atoms: C5*_28  and  O5*_29
REMARK   10  A    between atoms: C3*_30  and  O3*_31
REMARK   11  A    between atoms: C2*_32  and  O2*_33
REMARK                            x       y       z     vdW  Elec       q    Type
REMARK                         _______ _______ _______ _____ _____    ______ ____
ROOT
ATOM      1  C   UNL     1       2.234   6.740  20.076  0.00  0.00    +0.000 A 
ATOM      2  N   UNL     1       2.914   6.635  18.905  0.00  0.00    +0.000 NA
ATOM      3  C   UNL     1       2.848   7.643  18.018  0.00  0.00    +0.000 A 
ATOM      4  N   UNL     1       2.167   8.795  18.129  0.00  0.00    +0.000 NA
ATOM      5  C   UNL     1       1.508   8.863  19.294  0.00  0.00    +0.000 A 
ATOM      6  C   UNL     1       1.499   7.920  20.310  0.00  0.00    +0.000 A 
ATOM      7  N   UNL     1       0.719   8.358  21.363  0.00  0.00    +0.000 NA
ATOM      8  C   UNL     1       0.273   9.538  20.991  0.00  0.00    +0.000 A 
ATOM      9  N   UNL     1       0.721   9.885  19.746  0.00  0.00    +0.000 N 
ENDROOT
BRANCH   9  10
ATOM     10  C1* UNL     1       0.461  11.140  19.073  0.00  0.00    +0.000 C 
ATOM     11  O4* UNL     1       0.828  12.235  19.941  0.00  0.00    +0.000 OA
ATOM     12  C4* UNL     1      -0.213  13.242  19.886  0.00  0.00    +0.000 C 
ATOM     13  C3* UNL     1      -1.150  12.844  18.747  0.00  0.00    +0.000 C 
ATOM     14  C2* UNL     1      -0.995  11.336  18.657  0.00  0.00    +0.000 C 
BRANCH  13  15
ATOM     15  O3* UNL     1      -0.722  13.401  17.487  0.00  0.00    +0.000 OA
ATOM     16  H3* UNL     1      -1.507  13.656  16.969  0.00  0.00    +0.000 HD
ENDBRANCH  13  15
BRANCH  14  17
ATOM     17  O2* UNL     1      -1.244  10.855  17.335  0.00  0.00    +0.000 OA
ATOM     18  H2* UNL     1      -1.643  11.605  16.843  0.00  0.00    +0.000 HD
ENDBRANCH  14  17
BRANCH  12  19
ATOM     19  C5* UNL     1      -0.916  13.333  21.244  0.00  0.00    +0.000 C 
BRANCH  19  20
ATOM     20  O5* UNL     1      -0.077  12.806  22.269  0.00  0.00    +0.000 OA
ATOM     21  H5* UNL     1       0.572  13.506  22.477  0.00  0.00    +0.000 HD
ENDBRANCH  19  20
ENDBRANCH  12  19
ENDBRANCH   9  10
BRANCH   1  22
ATOM     22  N   UNL     1       2.280   5.695  21.010  0.00  0.00    +0.000 N 
ATOM     23  H   UNL     1       2.774   6.057  21.822  0.00  0.00    +0.000 HD
BRANCH  22  28
ATOM     24  C   UNL     1       2.242   3.957  19.196  0.00  0.00    +0.000 C 
ATOM     25  C   UNL     1       0.902   3.413  19.701  0.00  0.00    +0.000 C 
ATOM     26  C   UNL     1       1.238   2.736  21.025  0.00  0.00    +0.000 C 
ATOM     27  C   UNL     1       2.578   3.319  21.483  0.00  0.00    +0.000 C 
ATOM     28  C   UNL     1       2.902   4.460  20.507  0.00  0.00    +0.000 C 
BRANCH  24  29
ATOM     29  O   UNL     1       3.060   2.916  18.630  0.00  0.00    +0.000 OA
BRANCH  29  30
ATOM     30  C   UNL     1       4.453   3.148  18.799  0.00  0.00    +0.000 C 
BRANCH  30  37
ATOM     31  C   UNL     1       6.407   5.426  19.318  0.00  0.00    +0.000 C 
ATOM     32  C   UNL     1       5.931   5.066  17.936  0.00  0.00    +0.000 A 
ATOM     33  C   UNL     1       6.449   5.784  16.845  0.00  0.00    +0.000 A 
ATOM     34  C   UNL     1       6.067   5.473  15.533  0.00  0.00    +0.000 A 
ATOM     35  C   UNL     1       5.156   4.444  15.308  0.00  0.00    +0.000 A 
ATOM     36  C   UNL     1       4.631   3.727  16.374  0.00  0.00    +0.000 A 
ATOM     37  C   UNL     1       5.000   4.031  17.701  0.00  0.00    +0.000 A 
ENDBRANCH  30  37
ENDBRANCH  29  30
ENDBRANCH  24  29
ENDBRANCH  22  28
ENDBRANCH   1  22
TORSDOF 10
ENDMDL
MODEL 2
REMARK VINA RESULT:      -8.6      1.279      4.214
REMARK  Name = 
REMARK  11 active torsions:
REMARK  status: ('A' for Active; 'I' for Inactive)
REMARK    1  A    between atoms: C_1  and  C_2
REMARK    2  A    between atoms: C_7  and  C_8
REMARK    3  A    between atoms: C_8  and  O_9
REMARK    4  A    between atoms: O_9  and  C_10
REMARK    5  A    between atoms: C_14  and  N_15
REMARK    6  A    between atoms: N_15  and  C_16
REMARK    7  A    between atoms: N_24  and  C1*_25
REMARK    8  A    between atoms: C4*_27  and  C5*_28
REMARK    9  A    between atoms: C5*_28  and  O5*_29
REMARK   10  A    between atoms: C3*_30  and  O3*_31
REMARK   11  A    between atoms: C2*_32  and  O2*_33
REMARK                            x       y       z     vdW  Elec       q    Type
REMARK                         _______ _______ _______ _____ _____    ______ ____
ROOT
ATOM      1  C   UNL     1       3.096   7.332  18.402  0.00  0.00    +0.000 A 
ATOM      2  N   UNL     1       3.028   6.501  19.474  0.00  0.00    +0.000 NA
ATOM      3  C   UNL     1       2.176   6.789  20.473  0.00  0.00    +0.000 A 
ATOM      4  N   UNL     1       1.344   7.839  20.569  0.00  0.00    +0.000 NA
ATOM      5  C   UNL     1       1.439   8.637  19.496  0.00  0.00    +0.000 A 
ATOM      6  C   UNL     1       2.249   8.459  18.386  0.00  0.00    +0.000 A 
ATOM      7  N   UNL     1       2.051   9.483  17.479  0.00  0.00    +0.000 NA
ATOM      8  C   UNL     1       1.141  10.257  18.030  0.00  0.00    +0.000 A 
ATOM      9  N   UNL     1       0.742   9.788  19.252  0.00  0.00    +0.000 N 
ENDROOT
BRANCH   9  10
ATOM     10  C1* UNL     1      -0.284  10.373  20.088  0.00  0.00    +0.000 C 
ATOM     11  O4* UNL     1      -1.191  11.141  19.269  0.00  0.00    +0.000 OA
ATOM     12  C4* UNL     1      -1.463  12.402  19.932  0.00  0.00    +0.000 C 
ATOM     13  C3* UNL     1      -0.875  12.295  21.338  0.00  0.00    +0.000 C 
ATOM     14  C2* UNL     1       0.253  11.290  21.186  0.00  0.00    +0.000 C 
BRANCH  13  15
ATOM     15  O3* UNL     1      -1.826  11.745  22.272  0.00  0.00    +0.000 OA
ATOM     16  H3* UNL     1      -1.617  12.070  23.166  0.00  0.00    +0.000 HD
ENDBRANCH  13  15
BRANCH  14  17
ATOM     17  O2* UNL     1       0.499  10.582  22.402  0.00  0.00    +0.000 OA
ATOM     18  H2* UNL     1      -0.154   9.851  22.429  0.00  0.00    +0.000 HD
ENDBRANCH  14  17
BRANCH  12  19
ATOM     19  C5* UNL     1      -0.872  13.554  19.114  0.00  0.00    +0.000 C 
BRANCH  19  20
ATOM     20  O5* UNL     1      -0.843  13.212  17.730  0.00  0.00    +0.000 OA
ATOM     21  H5* UNL     1       0.033  13.489  17.398  0.00  0.00    +0.000 HD
ENDBRANCH  19  20
ENDBRANCH  12  19
ENDBRANCH   9  10
BRANCH   1  22
ATOM     22  N   UNL     1       3.986   7.056  17.354  0.00  0.00    +0.000 N 
ATOM     23  H   UNL     1       3.538   7.385  16.503  0.00  0.00    +0.000 HD
BRANCH  22  28
ATOM     24  C   UNL     1       5.218   5.164  18.457  0.00  0.00    +0.000 C 
ATOM     25  C   UNL     1       6.565   5.846  18.194  0.00  0.00    +0.000 C 
ATOM     26  C   UNL     1       6.757   5.746  16.685  0.00  0.00    +0.000 C 
ATOM     27  C   UNL     1       5.370   5.495  16.086  0.00  0.00    +0.000 C 
ATOM     28  C   UNL     1       4.373   5.640  17.246  0.00  0.00    +0.000 C 
BRANCH  24  29
ATOM     29  O   UNL     1       5.331   3.729  18.413  0.00  0.00    +0.000 OA
BRANCH  29  30
ATOM     30  C   UNL     1       4.121   3.087  18.032  0.00  0.00    +0.000 C 
BRANCH  30  37
ATOM     31  C   UNL     1       1.208   3.905  17.676  0.00  0.00    +0.000 C 
ATOM     32  C   UNL     1       1.762   3.433  18.994  0.00  0.00    +0.000 A 
ATOM     33  C   UNL     1       0.883   3.324  20.086  0.00  0.00    +0.000 A 
ATOM     34  C   UNL     1       1.334   2.859  21.328  0.00  0.00    +0.000 A 
ATOM     35  C   UNL     1       2.673   2.509  21.487  0.00  0.00    +0.000 A 
ATOM     36  C   UNL     1       3.556   2.614  20.421  0.00  0.00    +0.000 A 
ATOM     37  C   UNL     1       3.120   3.085  19.165  0.00  0.00    +0.000 A 
ENDBRANCH  30  37
ENDBRANCH  29  30
ENDBRANCH  24  29
ENDBRANCH  22  28
ENDBRANCH   1  22
TORSDOF 10
ENDMDL
MODEL 3
REMARK VINA RESULT:      -8.4      0.771      1.469
REMARK  Name = 
REMARK  11 active torsions:
REMARK  status: ('A' for Active; 'I' for Inactive)
REMARK    1  A    between atoms: C_1  and  C_2
REMARK    2  A    between atoms: C_7  and  C_8
REMARK    3  A    between atoms: C_8  and  O_9
REMARK    4  A    between atoms: O_9  and  C_10
REMARK    5  A    between atoms: C_14  and  N_15
REMARK    6  A    between atoms: N_15  and  C_16
REMARK    7  A    between atoms: N_24  and  C1*_25
REMARK    8  A    between atoms: C4*_27  and  C5*_28
REMARK    9  A    between atoms: C5*_28  and  O5*_29
REMARK   10  A    between atoms: C3*_30  and  O3*_31
REMARK   11  A    between atoms: C2*_32  and  O2*_33
REMARK                            x       y       z     vdW  Elec       q    Type
REMARK                         _______ _______ _______ _____ _____    ______ ____
ROOT
ATOM      1  C   UNL     1       1.782   7.028  20.118  0.00  0.00    +0.000 A 
ATOM      2  N   UNL     1       2.469   7.021  18.947  0.00  0.00    +0.000 NA
ATOM      3  C   UNL     1       2.503   8.140  18.202  0.00  0.00    +0.000 A 
ATOM      4  N   UNL     1       1.921   9.321  18.462  0.00  0.00    +0.000 NA
ATOM      5  C   UNL     1       1.251   9.291  19.623  0.00  0.00    +0.000 A 
ATOM      6  C   UNL     1       1.145   8.226  20.504  0.00  0.00    +0.000 A 
ATOM      7  N   UNL     1       0.389   8.585  21.602  0.00  0.00    +0.000 NA
ATOM      8  C   UNL     1       0.049   9.839  21.389  0.00  0.00    +0.000 A 
ATOM      9  N   UNL     1       0.546  10.308  20.204  0.00  0.00    +0.000 N 
ENDROOT
BRANCH   9  10
ATOM     10  C1* UNL     1       0.404  11.659  19.703  0.00  0.00    +0.000 C 
ATOM     11  O4* UNL     1       0.714  12.596  20.756  0.00  0.00    +0.000 OA
ATOM     12  C4* UNL     1      -0.279  13.652  20.748  0.00  0.00    +0.000 C 
ATOM     13  C3* UNL     1      -1.102  13.471  19.473  0.00  0.00    +0.000 C 
ATOM     14  C2* UNL     1      -0.992  11.986  19.176  0.00  0.00    +0.000 C 
BRANCH  13  15
ATOM     15  O3* UNL     1      -0.522  14.182  18.361  0.00  0.00    +0.000 OA
ATOM     16  H3* UNL     1       0.332  13.773  18.133  0.00  0.00    +0.000 HD
ENDBRANCH  13  15
BRANCH  14  17
ATOM     17  O2* UNL     1      -1.114  11.715  17.778  0.00  0.00    +0.000 OA
ATOM     18  H2* UNL     1      -0.381  11.103  17.555  0.00  0.00    +0.000 HD
ENDBRANCH  14  17
BRANCH  12  19
ATOM     19  C5* UNL     1      -1.120  13.581  22.026  0.00  0.00    +0.000 C 
BRANCH  19  20
ATOM     20  O5* UNL     1      -0.474  12.758  22.995  0.00  0.00    +0.000 OA
ATOM     21  H5* UNL     1      -0.464  11.855  22.623  0.00  0.00    +0.000 HD
ENDBRANCH  19  20
ENDBRANCH  12  19
ENDBRANCH   9  10
BRANCH   1  22
ATOM     22  N   UNL     1       1.724   5.868  20.905  0.00  0.00    +0.000 N 
ATOM     23  H   UNL     1       1.913   6.160  21.860  0.00  0.00    +0.000 HD
BRANCH  22  28
ATOM     24  C   UNL     1       2.194   4.135  19.148  0.00  0.00    +0.000 C 
ATOM     25  C   UNL     1       0.984   3.308  19.595  0.00  0.00    +0.000 C 
ATOM     26  C   UNL     1       1.384   2.750  20.957  0.00  0.00    +0.000 C 
ATOM     27  C   UNL     1       2.526   3.633  21.469  0.00  0.00    +0.000 C 
ATOM     28  C   UNL     1       2.641   4.800  20.476  0.00  0.00    +0.000 C 
BRANCH  24  29
ATOM     29  O   UNL     1       3.260   3.299  18.661  0.00  0.00    +0.000 OA
BRANCH  29  30
ATOM     30  C   UNL     1       3.776   3.727  17.407  0.00  0.00    +0.000 C 
BRANCH  30  37
ATOM     31  C   UNL     1       5.463   4.661  15.049  0.00  0.00    +0.000 C 
ATOM     32  C   UNL     1       5.866   4.900  16.480  0.00  0.00    +0.000 A 
ATOM     33  C   UNL     1       7.046   5.624  16.727  0.00  0.00    +0.000 A 
ATOM     34  C   UNL     1       7.454   5.906  18.038  0.00  0.00    +0.000 A 
ATOM     35  C   UNL     1       6.688   5.455  19.109  0.00  0.00    +0.000 A 
ATOM     36  C   UNL     1       5.523   4.735  18.883  0.00  0.00    +0.000 A 
ATOM     37  C   UNL     1       5.099   4.438  17.572  0.00  0.00    +0.000 A 
ENDBRANCH  30  37
ENDBRANCH  29  30
ENDBRANCH  24  29
ENDBRANCH  22  28
ENDBRANCH   1  22
TORSDOF 10
ENDMDL
MODEL 4
REMARK VINA RESULT:      -8.4      1.172      1.837
REMARK  Name = 
REMARK  11 active torsions:
REMARK  status: ('A' for Active; 'I' for Inactive)
REMARK    1  A    between atoms: C_1  and  C_2
REMARK    2  A    between atoms: C_7  and  C_8
REMARK    3  A    between atoms: C_8  and  O_9
REMARK    4  A    between atoms: O_9  and  C_10
REMARK    5  A    between atoms: C_14  and  N_15
REMARK    6  A    between atoms: N_15  and  C_16
REMARK    7  A    between atoms: N_24  and  C1*_25
REMARK    8  A    between atoms: C4*_27  and  C5*_28
REMARK    9  A    between atoms: C5*_28  and  O5*_29
REMARK   10  A    between atoms: C3*_30  and  O3*_31
REMARK   11  A    between atoms: C2*_32  and  O2*_33
REMARK                            x       y       z     vdW  Elec       q    Type
REMARK                         _______ _______ _______ _____ _____    ______ ____
ROOT
ATOM      1  C   UNL     1       1.860   7.353  19.907  0.00  0.00    +0.000 A 
ATOM      2  N   UNL     1       2.582   7.288  18.758  0.00  0.00    +0.000 NA
ATOM      3  C   UNL     1       2.629   8.364  17.954  0.00  0.00    +0.000 A 
ATOM      4  N   UNL     1       2.028   9.551  18.130  0.00  0.00    +0.000 NA
ATOM      5  C   UNL     1       1.325   9.579  19.271  0.00  0.00    +0.000 A 
ATOM      6  C   UNL     1       1.202   8.563  20.206  0.00  0.00    +0.000 A 
ATOM      7  N   UNL     1       0.410   8.976  21.261  0.00  0.00    +0.000 NA
ATOM      8  C   UNL     1       0.067  10.213  20.968  0.00  0.00    +0.000 A 
ATOM      9  N   UNL     1       0.594  10.620  19.773  0.00  0.00    +0.000 N 
ENDROOT
BRANCH   9  10
ATOM     10  C1* UNL     1       0.456  11.939  19.193  0.00  0.00    +0.000 C 
ATOM     11  O4* UNL     1       1.671  12.689  19.413  0.00  0.00    +0.000 OA
ATOM     12  C4* UNL     1       1.319  14.030  19.838  0.00  0.00    +0.000 C 
ATOM     13  C3* UNL     1      -0.189  14.173  19.641  0.00  0.00    +0.000 C 
ATOM     14  C2* UNL     1      -0.708  12.750  19.758  0.00  0.00    +0.000 C 
BRANCH  13  15
ATOM     15  O3* UNL     1      -0.510  14.645  18.317  0.00  0.00    +0.000 OA
ATOM     16  H3* UNL     1      -1.434  14.413  18.112  0.00  0.00    +0.000 HD
ENDBRANCH  13  15
BRANCH  14  17
ATOM     17  O2* UNL     1      -1.908  12.561  19.006  0.00  0.00    +0.000 OA
ATOM     18  H2* UNL     1      -2.510  13.291  19.265  0.00  0.00    +0.000 HD
ENDBRANCH  14  17
BRANCH  12  19
ATOM     19  C5* UNL     1       1.763  14.246  21.288  0.00  0.00    +0.000 C 
BRANCH  19  20
ATOM     20  O5* UNL     1       3.009  13.593  21.524  0.00  0.00    +0.000 OA
ATOM     21  H5* UNL     1       3.177  13.035  20.740  0.00  0.00    +0.000 HD
ENDBRANCH  19  20
ENDBRANCH  12  19
ENDBRANCH   9  10
BRANCH   1  22
ATOM     22  N   UNL     1       1.788   6.238  20.756  0.00  0.00    +0.000 N 
ATOM     23  H   UNL     1       1.964   6.582  21.696  0.00  0.00    +0.000 HD
BRANCH  22  28
ATOM     24  C   UNL     1       2.366   4.506  19.029  0.00  0.00    +0.000 C 
ATOM     25  C   UNL     1       1.098   3.712  19.356  0.00  0.00    +0.000 C 
ATOM     26  C   UNL     1       1.357   3.131  20.742  0.00  0.00    +0.000 C 
ATOM     27  C   UNL     1       2.472   3.976  21.365  0.00  0.00    +0.000 C 
ATOM     28  C   UNL     1       2.710   5.147  20.400  0.00  0.00    +0.000 C 
BRANCH  24  29
ATOM     29  O   UNL     1       3.448   3.644  18.632  0.00  0.00    +0.000 OA
BRANCH  29  30
ATOM     30  C   UNL     1       4.064   4.046  17.416  0.00  0.00    +0.000 C 
BRANCH  30  37
ATOM     31  C   UNL     1       5.298   5.915  15.351  0.00  0.00    +0.000 C 
ATOM     32  C   UNL     1       5.874   5.739  16.731  0.00  0.00    +0.000 A 
ATOM     33  C   UNL     1       6.997   6.506  17.087  0.00  0.00    +0.000 A 
ATOM     34  C   UNL     1       7.556   6.409  18.368  0.00  0.00    +0.000 A 
ATOM     35  C   UNL     1       6.998   5.535  19.297  0.00  0.00    +0.000 A 
ATOM     36  C   UNL     1       5.892   4.767  18.961  0.00  0.00    +0.000 A 
ATOM     37  C   UNL     1       5.319   4.848  17.675  0.00  0.00    +0.000 A 
ENDBRANCH  30  37
ENDBRANCH  29  30
ENDBRANCH  24  29
ENDBRANCH  22  28
ENDBRANCH   1  22
TORSDOF 10
ENDMDL
MODEL 5
REMARK VINA RESULT:      -8.2      1.345      3.984
REMARK  Name = 
REMARK  11 active torsions:
REMARK  status: ('A' for Active; 'I' for Inactive)
REMARK    1  A    between atoms: C_1  and  C_2
REMARK    2  A    between atoms: C_7  and  C_8
REMARK    3  A    between atoms: C_8  and  O_9
REMARK    4  A    between atoms: O_9  and  C_10
REMARK    5  A    between atoms: C_14  and  N_15
REMARK    6  A    between atoms: N_15  and  C_16
REMARK    7  A    between atoms: N_24  and  C1*_25
REMARK    8  A    between atoms: C4*_27  and  C5*_28
REMARK    9  A    between atoms: C5*_28  and  O5*_29
REMARK   10  A    between atoms: C3*_30  and  O3*_31
REMARK   11  A    between atoms: C2*_32  and  O2*_33
REMARK                            x       y       z     vdW  Elec       q    Type
REMARK                         _______ _______ _______ _____ _____    ______ ____
ROOT
ATOM      1  C   UNL     1       3.001   7.089  18.606  0.00  0.00    +0.000 A 
ATOM      2  N   UNL     1       2.825   6.255  19.664  0.00  0.00    +0.000 NA
ATOM      3  C   UNL     1       1.942   6.590  20.620  0.00  0.00    +0.000 A 
ATOM      4  N   UNL     1       1.175   7.689  20.686  0.00  0.00    +0.000 NA
ATOM      5  C   UNL     1       1.376   8.488  19.628  0.00  0.00    +0.000 A 
ATOM      6  C   UNL     1       2.229   8.267  18.558  0.00  0.00    +0.000 A 
ATOM      7  N   UNL     1       2.144   9.309  17.654  0.00  0.00    +0.000 NA
ATOM      8  C   UNL     1       1.257  10.135  18.166  0.00  0.00    +0.000 A 
ATOM      9  N   UNL     1       0.767   9.683  19.360  0.00  0.00    +0.000 N 
ENDROOT
BRANCH   9  10
ATOM     10  C1* UNL     1      -0.262  10.326  20.150  0.00  0.00    +0.000 C 
ATOM     11  O4* UNL     1      -1.176  11.021  19.273  0.00  0.00    +0.000 OA
ATOM     12  C4* UNL     1      -1.455  12.328  19.834  0.00  0.00    +0.000 C 
ATOM     13  C3* UNL     1      -0.865  12.337  21.244  0.00  0.00    +0.000 C 
ATOM     14  C2* UNL     1       0.270  11.330  21.170  0.00  0.00    +0.000 C 
BRANCH  13  15
ATOM     15  O3* UNL     1      -1.811  11.856  22.220  0.00  0.00    +0.000 OA
ATOM     16  H3* UNL     1      -2.491  11.323  21.768  0.00  0.00    +0.000 HD
ENDBRANCH  13  15
BRANCH  14  17
ATOM     17  O2* UNL     1       0.522  10.723  22.439  0.00  0.00    +0.000 OA
ATOM     18  H2* UNL     1       1.468  10.892  22.638  0.00  0.00    +0.000 HD
ENDBRANCH  14  17
BRANCH  12  19
ATOM     19  C5* UNL     1      -0.872  13.416  18.927  0.00  0.00    +0.000 C 
BRANCH  19  20
ATOM     20  O5* UNL     1      -0.939  13.007  17.563  0.00  0.00    +0.000 OA
ATOM     21  H5* UNL     1      -0.282  12.290  17.460  0.00  0.00    +0.000 HD
ENDBRANCH  19  20
ENDBRANCH  12  19
ENDBRANCH   9  10
BRANCH   1  22
ATOM     22  N   UNL     1       3.925   6.764  17.602  0.00  0.00    +0.000 N 
ATOM     23  H   UNL     1       3.486   7.006  16.718  0.00  0.00    +0.000 HD
BRANCH  22  28
ATOM     24  C   UNL     1       5.325   5.055  18.799  0.00  0.00    +0.000 C 
ATOM     25  C   UNL     1       6.614   5.753  18.355  0.00  0.00    +0.000 C 
ATOM     26  C   UNL     1       6.694   5.492  16.855  0.00  0.00    +0.000 C 
ATOM     27  C   UNL     1       5.278   5.124  16.403  0.00  0.00    +0.000 C 
ATOM     28  C   UNL     1       4.367   5.360  17.617  0.00  0.00    +0.000 C 
BRANCH  24  29
ATOM     29  O   UNL     1       5.499   3.630  18.903  0.00  0.00    +0.000 OA
BRANCH  29  30
ATOM     30  C   UNL     1       4.767   3.055  19.978  0.00  0.00    +0.000 C 
BRANCH  30  37
ATOM     31  C   UNL     1       2.388   3.316  21.862  0.00  0.00    +0.000 C 
ATOM     32  C   UNL     1       2.242   2.883  20.427  0.00  0.00    +0.000 A 
ATOM     33  C   UNL     1       0.949   2.636  19.934  0.00  0.00    +0.000 A 
ATOM     34  C   UNL     1       0.748   2.263  18.598  0.00  0.00    +0.000 A 
ATOM     35  C   UNL     1       1.844   2.124  17.751  0.00  0.00    +0.000 A 
ATOM     36  C   UNL     1       3.129   2.359  18.223  0.00  0.00    +0.000 A 
ATOM     37  C   UNL     1       3.349   2.731  19.565  0.00  0.00    +0.000 A 
ENDBRANCH  30  37
ENDBRANCH  29  30
ENDBRANCH  24  29
ENDBRANCH  22  28
ENDBRANCH   1  22
TORSDOF 10
ENDMDL
MODEL 6
REMARK VINA RESULT:      -8.2      1.365      2.439
REMARK  Name = 
REMARK  11 active torsions:
REMARK  status: ('A' for Active; 'I' for Inactive)
REMARK    1  A    between atoms: C_1  and  C_2
REMARK    2  A    between atoms: C_7  and  C_8
REMARK    3  A    between atoms: C_8  and  O_9
REMARK    4  A    between atoms: O_9  and  C_10
REMARK    5  A    between atoms: C_14  and  N_15
REMARK    6  A    between atoms: N_15  and  C_16
REMARK    7  A    between atoms: N_24  and  C1*_25
REMARK    8  A    between atoms: C4*_27  and  C5*_28
REMARK    9  A    between atoms: C5*_28  and  O5*_29
REMARK   10  A    between atoms: C3*_30  and  O3*_31
REMARK   11  A    between atoms: C2*_32  and  O2*_33
REMARK                            x       y       z     vdW  Elec       q    Type
REMARK                         _______ _______ _______ _____ _____    ______ ____
ROOT
ATOM      1  C   UNL     1       1.637   7.276  20.338  0.00  0.00    +0.000 A 
ATOM      2  N   UNL     1       2.274   7.337  19.140  0.00  0.00    +0.000 NA
ATOM      3  C   UNL     1       2.236   8.482  18.436  0.00  0.00    +0.000 A 
ATOM      4  N   UNL     1       1.621   9.630  18.763  0.00  0.00    +0.000 NA
ATOM      5  C   UNL     1       1.003   9.533  19.948  0.00  0.00    +0.000 A 
ATOM      6  C   UNL     1       0.974   8.434  20.793  0.00  0.00    +0.000 A 
ATOM      7  N   UNL     1       0.252   8.726  21.934  0.00  0.00    +0.000 NA
ATOM      8  C   UNL     1      -0.142   9.973  21.781  0.00  0.00    +0.000 A 
ATOM      9  N   UNL     1       0.286  10.501  20.594  0.00  0.00    +0.000 N 
ENDROOT
BRANCH   9  10
ATOM     10  C1* UNL     1       0.074  11.862  20.149  0.00  0.00    +0.000 C 
ATOM     11  O4* UNL     1       0.419  11.970  18.751  0.00  0.00    +0.000 OA
ATOM     12  C4* UNL     1       1.192  13.180  18.554  0.00  0.00    +0.000 C 
ATOM     13  C3* UNL     1       1.113  13.970  19.859  0.00  0.00    +0.000 C 
ATOM     14  C2* UNL     1       0.885  12.904  20.917  0.00  0.00    +0.000 C 
BRANCH  13  15
ATOM     15  O3* UNL     1      -0.027  14.853  19.879  0.00  0.00    +0.000 OA
ATOM     16  H3* UNL     1      -0.602  14.613  20.628  0.00  0.00    +0.000 HD
ENDBRANCH  13  15
BRANCH  14  17
ATOM     17  O2* UNL     1       0.170  13.419  22.042  0.00  0.00    +0.000 OA
ATOM     18  H2* UNL     1      -0.455  12.712  22.313  0.00  0.00    +0.000 HD
ENDBRANCH  14  17
BRANCH  12  19
ATOM     19  C5* UNL     1       2.625  12.819  18.151  0.00  0.00    +0.000 C 
BRANCH  19  20
ATOM     20  O5* UNL     1       2.615  11.775  17.180  0.00  0.00    +0.000 OA
ATOM     21  H5* UNL     1       2.001  11.094  17.518  0.00  0.00    +0.000 HD
ENDBRANCH  19  20
ENDBRANCH  12  19
ENDBRANCH   9  10
BRANCH   1  22
ATOM     22  N   UNL     1       1.655   6.088  21.083  0.00  0.00    +0.000 N 
ATOM     23  H   UNL     1       1.942   6.345  22.024  0.00  0.00    +0.000 HD
BRANCH  22  28
ATOM     24  C   UNL     1       1.942   4.431  19.217  0.00  0.00    +0.000 C 
ATOM     25  C   UNL     1       0.774   3.590  19.741  0.00  0.00    +0.000 C 
ATOM     26  C   UNL     1       1.297   2.972  21.033  0.00  0.00    +0.000 C 
ATOM     27  C   UNL     1       2.489   3.828  21.472  0.00  0.00    +0.000 C 
ATOM     28  C   UNL     1       2.518   5.036  20.524  0.00  0.00    +0.000 C 
BRANCH  24  29
ATOM     29  O   UNL     1       2.951   3.613  18.596  0.00  0.00    +0.000 OA
BRANCH  29  30
ATOM     30  C   UNL     1       3.520   4.212  17.438  0.00  0.00    +0.000 C 
BRANCH  30  37
ATOM     31  C   UNL     1       5.565   4.044  15.188  0.00  0.00    +0.000 C 
ATOM     32  C   UNL     1       5.933   4.458  16.588  0.00  0.00    +0.000 A 
ATOM     33  C   UNL     1       7.265   4.824  16.846  0.00  0.00    +0.000 A 
ATOM     34  C   UNL     1       7.659   5.250  18.122  0.00  0.00    +0.000 A 
ATOM     35  C   UNL     1       6.721   5.302  19.149  0.00  0.00    +0.000 A 
ATOM     36  C   UNL     1       5.402   4.939  18.913  0.00  0.00    +0.000 A 
ATOM     37  C   UNL     1       4.990   4.504  17.637  0.00  0.00    +0.000 A 
ENDBRANCH  30  37
ENDBRANCH  29  30
ENDBRANCH  24  29
ENDBRANCH  22  28
ENDBRANCH   1  22
TORSDOF 10
ENDMDL
MODEL 7
REMARK VINA RESULT:      -8.1      1.338      4.106
REMARK  Name = 
REMARK  11 active torsions:
REMARK  status: ('A' for Active; 'I' for Inactive)
REMARK    1  A    between atoms: C_1  and  C_2
REMARK    2  A    between atoms: C_7  and  C_8
REMARK    3  A    between atoms: C_8  and  O_9
REMARK    4  A    between atoms: O_9  and  C_10
REMARK    5  A    between atoms: C_14  and  N_15
REMARK    6  A    between atoms: N_15  and  C_16
REMARK    7  A    between atoms: N_24  and  C1*_25
REMARK    8  A    between atoms: C4*_27  and  C5*_28
REMARK    9  A    between atoms: C5*_28  and  O5*_29
REMARK   10  A    between atoms: C3*_30  and  O3*_31
REMARK   11  A    between atoms: C2*_32  and  O2*_33
REMARK                            x       y       z     vdW  Elec       q    Type
REMARK                         _______ _______ _______ _____ _____    ______ ____
ROOT
ATOM      1  C   UNL     1       3.266   6.976  18.713  0.00  0.00    +0.000 A 
ATOM      2  N   UNL     1       2.970   6.181  19.774  0.00  0.00    +0.000 NA
ATOM      3  C   UNL     1       1.980   6.545  20.608  0.00  0.00    +0.000 A 
ATOM      4  N   UNL     1       1.207   7.640  20.541  0.00  0.00    +0.000 NA
ATOM      5  C   UNL     1       1.528   8.401  19.485  0.00  0.00    +0.000 A 
ATOM      6  C   UNL     1       2.501   8.147  18.531  0.00  0.00    +0.000 A 
ATOM      7  N   UNL     1       2.519   9.153  17.584  0.00  0.00    +0.000 NA
ATOM      8  C   UNL     1       1.576   9.991  17.958  0.00  0.00    +0.000 A 
ATOM      9  N   UNL     1       0.950   9.580  19.103  0.00  0.00    +0.000 N 
ENDROOT
BRANCH   9  10
ATOM     10  C1* UNL     1      -0.166  10.244  19.742  0.00  0.00    +0.000 C 
ATOM     11  O4* UNL     1      -1.374   9.978  18.996  0.00  0.00    +0.000 OA
ATOM     12  C4* UNL     1      -2.121  11.213  18.865  0.00  0.00    +0.000 C 
ATOM     13  C3* UNL     1      -1.448  12.234  19.780  0.00  0.00    +0.000 C 
ATOM     14  C2* UNL     1      -0.007  11.759  19.859  0.00  0.00    +0.000 C 
BRANCH  13  15
ATOM     15  O3* UNL     1      -1.993  12.194  21.114  0.00  0.00    +0.000 OA
ATOM     16  H3* UNL     1      -2.747  12.810  21.168  0.00  0.00    +0.000 HD
ENDBRANCH  13  15
BRANCH  14  17
ATOM     17  O2* UNL     1       0.609  12.139  21.091  0.00  0.00    +0.000 OA
ATOM     18  H2* UNL     1       1.242  11.422  21.311  0.00  0.00    +0.000 HD
ENDBRANCH  14  17
BRANCH  12  19
ATOM     19  C5* UNL     1      -2.152  11.646  17.396  0.00  0.00    +0.000 C 
BRANCH  19  20
ATOM     20  O5* UNL     1      -1.790  10.554  16.553  0.00  0.00    +0.000 OA
ATOM     21  H5* UNL     1      -1.579   9.808  17.148  0.00  0.00    +0.000 HD
ENDBRANCH  19  20
ENDBRANCH  12  19
ENDBRANCH   9  10
BRANCH   1  22
ATOM     22  N   UNL     1       4.302   6.622  17.837  0.00  0.00    +0.000 N 
ATOM     23  H   UNL     1       4.468   7.432  17.246  0.00  0.00    +0.000 HD
BRANCH  22  28
ATOM     24  C   UNL     1       4.422   4.113  17.780  0.00  0.00    +0.000 C 
ATOM     25  C   UNL     1       5.953   4.156  17.721  0.00  0.00    +0.000 C 
ATOM     26  C   UNL     1       6.266   4.695  16.329  0.00  0.00    +0.000 C 
ATOM     27  C   UNL     1       4.997   5.400  15.841  0.00  0.00    +0.000 C 
ATOM     28  C   UNL     1       4.032   5.417  17.036  0.00  0.00    +0.000 C 
BRANCH  24  29
ATOM     29  O   UNL     1       3.892   2.986  17.058  0.00  0.00    +0.000 OA
BRANCH  29  30
ATOM     30  C   UNL     1       3.638   1.860  17.889  0.00  0.00    +0.000 C 
BRANCH  30  37
ATOM     31  C   UNL     1       4.757   1.918  20.722  0.00  0.00    +0.000 C 
ATOM     32  C   UNL     1       3.337   2.302  20.403  0.00  0.00    +0.000 A 
ATOM     33  C   UNL     1       2.515   2.747  21.454  0.00  0.00    +0.000 A 
ATOM     34  C   UNL     1       1.195   3.149  21.213  0.00  0.00    +0.000 A 
ATOM     35  C   UNL     1       0.686   3.097  19.918  0.00  0.00    +0.000 A 
ATOM     36  C   UNL     1       1.481   2.656  18.869  0.00  0.00    +0.000 A 
ATOM     37  C   UNL     1       2.810   2.243  19.094  0.00  0.00    +0.000 A 
ENDBRANCH  30  37
ENDBRANCH  29  30
ENDBRANCH  24  29
ENDBRANCH  22  28
ENDBRANCH   1  22
TORSDOF 10
ENDMDL
MODEL 8
REMARK VINA RESULT:      -8.0      1.270      2.259
REMARK  Name = 
REMARK  11 active torsions:
REMARK  status: ('A' for Active; 'I' for Inactive)
REMARK    1  A    between atoms: C_1  and  C_2
REMARK    2  A    between atoms: C_7  and  C_8
REMARK    3  A    between atoms: C_8  and  O_9
REMARK    4  A    between atoms: O_9  and  C_10
REMARK    5  A    between atoms: C_14  and  N_15
REMARK    6  A    between atoms: N_15  and  C_16
REMARK    7  A    between atoms: N_24  and  C1*_25
REMARK    8  A    between atoms: C4*_27  and  C5*_28
REMARK    9  A    between atoms: C5*_28  and  O5*_29
REMARK   10  A    between atoms: C3*_30  and  O3*_31
REMARK   11  A    between atoms: C2*_32  and  O2*_33
REMARK                            x       y       z     vdW  Elec       q    Type
REMARK                         _______ _______ _______ _____ _____    ______ ____
ROOT
ATOM      1  C   UNL     1       1.737   7.139  20.382  0.00  0.00    +0.000 A 
ATOM      2  N   UNL     1       2.359   7.238  19.179  0.00  0.00    +0.000 NA
ATOM      3  C   UNL     1       2.231   8.371  18.467  0.00  0.00    +0.000 A 
ATOM      4  N   UNL     1       1.534   9.472  18.789  0.00  0.00    +0.000 NA
ATOM      5  C   UNL     1       0.933   9.339  19.979  0.00  0.00    +0.000 A 
ATOM      6  C   UNL     1       0.992   8.248  20.833  0.00  0.00    +0.000 A 
ATOM      7  N   UNL     1       0.257   8.494  21.977  0.00  0.00    +0.000 NA
ATOM      8  C   UNL     1      -0.230   9.706  21.817  0.00  0.00    +0.000 A 
ATOM      9  N   UNL     1       0.150  10.256  20.623  0.00  0.00    +0.000 N 
ENDROOT
BRANCH   9  10
ATOM     10  C1* UNL     1      -0.167  11.594  20.170  0.00  0.00    +0.000 C 
ATOM     11  O4* UNL     1      -1.583  11.687  19.902  0.00  0.00    +0.000 OA
ATOM     12  C4* UNL     1      -1.775  12.391  18.650  0.00  0.00    +0.000 C 
ATOM     13  C3* UNL     1      -0.415  12.961  18.253  0.00  0.00    +0.000 C 
ATOM     14  C2* UNL     1       0.580  12.019  18.907  0.00  0.00    +0.000 C 
BRANCH  13  15
ATOM     15  O3* UNL     1      -0.204  14.274  18.811  0.00  0.00    +0.000 OA
ATOM     16  H3* UNL     1      -0.576  14.299  19.711  0.00  0.00    +0.000 HD
ENDBRANCH  13  15
BRANCH  14  17
ATOM     17  O2* UNL     1       1.813  12.676  19.209  0.00  0.00    +0.000 OA
ATOM     18  H2* UNL     1       2.122  12.297  20.060  0.00  0.00    +0.000 HD
ENDBRANCH  14  17
BRANCH  12  19
ATOM     19  C5* UNL     1      -2.361  11.437  17.605  0.00  0.00    +0.000 C 
BRANCH  19  20
ATOM     20  O5* UNL     1      -3.587  11.957  17.096  0.00  0.00    +0.000 OA
ATOM     21  H5* UNL     1      -3.698  11.572  16.205  0.00  0.00    +0.000 HD
ENDBRANCH  19  20
ENDBRANCH  12  19
ENDBRANCH   9  10
BRANCH   1  22
ATOM     22  N   UNL     1       1.849   5.962  21.136  0.00  0.00    +0.000 N 
ATOM     23  H   UNL     1       2.241   6.233  22.034  0.00  0.00    +0.000 HD
BRANCH  22  28
ATOM     24  C   UNL     1       1.991   4.374  19.194  0.00  0.00    +0.000 C 
ATOM     25  C   UNL     1       0.821   3.551  19.740  0.00  0.00    +0.000 C 
ATOM     26  C   UNL     1       1.382   2.864  20.981  0.00  0.00    +0.000 C 
ATOM     27  C   UNL     1       2.622   3.662  21.395  0.00  0.00    +0.000 C 
ATOM     28  C   UNL     1       2.649   4.906  20.495  0.00  0.00    +0.000 C 
BRANCH  24  29
ATOM     29  O   UNL     1       2.941   3.550  18.493  0.00  0.00    +0.000 OA
BRANCH  29  30
ATOM     30  C   UNL     1       3.558   4.217  17.399  0.00  0.00    +0.000 C 
BRANCH  30  37
ATOM     31  C   UNL     1       5.745   3.826  15.315  0.00  0.00    +0.000 C 
ATOM     32  C   UNL     1       6.028   4.343  16.701  0.00  0.00    +0.000 A 
ATOM     33  C   UNL     1       7.350   4.700  17.021  0.00  0.00    +0.000 A 
ATOM     34  C   UNL     1       7.668   5.217  18.284  0.00  0.00    +0.000 A 
ATOM     35  C   UNL     1       6.665   5.371  19.237  0.00  0.00    +0.000 A 
ATOM     36  C   UNL     1       5.355   5.019  18.939  0.00  0.00    +0.000 A 
ATOM     37  C   UNL     1       5.018   4.493  17.676  0.00  0.00    +0.000 A 
ENDBRANCH  30  37
ENDBRANCH  29  30
ENDBRANCH  24  29
ENDBRANCH  22  28
ENDBRANCH   1  22
TORSDOF 10
ENDMDL
MODEL 9
REMARK VINA RESULT:      -8.0      0.971      1.027
REMARK  Name = 
REMARK  11 active torsions:
REMARK  status: ('A' for Active; 'I' for Inactive)
REMARK    1  A    between atoms: C_1  and  C_2
REMARK    2  A    between atoms: C_7  and  C_8
REMARK    3  A    between atoms: C_8  and  O_9
REMARK    4  A    between atoms: O_9  and  C_10
REMARK    5  A    between atoms: C_14  and  N_15
REMARK    6  A    between atoms: N_15  and  C_16
REMARK    7  A    between atoms: N_24  and  C1*_25
REMARK    8  A    between atoms: C4*_27  and  C5*_28
REMARK    9  A    between atoms: C5*_28  and  O5*_29
REMARK   10  A    between atoms: C3*_30  and  O3*_31
REMARK   11  A    between atoms: C2*_32  and  O2*_33
REMARK                            x       y       z     vdW  Elec       q    Type
REMARK                         _______ _______ _______ _____ _____    ______ ____
ROOT
ATOM      1  C   UNL     1       2.081   7.030  19.981  0.00  0.00    +0.000 A 
ATOM      2  N   UNL     1       2.577   7.098  18.718  0.00  0.00    +0.000 NA
ATOM      3  C   UNL     1       2.425   8.235  18.017  0.00  0.00    +0.000 A 
ATOM      4  N   UNL     1       1.817   9.367  18.403  0.00  0.00    +0.000 NA
ATOM      5  C   UNL     1       1.340   9.264  19.652  0.00  0.00    +0.000 A 
ATOM      6  C   UNL     1       1.439   8.173  20.501  0.00  0.00    +0.000 A 
ATOM      7  N   UNL     1       0.842   8.454  21.715  0.00  0.00    +0.000 NA
ATOM      8  C   UNL     1       0.396   9.687  21.599  0.00  0.00    +0.000 A 
ATOM      9  N   UNL     1       0.672  10.217  20.369  0.00  0.00    +0.000 N 
ENDROOT
BRANCH   9  10
ATOM     10  C1* UNL     1       0.370  11.567  19.942  0.00  0.00    +0.000 C 
ATOM     11  O4* UNL     1       0.206  12.411  21.103  0.00  0.00    +0.000 OA
ATOM     12  C4* UNL     1      -0.958  13.253  20.906  0.00  0.00    +0.000 C 
ATOM     13  C3* UNL     1      -1.387  13.076  19.451  0.00  0.00    +0.000 C 
ATOM     14  C2* UNL     1      -0.893  11.686  19.091  0.00  0.00    +0.000 C 
BRANCH  13  15
ATOM     15  O3* UNL     1      -0.721  14.014  18.581  0.00  0.00    +0.000 OA
ATOM     16  H3* UNL     1      -1.380  14.631  18.215  0.00  0.00    +0.000 HD
ENDBRANCH  13  15
BRANCH  14  17
ATOM     17  O2* UNL     1      -0.611  11.568  17.695  0.00  0.00    +0.000 OA
ATOM     18  H2* UNL     1      -1.472  11.660  17.235  0.00  0.00    +0.000 HD
ENDBRANCH  14  17
BRANCH  12  19
ATOM     19  C5* UNL     1      -2.049  12.869  21.910  0.00  0.00    +0.000 C 
BRANCH  19  20
ATOM     20  O5* UNL     1      -2.228  13.912  22.866  0.00  0.00    +0.000 OA
ATOM     21  H5* UNL     1      -2.209  14.749  22.363  0.00  0.00    +0.000 HD
ENDBRANCH  19  20
ENDBRANCH  12  19
ENDBRANCH   9  10
BRANCH   1  22
ATOM     22  N   UNL     1       2.218   5.850  20.727  0.00  0.00    +0.000 N 
ATOM     23  H   UNL     1       2.627   6.120  21.618  0.00  0.00    +0.000 HD
BRANCH  22  28
ATOM     24  C   UNL     1       2.419   4.388  18.694  0.00  0.00    +0.000 C 
ATOM     25  C   UNL     1       1.185   3.582  19.113  0.00  0.00    +0.000 C 
ATOM     26  C   UNL     1       1.641   2.792  20.335  0.00  0.00    +0.000 C 
ATOM     27  C   UNL     1       2.884   3.507  20.875  0.00  0.00    +0.000 C 
ATOM     28  C   UNL     1       3.015   4.805  20.064  0.00  0.00    +0.000 C 
BRANCH  24  29
ATOM     29  O   UNL     1       3.378   3.571  17.997  0.00  0.00    +0.000 OA
BRANCH  29  30
ATOM     30  C   UNL     1       4.724   3.945  18.258  0.00  0.00    +0.000 C 
BRANCH  30  37
ATOM     31  C   UNL     1       7.612   4.915  18.213  0.00  0.00    +0.000 C 
ATOM     32  C   UNL     1       6.794   4.745  16.960  0.00  0.00    +0.000 A 
ATOM     33  C   UNL     1       7.409   5.002  15.723  0.00  0.00    +0.000 A 
ATOM     34  C   UNL     1       6.708   4.829  14.522  0.00  0.00    +0.000 A 
ATOM     35  C   UNL     1       5.382   4.407  14.555  0.00  0.00    +0.000 A 
ATOM     36  C   UNL     1       4.757   4.153  15.768  0.00  0.00    +0.000 A 
ATOM     37  C   UNL     1       5.445   4.326  16.986  0.00  0.00    +0.000 A 
ENDBRANCH  30  37
ENDBRANCH  29  30
ENDBRANCH  24  29
ENDBRANCH  22  28
ENDBRANCH   1  22
TORSDOF 10
ENDMDL
