MODEL 1
REMARK VINA RESULT:      -8.4      0.000      0.000
REMARK  Name = 
REMARK  9 active torsions:
REMARK  status: ('A' for Active; 'I' for Inactive)
REMARK    1  A    between atoms: C_1  and  O_2
REMARK    2  A    between atoms: O_2  and  C_3
REMARK    3  A    between atoms: C_8  and  C_9
REMARK    4  A    between atoms: C_9  and  C_10
REMARK    5  A    between atoms: C_9  and  C_11
REMARK    6  A    between atoms: N_13  and  N_14
REMARK    7  A    between atoms: C_15  and  C_16
REMARK    8  A    between atoms: C_20  and  O_21
REMARK    9  A    between atoms: O_21  and  C_22
REMARK                            x       y       z     vdW  Elec       q    Type
REMARK                         _______ _______ _______ _____ _____    ______ ____
ROOT
ATOM      1  C   UNL     1       1.545   5.602  20.683  0.00  0.00    +0.000 C 
ATOM      2  O   UNL     1       0.369   5.338  20.438  0.00  0.00    +0.000 OA
ATOM      3  N   UNL     1       2.027   6.890  20.910  0.00  0.00    +0.000 N 
ATOM      4  H   UNL     1       3.015   7.067  21.047  0.00  0.00    +0.000 HD
ENDROOT
BRANCH   1   5
ATOM      5  C   UNL     1       2.623   4.520  20.780  0.00  0.00    +0.000 C 
ATOM      6  C   UNL     1       1.960   3.170  21.079  0.00  0.00    +0.000 C 
BRANCH   5  12
ATOM      7  C   UNL     1       6.934   5.175  15.840  0.00  0.00    +0.000 A 
ATOM      8  C   UNL     1       7.272   6.036  16.880  0.00  0.00    +0.000 A 
ATOM      9  C   UNL     1       6.513   6.057  18.053  0.00  0.00    +0.000 A 
ATOM     10  C   UNL     1       5.397   5.223  18.207  0.00  0.00    +0.000 A 
ATOM     11  C   UNL     1       4.624   5.249  19.380  0.00  0.00    +0.000 A 
ATOM     12  C   UNL     1       3.485   4.441  19.529  0.00  0.00    +0.000 A 
ATOM     13  C   UNL     1       3.135   3.587  18.476  0.00  0.00    +0.000 A 
ATOM     14  C   UNL     1       3.907   3.538  17.308  0.00  0.00    +0.000 A 
ATOM     15  C   UNL     1       5.040   4.353  17.156  0.00  0.00    +0.000 A 
ATOM     16  C   UNL     1       5.824   4.333  15.986  0.00  0.00    +0.000 A 
BRANCH   7  18
ATOM     17  C   UNL     1       6.813   4.693  13.518  0.00  0.00    +0.000 C 
ATOM     18  O   UNL     1       7.597   5.061  14.648  0.00  0.00    +0.000 OA
ENDBRANCH   7  18
ENDBRANCH   5  12
ENDBRANCH   1   5
BRANCH   3  19
ATOM     19  N   UNL     1       1.134   7.917  20.969  0.00  0.00    +0.000 NA
ATOM     20  C   UNL     1       1.090   8.719  19.956  0.00  0.00    +0.000 C 
BRANCH  20  21
ATOM     21  C   UNL     1       0.145   9.857  19.939  0.00  0.00    +0.000 A 
ATOM     22  C   UNL     1      -0.226  10.484  21.134  0.00  0.00    +0.000 A 
ATOM     23  C   UNL     1      -1.129  11.543  21.108  0.00  0.00    +0.000 A 
ATOM     24  C   UNL     1      -1.680  11.951  19.892  0.00  0.00    +0.000 A 
ATOM     25  C   UNL     1      -1.335  11.308  18.697  0.00  0.00    +0.000 A 
ATOM     26  C   UNL     1      -0.385  10.287  18.716  0.00  0.00    +0.000 A 
BRANCH  25  27
ATOM     27  O   UNL     1      -1.961  11.803  17.593  0.00  0.00    +0.000 OA
BRANCH  27  28
ATOM     28  C   UNL     1      -2.881  10.990  16.878  0.00  0.00    +0.000 C 
ATOM     29  F   UNL     1      -3.351   9.936  17.577  0.00  0.00    +0.000 F 
ATOM     30  F   UNL     1      -3.940  11.750  16.519  0.00  0.00    +0.000 F 
ATOM     31  F   UNL     1      -2.289  10.534  15.754  0.00  0.00    +0.000 F 
ENDBRANCH  27  28
ENDBRANCH  25  27
ENDBRANCH  20  21
ENDBRANCH   3  19
TORSDOF 7
ENDMDL
MODEL 2
REMARK VINA RESULT:      -8.3      0.934      1.618
REMARK  Name = 
REMARK  9 active torsions:
REMARK  status: ('A' for Active; 'I' for Inactive)
REMARK    1  A    between atoms: C_1  and  O_2
REMARK    2  A    between atoms: O_2  and  C_3
REMARK    3  A    between atoms: C_8  and  C_9
REMARK    4  A    between atoms: C_9  and  C_10
REMARK    5  A    between atoms: C_9  and  C_11
REMARK    6  A    between atoms: N_13  and  N_14
REMARK    7  A    between atoms: C_15  and  C_16
REMARK    8  A    between atoms: C_20  and  O_21
REMARK    9  A    between atoms: O_21  and  C_22
REMARK                            x       y       z     vdW  Elec       q    Type
REMARK                         _______ _______ _______ _____ _____    ______ ____
ROOT
ATOM      1  C   UNL     1       2.167   5.020  20.309  0.00  0.00    +0.000 C 
ATOM      2  O   UNL     1       0.993   4.656  20.334  0.00  0.00    +0.000 OA
ATOM      3  N   UNL     1       2.575   6.352  20.363  0.00  0.00    +0.000 N 
ATOM      4  H   UNL     1       3.551   6.609  20.276  0.00  0.00    +0.000 HD
ENDROOT
BRANCH   1   5
ATOM      5  C   UNL     1       3.330   4.028  20.228  0.00  0.00    +0.000 C 
ATOM      6  C   UNL     1       2.777   2.621  19.973  0.00  0.00    +0.000 C 
BRANCH   5  12
ATOM      7  C   UNL     1       7.027   5.053  14.872  0.00  0.00    +0.000 A 
ATOM      8  C   UNL     1       5.825   4.454  14.508  0.00  0.00    +0.000 A 
ATOM      9  C   UNL     1       4.861   4.162  15.478  0.00  0.00    +0.000 A 
ATOM     10  C   UNL     1       5.084   4.456  16.831  0.00  0.00    +0.000 A 
ATOM     11  C   UNL     1       4.123   4.153  17.809  0.00  0.00    +0.000 A 
ATOM     12  C   UNL     1       4.353   4.413  19.171  0.00  0.00    +0.000 A 
ATOM     13  C   UNL     1       5.570   5.001  19.539  0.00  0.00    +0.000 A 
ATOM     14  C   UNL     1       6.529   5.325  18.570  0.00  0.00    +0.000 A 
ATOM     15  C   UNL     1       6.303   5.055  17.210  0.00  0.00    +0.000 A 
ATOM     16  C   UNL     1       7.258   5.357  16.220  0.00  0.00    +0.000 A 
BRANCH   7  18
ATOM     17  C   UNL     1       7.768   5.274  12.627  0.00  0.00    +0.000 C 
ATOM     18  O   UNL     1       8.043   5.390  14.019  0.00  0.00    +0.000 OA
ENDBRANCH   7  18
ENDBRANCH   5  12
ENDBRANCH   1   5
BRANCH   3  19
ATOM     19  N   UNL     1       1.630   7.313  20.559  0.00  0.00    +0.000 NA
ATOM     20  C   UNL     1       1.690   8.362  19.805  0.00  0.00    +0.000 C 
BRANCH  20  21
ATOM     21  C   UNL     1       0.699   9.451  19.951  0.00  0.00    +0.000 A 
ATOM     22  C   UNL     1       0.309   9.883  21.223  0.00  0.00    +0.000 A 
ATOM     23  C   UNL     1      -0.638  10.896  21.349  0.00  0.00    +0.000 A 
ATOM     24  C   UNL     1      -1.212  11.451  20.204  0.00  0.00    +0.000 A 
ATOM     25  C   UNL     1      -0.847  11.002  18.930  0.00  0.00    +0.000 A 
ATOM     26  C   UNL     1       0.145  10.029  18.802  0.00  0.00    +0.000 A 
BRANCH  25  27
ATOM     27  O   UNL     1      -1.498  11.624  17.908  0.00  0.00    +0.000 OA
BRANCH  27  28
ATOM     28  C   UNL     1      -2.640  11.014  17.322  0.00  0.00    +0.000 C 
ATOM     29  F   UNL     1      -3.806  11.325  17.924  0.00  0.00    +0.000 F 
ATOM     30  F   UNL     1      -2.725  11.408  16.032  0.00  0.00    +0.000 F 
ATOM     31  F   UNL     1      -2.486   9.673  17.344  0.00  0.00    +0.000 F 
ENDBRANCH  27  28
ENDBRANCH  25  27
ENDBRANCH  20  21
ENDBRANCH   3  19
TORSDOF 7
ENDMDL
MODEL 3
REMARK VINA RESULT:      -8.2      1.795      2.052
REMARK  Name = 
REMARK  9 active torsions:
REMARK  status: ('A' for Active; 'I' for Inactive)
REMARK    1  A    between atoms: C_1  and  O_2
REMARK    2  A    between atoms: O_2  and  C_3
REMARK    3  A    between atoms: C_8  and  C_9
REMARK    4  A    between atoms: C_9  and  C_10
REMARK    5  A    between atoms: C_9  and  C_11
REMARK    6  A    between atoms: N_13  and  N_14
REMARK    7  A    between atoms: C_15  and  C_16
REMARK    8  A    between atoms: C_20  and  O_21
REMARK    9  A    between atoms: O_21  and  C_22
REMARK                            x       y       z     vdW  Elec       q    Type
REMARK                         _______ _______ _______ _____ _____    ______ ____
ROOT
ATOM      1  C   UNL     1       1.593   4.880  20.624  0.00  0.00    +0.000 C 
ATOM      2  O   UNL     1       0.411   4.574  20.475  0.00  0.00    +0.000 OA
ATOM      3  N   UNL     1       2.037   6.167  20.923  0.00  0.00    +0.000 N 
ATOM      4  H   UNL     1       3.025   6.385  20.975  0.00  0.00    +0.000 HD
ENDROOT
BRANCH   1   5
ATOM      5  C   UNL     1       2.723   3.855  20.505  0.00  0.00    +0.000 C 
ATOM      6  C   UNL     1       2.140   2.442  20.626  0.00  0.00    +0.000 C 
BRANCH   5  12
ATOM      7  C   UNL     1       6.921   5.248  15.621  0.00  0.00    +0.000 A 
ATOM      8  C   UNL     1       7.429   5.717  16.829  0.00  0.00    +0.000 A 
ATOM      9  C   UNL     1       6.723   5.513  18.018  0.00  0.00    +0.000 A 
ATOM     10  C   UNL     1       5.490   4.845  18.021  0.00  0.00    +0.000 A 
ATOM     11  C   UNL     1       4.771   4.649  19.212  0.00  0.00    +0.000 A 
ATOM     12  C   UNL     1       3.519   4.010  19.218  0.00  0.00    +0.000 A 
ATOM     13  C   UNL     1       3.000   3.553  18.001  0.00  0.00    +0.000 A 
ATOM     14  C   UNL     1       3.716   3.726  16.809  0.00  0.00    +0.000 A 
ATOM     15  C   UNL     1       4.962   4.374  16.801  0.00  0.00    +0.000 A 
ATOM     16  C   UNL     1       5.693   4.574  15.614  0.00  0.00    +0.000 A 
BRANCH   7  18
ATOM     17  C   UNL     1       7.039   4.530  13.361  0.00  0.00    +0.000 C 
ATOM     18  O   UNL     1       7.517   5.382  14.396  0.00  0.00    +0.000 OA
ENDBRANCH   7  18
ENDBRANCH   5  12
ENDBRANCH   1   5
BRANCH   3  19
ATOM     19  N   UNL     1       1.110   7.133  21.171  0.00  0.00    +0.000 NA
ATOM     20  C   UNL     1       1.497   8.362  21.073  0.00  0.00    +0.000 C 
BRANCH  20  21
ATOM     21  C   UNL     1       0.551   9.471  21.324  0.00  0.00    +0.000 A 
ATOM     22  C   UNL     1       0.051   9.695  22.611  0.00  0.00    +0.000 A 
ATOM     23  C   UNL     1      -0.854  10.730  22.832  0.00  0.00    +0.000 A 
ATOM     24  C   UNL     1      -1.276  11.518  21.759  0.00  0.00    +0.000 A 
ATOM     25  C   UNL     1      -0.802  11.280  20.464  0.00  0.00    +0.000 A 
ATOM     26  C   UNL     1       0.149  10.281  20.254  0.00  0.00    +0.000 A 
BRANCH  25  27
ATOM     27  O   UNL     1      -1.311  12.117  19.518  0.00  0.00    +0.000 OA
BRANCH  27  28
ATOM     28  C   UNL     1      -0.645  13.337  19.221  0.00  0.00    +0.000 C 
ATOM     29  F   UNL     1       0.616  13.411  19.695  0.00  0.00    +0.000 F 
ATOM     30  F   UNL     1      -0.590  13.483  17.879  0.00  0.00    +0.000 F 
ATOM     31  F   UNL     1      -1.359  14.365  19.729  0.00  0.00    +0.000 F 
ENDBRANCH  27  28
ENDBRANCH  25  27
ENDBRANCH  20  21
ENDBRANCH   3  19
TORSDOF 7
ENDMDL
MODEL 4
REMARK VINA RESULT:      -8.2      4.189     10.053
REMARK  Name = 
REMARK  9 active torsions:
REMARK  status: ('A' for Active; 'I' for Inactive)
REMARK    1  A    between atoms: C_1  and  O_2
REMARK    2  A    between atoms: O_2  and  C_3
REMARK    3  A    between atoms: C_8  and  C_9
REMARK    4  A    between atoms: C_9  and  C_10
REMARK    5  A    between atoms: C_9  and  C_11
REMARK    6  A    between atoms: N_13  and  N_14
REMARK    7  A    between atoms: C_15  and  C_16
REMARK    8  A    between atoms: C_20  and  O_21
REMARK    9  A    between atoms: O_21  and  C_22
REMARK                            x       y       z     vdW  Elec       q    Type
REMARK                         _______ _______ _______ _____ _____    ______ ____
ROOT
ATOM      1  C   UNL     1       1.243   9.637  19.375  0.00  0.00    +0.000 C 
ATOM      2  O   UNL     1       1.016   8.773  20.220  0.00  0.00    +0.000 OA
ATOM      3  N   UNL     1       1.839   9.387  18.139  0.00  0.00    +0.000 N 
ATOM      4  H   UNL     1       2.064  10.139  17.500  0.00  0.00    +0.000 HD
ENDROOT
BRANCH   1   5
ATOM      5  C   UNL     1       0.877  11.107  19.589  0.00  0.00    +0.000 C 
ATOM      6  C   UNL     1       1.722  11.981  18.654  0.00  0.00    +0.000 C 
BRANCH   5  12
ATOM      7  C   UNL     1      -5.353  11.857  17.580  0.00  0.00    +0.000 A 
ATOM      8  C   UNL     1      -4.620  11.185  16.606  0.00  0.00    +0.000 A 
ATOM      9  C   UNL     1      -3.272  10.886  16.820  0.00  0.00    +0.000 A 
ATOM     10  C   UNL     1      -2.627  11.260  18.008  0.00  0.00    +0.000 A 
ATOM     11  C   UNL     1      -1.269  10.972  18.221  0.00  0.00    +0.000 A 
ATOM     12  C   UNL     1      -0.608  11.374  19.394  0.00  0.00    +0.000 A 
ATOM     13  C   UNL     1      -1.341  12.065  20.366  0.00  0.00    +0.000 A 
ATOM     14  C   UNL     1      -2.701  12.342  20.173  0.00  0.00    +0.000 A 
ATOM     15  C   UNL     1      -3.359  11.949  18.996  0.00  0.00    +0.000 A 
ATOM     16  C   UNL     1      -4.720  12.231  18.772  0.00  0.00    +0.000 A 
BRANCH   7  18
ATOM     17  C   UNL     1      -7.407  12.235  18.710  0.00  0.00    +0.000 C 
ATOM     18  O   UNL     1      -6.674  12.203  17.489  0.00  0.00    +0.000 OA
ENDBRANCH   7  18
ENDBRANCH   5  12
ENDBRANCH   1   5
BRANCH   3  19
ATOM     19  N   UNL     1       2.095   8.095  17.792  0.00  0.00    +0.000 NA
ATOM     20  C   UNL     1       3.329   7.711  17.818  0.00  0.00    +0.000 C 
BRANCH  20  21
ATOM     21  C   UNL     1       3.693   6.323  17.458  0.00  0.00    +0.000 A 
ATOM     22  C   UNL     1       4.842   6.068  16.702  0.00  0.00    +0.000 A 
ATOM     23  C   UNL     1       5.164   4.759  16.353  0.00  0.00    +0.000 A 
ATOM     24  C   UNL     1       4.322   3.715  16.737  0.00  0.00    +0.000 A 
ATOM     25  C   UNL     1       3.156   3.967  17.468  0.00  0.00    +0.000 A 
ATOM     26  C   UNL     1       2.864   5.271  17.868  0.00  0.00    +0.000 A 
BRANCH  25  27
ATOM     27  O   UNL     1       2.425   2.855  17.760  0.00  0.00    +0.000 OA
BRANCH  27  28
ATOM     28  C   UNL     1       2.791   2.038  18.864  0.00  0.00    +0.000 C 
ATOM     29  F   UNL     1       3.497   2.678  19.819  0.00  0.00    +0.000 F 
ATOM     30  F   UNL     1       1.665   1.558  19.438  0.00  0.00    +0.000 F 
ATOM     31  F   UNL     1       3.517   0.990  18.419  0.00  0.00    +0.000 F 
ENDBRANCH  27  28
ENDBRANCH  25  27
ENDBRANCH  20  21
ENDBRANCH   3  19
TORSDOF 7
ENDMDL
MODEL 5
REMARK VINA RESULT:      -8.2      1.304      1.568
REMARK  Name = 
REMARK  9 active torsions:
REMARK  status: ('A' for Active; 'I' for Inactive)
REMARK    1  A    between atoms: C_1  and  O_2
REMARK    2  A    between atoms: O_2  and  C_3
REMARK    3  A    between atoms: C_8  and  C_9
REMARK    4  A    between atoms: C_9  and  C_10
REMARK    5  A    between atoms: C_9  and  C_11
REMARK    6  A    between atoms: N_13  and  N_14
REMARK    7  A    between atoms: C_15  and  C_16
REMARK    8  A    between atoms: C_20  and  O_21
REMARK    9  A    between atoms: O_21  and  C_22
REMARK                            x       y       z     vdW  Elec       q    Type
REMARK                         _______ _______ _______ _____ _____    ______ ____
ROOT
ATOM      1  C   UNL     1       1.850   5.444  20.663  0.00  0.00    +0.000 C 
ATOM      2  O   UNL     1       0.662   5.129  20.700  0.00  0.00    +0.000 OA
ATOM      3  N   UNL     1       2.310   6.758  20.574  0.00  0.00    +0.000 N 
ATOM      4  H   UNL     1       3.297   6.966  20.483  0.00  0.00    +0.000 HD
ENDROOT
BRANCH   1   5
ATOM      5  C   UNL     1       2.974   4.407  20.723  0.00  0.00    +0.000 C 
ATOM      6  C   UNL     1       2.402   3.070  21.210  0.00  0.00    +0.000 C 
BRANCH   5  12
ATOM      7  C   UNL     1       6.720   4.705  15.311  0.00  0.00    +0.000 A 
ATOM      8  C   UNL     1       7.186   5.611  16.259  0.00  0.00    +0.000 A 
ATOM      9  C   UNL     1       6.563   5.711  17.506  0.00  0.00    +0.000 A 
ATOM     10  C   UNL     1       5.456   4.911  17.827  0.00  0.00    +0.000 A 
ATOM     11  C   UNL     1       4.820   5.016  19.075  0.00  0.00    +0.000 A 
ATOM     12  C   UNL     1       3.690   4.243  19.391  0.00  0.00    +0.000 A 
ATOM     13  C   UNL     1       3.211   3.343  18.431  0.00  0.00    +0.000 A 
ATOM     14  C   UNL     1       3.848   3.216  17.190  0.00  0.00    +0.000 A 
ATOM     15  C   UNL     1       4.971   3.996  16.870  0.00  0.00    +0.000 A 
ATOM     16  C   UNL     1       5.619   3.897  15.624  0.00  0.00    +0.000 A 
BRANCH   7  18
ATOM     17  C   UNL     1       6.417   3.836  13.122  0.00  0.00    +0.000 C 
ATOM     18  O   UNL     1       7.245   4.513  14.062  0.00  0.00    +0.000 OA
ENDBRANCH   7  18
ENDBRANCH   5  12
ENDBRANCH   1   5
BRANCH   3  19
ATOM     19  N   UNL     1       1.400   7.769  20.636  0.00  0.00    +0.000 NA
ATOM     20  C   UNL     1       1.398   8.496  21.705  0.00  0.00    +0.000 C 
BRANCH  20  21
ATOM     21  C   UNL     1       0.443   9.617  21.851  0.00  0.00    +0.000 A 
ATOM     22  C   UNL     1      -0.280   9.777  23.037  0.00  0.00    +0.000 A 
ATOM     23  C   UNL     1      -1.190  10.824  23.157  0.00  0.00    +0.000 A 
ATOM     24  C   UNL     1      -1.393  11.689  22.080  0.00  0.00    +0.000 A 
ATOM     25  C   UNL     1      -0.693  11.516  20.881  0.00  0.00    +0.000 A 
ATOM     26  C   UNL     1       0.261  10.503  20.782  0.00  0.00    +0.000 A 
BRANCH  25  27
ATOM     27  O   UNL     1      -1.003  12.424  19.914  0.00  0.00    +0.000 OA
BRANCH  27  28
ATOM     28  C   UNL     1      -1.429  11.977  18.634  0.00  0.00    +0.000 C 
ATOM     29  F   UNL     1      -0.850  10.829  18.225  0.00  0.00    +0.000 F 
ATOM     30  F   UNL     1      -2.765  11.772  18.672  0.00  0.00    +0.000 F 
ATOM     31  F   UNL     1      -1.175  12.939  17.722  0.00  0.00    +0.000 F 
ENDBRANCH  27  28
ENDBRANCH  25  27
ENDBRANCH  20  21
ENDBRANCH   3  19
TORSDOF 7
ENDMDL
MODEL 6
REMARK VINA RESULT:      -8.2      6.896      9.626
REMARK  Name = 
REMARK  9 active torsions:
REMARK  status: ('A' for Active; 'I' for Inactive)
REMARK    1  A    between atoms: C_1  and  O_2
REMARK    2  A    between atoms: O_2  and  C_3
REMARK    3  A    between atoms: C_8  and  C_9
REMARK    4  A    between atoms: C_9  and  C_10
REMARK    5  A    between atoms: C_9  and  C_11
REMARK    6  A    between atoms: N_13  and  N_14
REMARK    7  A    between atoms: C_15  and  C_16
REMARK    8  A    between atoms: C_20  and  O_21
REMARK    9  A    between atoms: O_21  and  C_22
REMARK                            x       y       z     vdW  Elec       q    Type
REMARK                         _______ _______ _______ _____ _____    ______ ____
ROOT
ATOM      1  C   UNL     1       7.531   7.381  17.787  0.00  0.00    +0.000 C 
ATOM      2  O   UNL     1       8.272   6.747  18.536  0.00  0.00    +0.000 OA
ATOM      3  N   UNL     1       7.551   8.769  17.657  0.00  0.00    +0.000 N 
ATOM      4  H   UNL     1       6.879   9.253  17.074  0.00  0.00    +0.000 HD
ENDROOT
BRANCH   1   5
ATOM      5  C   UNL     1       6.496   6.698  16.891  0.00  0.00    +0.000 C 
ATOM      6  C   UNL     1       7.178   5.581  16.090  0.00  0.00    +0.000 C 
BRANCH   5  12
ATOM      7  C   UNL     1       2.045   3.344  20.405  0.00  0.00    +0.000 A 
ATOM      8  C   UNL     1       3.248   2.645  20.375  0.00  0.00    +0.000 A 
ATOM      9  C   UNL     1       4.355   3.174  19.707  0.00  0.00    +0.000 A 
ATOM     10  C   UNL     1       4.279   4.410  19.048  0.00  0.00    +0.000 A 
ATOM     11  C   UNL     1       5.386   4.940  18.366  0.00  0.00    +0.000 A 
ATOM     12  C   UNL     1       5.308   6.162  17.675  0.00  0.00    +0.000 A 
ATOM     13  C   UNL     1       4.093   6.857  17.691  0.00  0.00    +0.000 A 
ATOM     14  C   UNL     1       2.987   6.348  18.384  0.00  0.00    +0.000 A 
ATOM     15  C   UNL     1       3.062   5.122  19.065  0.00  0.00    +0.000 A 
ATOM     16  C   UNL     1       1.960   4.582  19.755  0.00  0.00    +0.000 A 
BRANCH   7  18
ATOM     17  C   UNL     1       1.054   2.230  22.253  0.00  0.00    +0.000 C 
ATOM     18  O   UNL     1       0.896   2.933  21.025  0.00  0.00    +0.000 OA
ENDBRANCH   7  18
ENDBRANCH   5  12
ENDBRANCH   1   5
BRANCH   3  19
ATOM     19  N   UNL     1       8.515   9.469  18.316  0.00  0.00    +0.000 NA
ATOM     20  C   UNL     1       8.837  10.626  17.837  0.00  0.00    +0.000 C 
BRANCH  20  21
ATOM     21  C   UNL     1       9.872  11.452  18.495  0.00  0.00    +0.000 A 
ATOM     22  C   UNL     1      10.172  11.261  19.848  0.00  0.00    +0.000 A 
ATOM     23  C   UNL     1      11.135  12.057  20.462  0.00  0.00    +0.000 A 
ATOM     24  C   UNL     1      11.773  13.058  19.729  0.00  0.00    +0.000 A 
ATOM     25  C   UNL     1      11.457  13.273  18.382  0.00  0.00    +0.000 A 
ATOM     26  C   UNL     1      10.535  12.437  17.752  0.00  0.00    +0.000 A 
BRANCH  25  27
ATOM     27  O   UNL     1      12.147  14.292  17.799  0.00  0.00    +0.000 OA
BRANCH  27  28
ATOM     28  C   UNL     1      11.609  15.607  17.808  0.00  0.00    +0.000 C 
ATOM     29  F   UNL     1      10.317  15.676  18.189  0.00  0.00    +0.000 F 
ATOM     30  F   UNL     1      12.332  16.362  18.665  0.00  0.00    +0.000 F 
ATOM     31  F   UNL     1      11.725  16.141  16.573  0.00  0.00    +0.000 F 
ENDBRANCH  27  28
ENDBRANCH  25  27
ENDBRANCH  20  21
ENDBRANCH   3  19
TORSDOF 7
ENDMDL
MODEL 7
REMARK VINA RESULT:      -8.2      1.548      2.342
REMARK  Name = 
REMARK  9 active torsions:
REMARK  status: ('A' for Active; 'I' for Inactive)
REMARK    1  A    between atoms: C_1  and  O_2
REMARK    2  A    between atoms: O_2  and  C_3
REMARK    3  A    between atoms: C_8  and  C_9
REMARK    4  A    between atoms: C_9  and  C_10
REMARK    5  A    between atoms: C_9  and  C_11
REMARK    6  A    between atoms: N_13  and  N_14
REMARK    7  A    between atoms: C_15  and  C_16
REMARK    8  A    between atoms: C_20  and  O_21
REMARK    9  A    between atoms: O_21  and  C_22
REMARK                            x       y       z     vdW  Elec       q    Type
REMARK                         _______ _______ _______ _____ _____    ______ ____
ROOT
ATOM      1  C   UNL     1       2.535   4.174  20.581  0.00  0.00    +0.000 C 
ATOM      2  O   UNL     1       2.205   4.087  21.762  0.00  0.00    +0.000 OA
ATOM      3  N   UNL     1       2.145   5.210  19.733  0.00  0.00    +0.000 N 
ATOM      4  H   UNL     1       2.390   5.207  18.751  0.00  0.00    +0.000 HD
ENDROOT
BRANCH   1   5
ATOM      5  C   UNL     1       3.439   3.140  19.907  0.00  0.00    +0.000 C 
ATOM      6  C   UNL     1       2.570   2.069  19.237  0.00  0.00    +0.000 C 
BRANCH   5  12
ATOM      7  C   UNL     1       7.087   5.066  14.769  0.00  0.00    +0.000 A 
ATOM      8  C   UNL     1       6.083   4.203  14.339  0.00  0.00    +0.000 A 
ATOM      9  C   UNL     1       5.163   3.681  15.252  0.00  0.00    +0.000 A 
ATOM     10  C   UNL     1       5.233   4.005  16.614  0.00  0.00    +0.000 A 
ATOM     11  C   UNL     1       4.317   3.474  17.537  0.00  0.00    +0.000 A 
ATOM     12  C   UNL     1       4.401   3.767  18.909  0.00  0.00    +0.000 A 
ATOM     13  C   UNL     1       5.421   4.623  19.344  0.00  0.00    +0.000 A 
ATOM     14  C   UNL     1       6.329   5.174  18.431  0.00  0.00    +0.000 A 
ATOM     15  C   UNL     1       6.251   4.872  17.061  0.00  0.00    +0.000 A 
ATOM     16  C   UNL     1       7.162   5.401  16.126  0.00  0.00    +0.000 A 
BRANCH   7  18
ATOM     17  C   UNL     1       7.947   5.379  12.578  0.00  0.00    +0.000 C 
ATOM     18  O   UNL     1       8.041   5.641  13.974  0.00  0.00    +0.000 OA
ENDBRANCH   7  18
ENDBRANCH   5  12
ENDBRANCH   1   5
BRANCH   3  19
ATOM     19  N   UNL     1       1.440   6.249  20.260  0.00  0.00    +0.000 NA
ATOM     20  C   UNL     1       1.946   7.432  20.129  0.00  0.00    +0.000 C 
BRANCH  20  21
ATOM     21  C   UNL     1       1.242   8.615  20.669  0.00  0.00    +0.000 A 
ATOM     22  C   UNL     1       0.931   8.690  22.031  0.00  0.00    +0.000 A 
ATOM     23  C   UNL     1       0.251   9.800  22.526  0.00  0.00    +0.000 A 
ATOM     24  C   UNL     1      -0.140  10.816  21.653  0.00  0.00    +0.000 A 
ATOM     25  C   UNL     1       0.143  10.733  20.284  0.00  0.00    +0.000 A 
ATOM     26  C   UNL     1       0.875   9.649  19.799  0.00  0.00    +0.000 A 
BRANCH  25  27
ATOM     27  O   UNL     1      -0.311  11.788  19.552  0.00  0.00    +0.000 OA
BRANCH  27  28
ATOM     28  C   UNL     1      -1.612  11.746  18.983  0.00  0.00    +0.000 C 
ATOM     29  F   UNL     1      -2.573  12.299  19.752  0.00  0.00    +0.000 F 
ATOM     30  F   UNL     1      -1.590  12.414  17.808  0.00  0.00    +0.000 F 
ATOM     31  F   UNL     1      -1.945  10.462  18.732  0.00  0.00    +0.000 F 
ENDBRANCH  27  28
ENDBRANCH  25  27
ENDBRANCH  20  21
ENDBRANCH   3  19
TORSDOF 7
ENDMDL
MODEL 8
REMARK VINA RESULT:      -8.2      6.209      9.004
REMARK  Name = 
REMARK  9 active torsions:
REMARK  status: ('A' for Active; 'I' for Inactive)
REMARK    1  A    between atoms: C_1  and  O_2
REMARK    2  A    between atoms: O_2  and  C_3
REMARK    3  A    between atoms: C_8  and  C_9
REMARK    4  A    between atoms: C_9  and  C_10
REMARK    5  A    between atoms: C_9  and  C_11
REMARK    6  A    between atoms: N_13  and  N_14
REMARK    7  A    between atoms: C_15  and  C_16
REMARK    8  A    between atoms: C_20  and  O_21
REMARK    9  A    between atoms: O_21  and  C_22
REMARK                            x       y       z     vdW  Elec       q    Type
REMARK                         _______ _______ _______ _____ _____    ______ ____
ROOT
ATOM      1  C   UNL     1       7.368   6.949  17.533  0.00  0.00    +0.000 C 
ATOM      2  O   UNL     1       8.026   6.328  18.364  0.00  0.00    +0.000 OA
ATOM      3  N   UNL     1       7.406   8.334  17.379  0.00  0.00    +0.000 N 
ATOM      4  H   UNL     1       6.799   8.809  16.722  0.00  0.00    +0.000 HD
ENDROOT
BRANCH   1   5
ATOM      5  C   UNL     1       6.426   6.252  16.548  0.00  0.00    +0.000 C 
ATOM      6  C   UNL     1       7.245   5.346  15.621  0.00  0.00    +0.000 C 
BRANCH   5  12
ATOM      7  C   UNL     1       1.563   3.869  20.300  0.00  0.00    +0.000 A 
ATOM      8  C   UNL     1       1.764   5.215  20.587  0.00  0.00    +0.000 A 
ATOM      9  C   UNL     1       2.733   5.947  19.894  0.00  0.00    +0.000 A 
ATOM     10  C   UNL     1       3.524   5.344  18.906  0.00  0.00    +0.000 A 
ATOM     11  C   UNL     1       4.507   6.072  18.215  0.00  0.00    +0.000 A 
ATOM     12  C   UNL     1       5.327   5.467  17.248  0.00  0.00    +0.000 A 
ATOM     13  C   UNL     1       5.135   4.108  16.971  0.00  0.00    +0.000 A 
ATOM     14  C   UNL     1       4.146   3.375  17.639  0.00  0.00    +0.000 A 
ATOM     15  C   UNL     1       3.333   3.978  18.613  0.00  0.00    +0.000 A 
ATOM     16  C   UNL     1       2.343   3.258  19.310  0.00  0.00    +0.000 A 
BRANCH   7  18
ATOM     17  C   UNL     1       1.121   2.261  21.991  0.00  0.00    +0.000 C 
ATOM     18  O   UNL     1       0.647   3.050  20.905  0.00  0.00    +0.000 OA
ENDBRANCH   7  18
ENDBRANCH   5  12
ENDBRANCH   1   5
BRANCH   3  19
ATOM     19  N   UNL     1       8.301   9.045  18.121  0.00  0.00    +0.000 NA
ATOM     20  C   UNL     1       8.619  10.222  17.692  0.00  0.00    +0.000 C 
BRANCH  20  21
ATOM     21  C   UNL     1       9.581  11.060  18.440  0.00  0.00    +0.000 A 
ATOM     22  C   UNL     1      10.779  11.465  17.841  0.00  0.00    +0.000 A 
ATOM     23  C   UNL     1      11.686  12.238  18.561  0.00  0.00    +0.000 A 
ATOM     24  C   UNL     1      11.405  12.579  19.885  0.00  0.00    +0.000 A 
ATOM     25  C   UNL     1      10.222  12.152  20.499  0.00  0.00    +0.000 A 
ATOM     26  C   UNL     1       9.286  11.428  19.759  0.00  0.00    +0.000 A 
BRANCH  25  27
ATOM     27  O   UNL     1      10.088  12.548  21.795  0.00  0.00    +0.000 OA
BRANCH  27  28
ATOM     28  C   UNL     1       8.947  13.297  22.192  0.00  0.00    +0.000 C 
ATOM     29  F   UNL     1       8.358  13.984  21.191  0.00  0.00    +0.000 F 
ATOM     30  F   UNL     1       8.030  12.447  22.703  0.00  0.00    +0.000 F 
ATOM     31  F   UNL     1       9.304  14.166  23.162  0.00  0.00    +0.000 F 
ENDBRANCH  27  28
ENDBRANCH  25  27
ENDBRANCH  20  21
ENDBRANCH   3  19
TORSDOF 7
ENDMDL
MODEL 9
REMARK VINA RESULT:      -8.2      1.533      2.208
REMARK  Name = 
REMARK  9 active torsions:
REMARK  status: ('A' for Active; 'I' for Inactive)
REMARK    1  A    between atoms: C_1  and  O_2
REMARK    2  A    between atoms: O_2  and  C_3
REMARK    3  A    between atoms: C_8  and  C_9
REMARK    4  A    between atoms: C_9  and  C_10
REMARK    5  A    between atoms: C_9  and  C_11
REMARK    6  A    between atoms: N_13  and  N_14
REMARK    7  A    between atoms: C_15  and  C_16
REMARK    8  A    between atoms: C_20  and  O_21
REMARK    9  A    between atoms: O_21  and  C_22
REMARK                            x       y       z     vdW  Elec       q    Type
REMARK                         _______ _______ _______ _____ _____    ______ ____
ROOT
ATOM      1  C   UNL     1       1.924   4.378  20.070  0.00  0.00    +0.000 C 
ATOM      2  O   UNL     1       0.741   4.084  19.907  0.00  0.00    +0.000 OA
ATOM      3  N   UNL     1       2.368   5.630  20.493  0.00  0.00    +0.000 N 
ATOM      4  H   UNL     1       3.356   5.846  20.553  0.00  0.00    +0.000 HD
ENDROOT
BRANCH   1   5
ATOM      5  C   UNL     1       3.056   3.376  19.833  0.00  0.00    +0.000 C 
ATOM      6  C   UNL     1       2.466   2.058  19.318  0.00  0.00    +0.000 C 
BRANCH   5  12
ATOM      7  C   UNL     1       7.030   5.035  14.846  0.00  0.00    +0.000 A 
ATOM      8  C   UNL     1       5.911   4.367  14.357  0.00  0.00    +0.000 A 
ATOM      9  C   UNL     1       4.909   3.938  15.230  0.00  0.00    +0.000 A 
ATOM     10  C   UNL     1       5.009   4.160  16.611  0.00  0.00    +0.000 A 
ATOM     11  C   UNL     1       4.008   3.720  17.494  0.00  0.00    +0.000 A 
ATOM     12  C   UNL     1       4.117   3.909  18.882  0.00  0.00    +0.000 A 
ATOM     13  C   UNL     1       5.251   4.566  19.376  0.00  0.00    +0.000 A 
ATOM     14  C   UNL     1       6.247   5.026  18.505  0.00  0.00    +0.000 A 
ATOM     15  C   UNL     1       6.142   4.828  17.118  0.00  0.00    +0.000 A 
ATOM     16  C   UNL     1       7.137   5.267  16.223  0.00  0.00    +0.000 A 
BRANCH   7  18
ATOM     17  C   UNL     1       7.953   5.364  12.684  0.00  0.00    +0.000 C 
ATOM     18  O   UNL     1       8.074   5.505  14.095  0.00  0.00    +0.000 OA
ENDBRANCH   7  18
ENDBRANCH   5  12
ENDBRANCH   1   5
BRANCH   3  19
ATOM     19  N   UNL     1       1.441   6.561  20.850  0.00  0.00    +0.000 NA
ATOM     20  C   UNL     1       1.827   7.794  20.887  0.00  0.00    +0.000 C 
BRANCH  20  21
ATOM     21  C   UNL     1       0.881   8.868  21.262  0.00  0.00    +0.000 A 
ATOM     22  C   UNL     1       0.582   9.106  22.608  0.00  0.00    +0.000 A 
ATOM     23  C   UNL     1      -0.324  10.107  22.949  0.00  0.00    +0.000 A 
ATOM     24  C   UNL     1      -0.949  10.845  21.943  0.00  0.00    +0.000 A 
ATOM     25  C   UNL     1      -0.676  10.591  20.594  0.00  0.00    +0.000 A 
ATOM     26  C   UNL     1       0.276   9.629  20.254  0.00  0.00    +0.000 A 
BRANCH  25  27
ATOM     27  O   UNL     1      -1.369  11.377  19.723  0.00  0.00    +0.000 OA
BRANCH  27  28
ATOM     28  C   UNL     1      -0.915  11.520  18.384  0.00  0.00    +0.000 C 
ATOM     29  F   UNL     1      -1.040  10.405  17.634  0.00  0.00    +0.000 F 
ATOM     30  F   UNL     1      -1.631  12.499  17.788  0.00  0.00    +0.000 F 
ATOM     31  F   UNL     1       0.383  11.891  18.394  0.00  0.00    +0.000 F 
ENDBRANCH  27  28
ENDBRANCH  25  27
ENDBRANCH  20  21
ENDBRANCH   3  19
TORSDOF 7
ENDMDL
