MODEL 1
REMARK VINA RESULT:      -9.6      0.000      0.000
REMARK  Name = 
REMARK  6 active torsions:
REMARK  status: ('A' for Active; 'I' for Inactive)
REMARK    1  A    between atoms: C_1  and  C_2
REMARK    2  A    between atoms: C_4  and  C_5
REMARK    3  A    between atoms: C_8  and  C_9
REMARK    4  A    between atoms: C_9  and  C_11
REMARK    5  A    between atoms: C_16  and  C_17
REMARK    6  A    between atoms: N_19  and  C_20
REMARK                            x       y       z     vdW  Elec       q    Type
REMARK                         _______ _______ _______ _____ _____    ______ ____
ROOT
ATOM      1  C   UNL     1       2.851   3.999  20.402  0.00  0.00    +0.000 C 
ATOM      2  C   UNL     1       1.506   3.279  20.197  0.00  0.00    +0.000 C 
ATOM      3  C   UNL     1       1.024   3.197  18.748  0.00  0.00    +0.000 C 
ATOM      4  C   UNL     1       1.204   4.474  17.935  0.00  0.00    +0.000 C 
ATOM      5  C   UNL     1       2.523   5.199  18.195  0.00  0.00    +0.000 C 
ATOM      6  C   UNL     1       2.845   5.366  19.688  0.00  0.00    +0.000 C 
ENDROOT
BRANCH   6   7
ATOM      7  C   UNL     1       1.860   6.354  20.353  0.00  0.00    +0.000 C 
ATOM      8  O   UNL     1       0.892   5.977  21.009  0.00  0.00    +0.000 OA
ATOM      9  N   UNL     1       2.156   7.679  20.132  0.00  0.00    +0.000 N 
ATOM     10  H   UNL     1       2.805   7.942  19.397  0.00  0.00    +0.000 HD
BRANCH   9  11
ATOM     11  C   UNL     1       1.470   8.727  20.724  0.00  0.00    +0.000 A 
ATOM     12  C   UNL     1       1.213   9.047  22.081  0.00  0.00    +0.000 A 
ATOM     13  N   UNL     1       0.499  10.174  22.214  0.00  0.00    +0.000 NA
ATOM     14  N   UNL     1       0.287  10.547  20.944  0.00  0.00    +0.000 N 
ATOM     15  C   UNL     1       0.842   9.724  20.010  0.00  0.00    +0.000 A 
ATOM     16  C   UNL     1       0.670   9.908  18.600  0.00  0.00    +0.000 C 
ATOM     17  O   UNL     1       1.136   9.156  17.750  0.00  0.00    +0.000 OA
ATOM     18  N   UNL     1      -0.093  10.999  18.254  0.00  0.00    +0.000 N 
ATOM     19  C   UNL     1      -0.289  12.113  19.173  0.00  0.00    +0.000 C 
ATOM     20  C   UNL     1      -0.563  11.675  20.611  0.00  0.00    +0.000 C 
ATOM     21  H   UNL     1      -0.156  11.154  17.255  0.00  0.00    +0.000 HD
ENDBRANCH   9  11
ENDBRANCH   6   7
BRANCH   1  22
ATOM     22  C   UNL     1       4.058   3.125  19.983  0.00  0.00    +0.000 C 
ATOM     23  O   UNL     1       4.456   2.195  20.681  0.00  0.00    +0.000 OA
BRANCH  22  27
ATOM     24  C   UNL     1       6.120   4.147  16.288  0.00  0.00    +0.000 A 
ATOM     25  C   UNL     1       6.529   4.686  17.515  0.00  0.00    +0.000 A 
ATOM     26  C   UNL     1       5.873   4.323  18.710  0.00  0.00    +0.000 A 
ATOM     27  C   UNL     1       4.796   3.416  18.699  0.00  0.00    +0.000 A 
ATOM     28  C   UNL     1       4.429   2.841  17.488  0.00  0.00    +0.000 A 
ATOM     29  C   UNL     1       5.081   3.203  16.303  0.00  0.00    +0.000 A 
BRANCH  24  33
ATOM     30  C   UNL     1       7.458   4.800  11.377  0.00  0.00    +0.000 C 
ATOM     31  C   UNL     1       7.247   4.806  12.842  0.00  0.00    +0.000 A 
ATOM     32  C   UNL     1       6.377   4.135  13.676  0.00  0.00    +0.000 A 
ATOM     33  C   UNL     1       6.689   4.566  14.997  0.00  0.00    +0.000 A 
ATOM     34  N   UNL     1       7.686   5.472  14.959  0.00  0.00    +0.000 NA
ATOM     35  N   UNL     1       8.001   5.589  13.666  0.00  0.00    +0.000 N 
ATOM     36  H   UNL     1       8.753   6.221  13.415  0.00  0.00    +0.000 HD
ENDBRANCH  24  33
ENDBRANCH  22  27
ENDBRANCH   1  22
TORSDOF 5
ENDMDL
MODEL 2
REMARK VINA RESULT:      -9.5      0.549      1.181
REMARK  Name = 
REMARK  6 active torsions:
REMARK  status: ('A' for Active; 'I' for Inactive)
REMARK    1  A    between atoms: C_1  and  C_2
REMARK    2  A    between atoms: C_4  and  C_5
REMARK    3  A    between atoms: C_8  and  C_9
REMARK    4  A    between atoms: C_9  and  C_11
REMARK    5  A    between atoms: C_16  and  C_17
REMARK    6  A    between atoms: N_19  and  C_20
REMARK                            x       y       z     vdW  Elec       q    Type
REMARK                         _______ _______ _______ _____ _____    ______ ____
ROOT
ATOM      1  C   UNL     1       3.252   4.344  20.586  0.00  0.00    +0.000 C 
ATOM      2  C   UNL     1       2.443   3.561  21.636  0.00  0.00    +0.000 C 
ATOM      3  C   UNL     1       1.372   2.628  21.072  0.00  0.00    +0.000 C 
ATOM      4  C   UNL     1       0.552   3.206  19.924  0.00  0.00    +0.000 C 
ATOM      5  C   UNL     1       1.368   4.022  18.924  0.00  0.00    +0.000 C 
ATOM      6  C   UNL     1       2.306   5.042  19.588  0.00  0.00    +0.000 C 
ENDROOT
BRANCH   6   7
ATOM      7  C   UNL     1       1.497   6.173  20.262  0.00  0.00    +0.000 C 
ATOM      8  O   UNL     1       0.440   5.965  20.852  0.00  0.00    +0.000 OA
ATOM      9  N   UNL     1       2.057   7.422  20.129  0.00  0.00    +0.000 N 
ATOM     10  H   UNL     1       2.785   7.586  19.440  0.00  0.00    +0.000 HD
BRANCH   9  11
ATOM     11  C   UNL     1       1.557   8.557  20.747  0.00  0.00    +0.000 A 
ATOM     12  C   UNL     1       1.415   8.909  22.114  0.00  0.00    +0.000 A 
ATOM     13  N   UNL     1       0.875  10.126  22.273  0.00  0.00    +0.000 NA
ATOM     14  N   UNL     1       0.657  10.526  21.013  0.00  0.00    +0.000 N 
ATOM     15  C   UNL     1       1.043   9.633  20.059  0.00  0.00    +0.000 A 
ATOM     16  C   UNL     1       0.831   9.842  18.657  0.00  0.00    +0.000 C 
ATOM     17  O   UNL     1       1.143   9.032  17.791  0.00  0.00    +0.000 OA
ATOM     18  N   UNL     1       0.214  11.031  18.343  0.00  0.00    +0.000 N 
ATOM     19  C   UNL     1       0.224  12.160  19.263  0.00  0.00    +0.000 C 
ATOM     20  C   UNL     1      -0.040  11.764  20.715  0.00  0.00    +0.000 C 
ATOM     21  H   UNL     1       0.125  11.194  17.346  0.00  0.00    +0.000 HD
ENDBRANCH   9  11
ENDBRANCH   6   7
BRANCH   1  22
ATOM     22  C   UNL     1       4.306   3.461  19.875  0.00  0.00    +0.000 C 
ATOM     23  O   UNL     1       4.730   2.425  20.382  0.00  0.00    +0.000 OA
BRANCH  22  27
ATOM     24  C   UNL     1       5.967   4.464  15.979  0.00  0.00    +0.000 A 
ATOM     25  C   UNL     1       4.871   3.599  16.094  0.00  0.00    +0.000 A 
ATOM     26  C   UNL     1       4.321   3.306  17.360  0.00  0.00    +0.000 A 
ATOM     27  C   UNL     1       4.859   3.872  18.532  0.00  0.00    +0.000 A 
ATOM     28  C   UNL     1       5.911   4.772  18.409  0.00  0.00    +0.000 A 
ATOM     29  C   UNL     1       6.455   5.061  17.152  0.00  0.00    +0.000 A 
BRANCH  24  33
ATOM     30  C   UNL     1       7.671   4.589  11.140  0.00  0.00    +0.000 C 
ATOM     31  C   UNL     1       7.367   4.736  12.580  0.00  0.00    +0.000 A 
ATOM     32  C   UNL     1       6.390   4.210  13.401  0.00  0.00    +0.000 A 
ATOM     33  C   UNL     1       6.653   4.724  14.703  0.00  0.00    +0.000 A 
ATOM     34  N   UNL     1       7.726   5.539  14.665  0.00  0.00    +0.000 NA
ATOM     35  N   UNL     1       8.132   5.520  13.393  0.00  0.00    +0.000 N 
ATOM     36  H   UNL     1       8.951   6.065  13.147  0.00  0.00    +0.000 HD
ENDBRANCH  24  33
ENDBRANCH  22  27
ENDBRANCH   1  22
TORSDOF 5
ENDMDL
MODEL 3
REMARK VINA RESULT:      -8.6      4.278      7.566
REMARK  Name = 
REMARK  6 active torsions:
REMARK  status: ('A' for Active; 'I' for Inactive)
REMARK    1  A    between atoms: C_1  and  C_2
REMARK    2  A    between atoms: C_4  and  C_5
REMARK    3  A    between atoms: C_8  and  C_9
REMARK    4  A    between atoms: C_9  and  C_11
REMARK    5  A    between atoms: C_16  and  C_17
REMARK    6  A    between atoms: N_19  and  C_20
REMARK                            x       y       z     vdW  Elec       q    Type
REMARK                         _______ _______ _______ _____ _____    ______ ____
ROOT
ATOM      1  C   UNL     1      -0.941  11.050  20.302  0.00  0.00    +0.000 C 
ATOM      2  C   UNL     1      -1.572  10.132  19.240  0.00  0.00    +0.000 C 
ATOM      3  C   UNL     1      -1.302  10.531  17.789  0.00  0.00    +0.000 C 
ATOM      4  C   UNL     1      -1.412  12.024  17.500  0.00  0.00    +0.000 C 
ATOM      5  C   UNL     1      -0.826  12.916  18.593  0.00  0.00    +0.000 C 
ATOM      6  C   UNL     1      -1.279  12.525  20.009  0.00  0.00    +0.000 C 
ENDROOT
BRANCH   6   7
ATOM      7  C   UNL     1      -2.783  12.816  20.202  0.00  0.00    +0.000 C 
ATOM      8  O   UNL     1      -3.657  12.198  19.598  0.00  0.00    +0.000 OA
ATOM      9  N   UNL     1      -3.051  13.831  21.092  0.00  0.00    +0.000 N 
ATOM     10  H   UNL     1      -2.314  14.469  21.377  0.00  0.00    +0.000 HD
BRANCH   9  11
ATOM     11  C   UNL     1      -4.329  14.181  21.495  0.00  0.00    +0.000 A 
ATOM     12  C   UNL     1      -5.250  15.142  21.003  0.00  0.00    +0.000 A 
ATOM     13  N   UNL     1      -6.397  15.151  21.697  0.00  0.00    +0.000 NA
ATOM     14  N   UNL     1      -6.189  14.217  22.635  0.00  0.00    +0.000 N 
ATOM     15  C   UNL     1      -4.974  13.603  22.566  0.00  0.00    +0.000 A 
ATOM     16  C   UNL     1      -4.531  12.630  23.519  0.00  0.00    +0.000 C 
ATOM     17  O   UNL     1      -3.428  12.095  23.488  0.00  0.00    +0.000 OA
ATOM     18  N   UNL     1      -5.440  12.347  24.512  0.00  0.00    +0.000 N 
ATOM     19  C   UNL     1      -6.861  12.621  24.344  0.00  0.00    +0.000 C 
ATOM     20  C   UNL     1      -7.147  13.976  23.698  0.00  0.00    +0.000 C 
ATOM     21  H   UNL     1      -5.141  11.612  25.144  0.00  0.00    +0.000 HD
ENDBRANCH   9  11
ENDBRANCH   6   7
BRANCH   1  22
ATOM     22  C   UNL     1       0.583  10.817  20.454  0.00  0.00    +0.000 C 
ATOM     23  O   UNL     1       1.319  11.662  20.957  0.00  0.00    +0.000 OA
BRANCH  22  27
ATOM     24  C   UNL     1       2.237   7.104  18.897  0.00  0.00    +0.000 A 
ATOM     25  C   UNL     1       2.217   8.267  18.117  0.00  0.00    +0.000 A 
ATOM     26  C   UNL     1       1.707   9.473  18.643  0.00  0.00    +0.000 A 
ATOM     27  C   UNL     1       1.207   9.536  19.958  0.00  0.00    +0.000 A 
ATOM     28  C   UNL     1       1.280   8.394  20.748  0.00  0.00    +0.000 A 
ATOM     29  C   UNL     1       1.786   7.199  20.223  0.00  0.00    +0.000 A 
BRANCH  24  33
ATOM     30  C   UNL     1       2.981   2.139  17.833  0.00  0.00    +0.000 C 
ATOM     31  C   UNL     1       2.950   3.613  17.952  0.00  0.00    +0.000 A 
ATOM     32  C   UNL     1       2.174   4.489  18.684  0.00  0.00    +0.000 A 
ATOM     33  C   UNL     1       2.655   5.793  18.374  0.00  0.00    +0.000 A 
ATOM     34  N   UNL     1       3.660   5.710  17.480  0.00  0.00    +0.000 NA
ATOM     35  N   UNL     1       3.816   4.403  17.254  0.00  0.00    +0.000 N 
ATOM     36  H   UNL     1       4.546   4.116  16.611  0.00  0.00    +0.000 HD
ENDBRANCH  24  33
ENDBRANCH  22  27
ENDBRANCH   1  22
TORSDOF 5
ENDMDL
MODEL 4
REMARK VINA RESULT:      -8.5      3.884      6.787
REMARK  Name = 
REMARK  6 active torsions:
REMARK  status: ('A' for Active; 'I' for Inactive)
REMARK    1  A    between atoms: C_1  and  C_2
REMARK    2  A    between atoms: C_4  and  C_5
REMARK    3  A    between atoms: C_8  and  C_9
REMARK    4  A    between atoms: C_9  and  C_11
REMARK    5  A    between atoms: C_16  and  C_17
REMARK    6  A    between atoms: N_19  and  C_20
REMARK                            x       y       z     vdW  Elec       q    Type
REMARK                         _______ _______ _______ _____ _____    ______ ____
ROOT
ATOM      1  C   UNL     1       0.709  11.224  20.375  0.00  0.00    +0.000 C 
ATOM      2  C   UNL     1       0.002  12.004  21.498  0.00  0.00    +0.000 C 
ATOM      3  C   UNL     1      -1.505  12.184  21.318  0.00  0.00    +0.000 C 
ATOM      4  C   UNL     1      -1.948  12.543  19.904  0.00  0.00    +0.000 C 
ATOM      5  C   UNL     1      -1.196  11.794  18.806  0.00  0.00    +0.000 C 
ATOM      6  C   UNL     1       0.329  11.800  18.996  0.00  0.00    +0.000 C 
ENDROOT
BRANCH   6   7
ATOM      7  C   UNL     1       0.901  13.221  18.794  0.00  0.00    +0.000 C 
ATOM      8  O   UNL     1       0.182  14.200  18.608  0.00  0.00    +0.000 OA
ATOM      9  N   UNL     1       2.275  13.285  18.825  0.00  0.00    +0.000 N 
ATOM     10  H   UNL     1       2.828  12.439  18.735  0.00  0.00    +0.000 HD
BRANCH   9  11
ATOM     11  C   UNL     1       2.989  14.471  18.774  0.00  0.00    +0.000 A 
ATOM     12  C   UNL     1       3.319  15.335  17.699  0.00  0.00    +0.000 A 
ATOM     13  N   UNL     1       4.036  16.395  18.097  0.00  0.00    +0.000 NA
ATOM     14  N   UNL     1       4.177  16.185  19.413  0.00  0.00    +0.000 N 
ATOM     15  C   UNL     1       3.574  15.054  19.876  0.00  0.00    +0.000 A 
ATOM     16  C   UNL     1       3.668  14.615  21.236  0.00  0.00    +0.000 C 
ATOM     17  O   UNL     1       3.159  13.582  21.658  0.00  0.00    +0.000 OA
ATOM     18  N   UNL     1       4.409  15.437  22.054  0.00  0.00    +0.000 N 
ATOM     19  C   UNL     1       4.651  16.832  21.711  0.00  0.00    +0.000 C 
ATOM     20  C   UNL     1       5.004  17.045  20.239  0.00  0.00    +0.000 C 
ATOM     21  H   UNL     1       4.416  15.149  23.025  0.00  0.00    +0.000 HD
ENDBRANCH   9  11
ENDBRANCH   6   7
BRANCH   1  22
ATOM     22  C   UNL     1       0.452   9.699  20.464  0.00  0.00    +0.000 C 
ATOM     23  O   UNL     1      -0.482   9.238  21.115  0.00  0.00    +0.000 OA
BRANCH  22  27
ATOM     24  C   UNL     1       2.960   6.875  18.301  0.00  0.00    +0.000 A 
ATOM     25  C   UNL     1       2.593   8.099  17.727  0.00  0.00    +0.000 A 
ATOM     26  C   UNL     1       1.805   9.020  18.450  0.00  0.00    +0.000 A 
ATOM     27  C   UNL     1       1.371   8.733  19.758  0.00  0.00    +0.000 A 
ATOM     28  C   UNL     1       1.783   7.541  20.344  0.00  0.00    +0.000 A 
ATOM     29  C   UNL     1       2.564   6.629  19.625  0.00  0.00    +0.000 A 
BRANCH  24  33
ATOM     30  C   UNL     1       6.044   4.088  15.292  0.00  0.00    +0.000 C 
ATOM     31  C   UNL     1       5.049   4.657  16.227  0.00  0.00    +0.000 A 
ATOM     32  C   UNL     1       4.808   5.933  16.693  0.00  0.00    +0.000 A 
ATOM     33  C   UNL     1       3.686   5.828  17.563  0.00  0.00    +0.000 A 
ATOM     34  N   UNL     1       3.281   4.545  17.636  0.00  0.00    +0.000 NA
ATOM     35  N   UNL     1       4.106   3.874  16.826  0.00  0.00    +0.000 N 
ATOM     36  H   UNL     1       3.962   2.876  16.723  0.00  0.00    +0.000 HD
ENDBRANCH  24  33
ENDBRANCH  22  27
ENDBRANCH   1  22
TORSDOF 5
ENDMDL
MODEL 5
REMARK VINA RESULT:      -8.5      3.449     10.886
REMARK  Name = 
REMARK  6 active torsions:
REMARK  status: ('A' for Active; 'I' for Inactive)
REMARK    1  A    between atoms: C_1  and  C_2
REMARK    2  A    between atoms: C_4  and  C_5
REMARK    3  A    between atoms: C_8  and  C_9
REMARK    4  A    between atoms: C_9  and  C_11
REMARK    5  A    between atoms: C_16  and  C_17
REMARK    6  A    between atoms: N_19  and  C_20
REMARK                            x       y       z     vdW  Elec       q    Type
REMARK                         _______ _______ _______ _____ _____    ______ ____
ROOT
ATOM      1  C   UNL     1       0.766  10.407  19.459  0.00  0.00    +0.000 C 
ATOM      2  C   UNL     1      -0.630   9.789  19.265  0.00  0.00    +0.000 C 
ATOM      3  C   UNL     1      -1.172   9.014  20.466  0.00  0.00    +0.000 C 
ATOM      4  C   UNL     1      -0.159   8.115  21.165  0.00  0.00    +0.000 C 
ATOM      5  C   UNL     1       1.233   8.729  21.298  0.00  0.00    +0.000 C 
ATOM      6  C   UNL     1       1.755   9.351  19.993  0.00  0.00    +0.000 C 
ENDROOT
BRANCH   6   7
ATOM      7  C   UNL     1       2.043   8.256  18.942  0.00  0.00    +0.000 C 
ATOM      8  O   UNL     1       1.819   8.416  17.745  0.00  0.00    +0.000 OA
ATOM      9  N   UNL     1       2.555   7.092  19.468  0.00  0.00    +0.000 N 
ATOM     10  H   UNL     1       2.496   6.912  20.466  0.00  0.00    +0.000 HD
BRANCH   9  11
ATOM     11  C   UNL     1       2.986   6.026  18.695  0.00  0.00    +0.000 A 
ATOM     12  C   UNL     1       3.896   5.947  17.610  0.00  0.00    +0.000 A 
ATOM     13  N   UNL     1       4.028   4.696  17.145  0.00  0.00    +0.000 NA
ATOM     14  N   UNL     1       3.186   3.997  17.918  0.00  0.00    +0.000 N 
ATOM     15  C   UNL     1       2.536   4.736  18.862  0.00  0.00    +0.000 A 
ATOM     16  C   UNL     1       1.543   4.189  19.739  0.00  0.00    +0.000 C 
ATOM     17  O   UNL     1       0.927   4.849  20.569  0.00  0.00    +0.000 OA
ATOM     18  N   UNL     1       1.303   2.846  19.565  0.00  0.00    +0.000 N 
ATOM     19  C   UNL     1       2.278   1.975  18.923  0.00  0.00    +0.000 C 
ATOM     20  C   UNL     1       2.918   2.591  17.679  0.00  0.00    +0.000 C 
ATOM     21  H   UNL     1       0.645   2.459  20.232  0.00  0.00    +0.000 HD
ENDBRANCH   9  11
ENDBRANCH   6   7
BRANCH   1  22
ATOM     22  C   UNL     1       0.732  11.678  20.344  0.00  0.00    +0.000 C 
ATOM     23  O   UNL     1       1.712  12.409  20.464  0.00  0.00    +0.000 OA
BRANCH  22  27
ATOM     24  C   UNL     1      -2.917  12.521  22.561  0.00  0.00    +0.000 A 
ATOM     25  C   UNL     1      -1.827  11.896  23.179  0.00  0.00    +0.000 A 
ATOM     26  C   UNL     1      -0.638  11.655  22.459  0.00  0.00    +0.000 A 
ATOM     27  C   UNL     1      -0.519  12.036  21.108  0.00  0.00    +0.000 A 
ATOM     28  C   UNL     1      -1.583  12.706  20.515  0.00  0.00    +0.000 A 
ATOM     29  C   UNL     1      -2.761  12.943  21.231  0.00  0.00    +0.000 A 
BRANCH  24  33
ATOM     30  C   UNL     1      -7.608  13.936  24.091  0.00  0.00    +0.000 C 
ATOM     31  C   UNL     1      -6.265  13.361  23.856  0.00  0.00    +0.000 A 
ATOM     32  C   UNL     1      -5.322  13.528  22.862  0.00  0.00    +0.000 A 
ATOM     33  C   UNL     1      -4.220  12.702  23.223  0.00  0.00    +0.000 A 
ATOM     34  N   UNL     1      -4.493  12.050  24.370  0.00  0.00    +0.000 NA
ATOM     35  N   UNL     1      -5.712  12.466  24.725  0.00  0.00    +0.000 N 
ATOM     36  H   UNL     1      -6.106  12.102  25.585  0.00  0.00    +0.000 HD
ENDBRANCH  24  33
ENDBRANCH  22  27
ENDBRANCH   1  22
TORSDOF 5
ENDMDL
MODEL 6
REMARK VINA RESULT:      -8.5      3.762      6.443
REMARK  Name = 
REMARK  6 active torsions:
REMARK  status: ('A' for Active; 'I' for Inactive)
REMARK    1  A    between atoms: C_1  and  C_2
REMARK    2  A    between atoms: C_4  and  C_5
REMARK    3  A    between atoms: C_8  and  C_9
REMARK    4  A    between atoms: C_9  and  C_11
REMARK    5  A    between atoms: C_16  and  C_17
REMARK    6  A    between atoms: N_19  and  C_20
REMARK                            x       y       z     vdW  Elec       q    Type
REMARK                         _______ _______ _______ _____ _____    ______ ____
ROOT
ATOM      1  C   UNL     1       0.926  10.892  20.245  0.00  0.00    +0.000 C 
ATOM      2  C   UNL     1       0.190  11.667  21.352  0.00  0.00    +0.000 C 
ATOM      3  C   UNL     1      -1.321  11.801  21.161  0.00  0.00    +0.000 C 
ATOM      4  C   UNL     1      -1.766  12.126  19.740  0.00  0.00    +0.000 C 
ATOM      5  C   UNL     1      -0.985  11.384  18.657  0.00  0.00    +0.000 C 
ATOM      6  C   UNL     1       0.538  11.437  18.856  0.00  0.00    +0.000 C 
ENDROOT
BRANCH   6   7
ATOM      7  C   UNL     1       1.070  12.871  18.636  0.00  0.00    +0.000 C 
ATOM      8  O   UNL     1       0.332  13.809  18.346  0.00  0.00    +0.000 OA
ATOM      9  N   UNL     1       2.432  12.994  18.779  0.00  0.00    +0.000 N 
ATOM     10  H   UNL     1       3.024  12.169  18.774  0.00  0.00    +0.000 HD
BRANCH   9  11
ATOM     11  C   UNL     1       3.102  14.206  18.733  0.00  0.00    +0.000 A 
ATOM     12  C   UNL     1       3.472  15.045  17.651  0.00  0.00    +0.000 A 
ATOM     13  N   UNL     1       4.118  16.147  18.058  0.00  0.00    +0.000 NA
ATOM     14  N   UNL     1       4.176  15.989  19.387  0.00  0.00    +0.000 N 
ATOM     15  C   UNL     1       3.586  14.850  19.849  0.00  0.00    +0.000 A 
ATOM     16  C   UNL     1       3.603  14.461  21.229  0.00  0.00    +0.000 C 
ATOM     17  O   UNL     1       3.106  13.423  21.652  0.00  0.00    +0.000 OA
ATOM     18  N   UNL     1       4.253  15.341  22.063  0.00  0.00    +0.000 N 
ATOM     19  C   UNL     1       4.464  16.732  21.687  0.00  0.00    +0.000 C 
ATOM     20  C   UNL     1       4.910  16.909  20.235  0.00  0.00    +0.000 C 
ATOM     21  H   UNL     1       4.204  15.087  23.043  0.00  0.00    +0.000 HD
ENDBRANCH   9  11
ENDBRANCH   6   7
BRANCH   1  22
ATOM     22  C   UNL     1       0.713   9.361  20.354  0.00  0.00    +0.000 C 
ATOM     23  O   UNL     1      -0.138   8.879  21.098  0.00  0.00    +0.000 OA
BRANCH  22  27
ATOM     24  C   UNL     1       3.343   6.672  18.166  0.00  0.00    +0.000 A 
ATOM     25  C   UNL     1       2.901   6.355  19.457  0.00  0.00    +0.000 A 
ATOM     26  C   UNL     1       2.023   7.220  20.144  0.00  0.00    +0.000 A 
ATOM     27  C   UNL     1       1.573   8.416  19.553  0.00  0.00    +0.000 A 
ATOM     28  C   UNL     1       1.970   8.700  18.251  0.00  0.00    +0.000 A 
ATOM     29  C   UNL     1       2.842   7.841  17.571  0.00  0.00    +0.000 A 
BRANCH  24  33
ATOM     30  C   UNL     1       6.848   4.750  14.947  0.00  0.00    +0.000 C 
ATOM     31  C   UNL     1       5.862   5.072  16.002  0.00  0.00    +0.000 A 
ATOM     32  C   UNL     1       5.142   6.208  16.312  0.00  0.00    +0.000 A 
ATOM     33  C   UNL     1       4.341   5.870  17.440  0.00  0.00    +0.000 A 
ATOM     34  N   UNL     1       4.583   4.596  17.807  0.00  0.00    +0.000 NA
ATOM     35  N   UNL     1       5.485   4.146  16.931  0.00  0.00    +0.000 N 
ATOM     36  H   UNL     1       5.798   3.186  17.021  0.00  0.00    +0.000 HD
ENDBRANCH  24  33
ENDBRANCH  22  27
ENDBRANCH   1  22
TORSDOF 5
ENDMDL
MODEL 7
REMARK VINA RESULT:      -8.5      4.270      7.359
REMARK  Name = 
REMARK  6 active torsions:
REMARK  status: ('A' for Active; 'I' for Inactive)
REMARK    1  A    between atoms: C_1  and  C_2
REMARK    2  A    between atoms: C_4  and  C_5
REMARK    3  A    between atoms: C_8  and  C_9
REMARK    4  A    between atoms: C_9  and  C_11
REMARK    5  A    between atoms: C_16  and  C_17
REMARK    6  A    between atoms: N_19  and  C_20
REMARK                            x       y       z     vdW  Elec       q    Type
REMARK                         _______ _______ _______ _____ _____    ______ ____
ROOT
ATOM      1  C   UNL     1      -1.018  11.018  19.934  0.00  0.00    +0.000 C 
ATOM      2  C   UNL     1      -1.676   9.966  19.024  0.00  0.00    +0.000 C 
ATOM      3  C   UNL     1      -1.551  10.232  17.523  0.00  0.00    +0.000 C 
ATOM      4  C   UNL     1      -1.776  11.680  17.104  0.00  0.00    +0.000 C 
ATOM      5  C   UNL     1      -1.158  12.707  18.052  0.00  0.00    +0.000 C 
ATOM      6  C   UNL     1      -1.469  12.437  19.532  0.00  0.00    +0.000 C 
ENDROOT
BRANCH   6   7
ATOM      7  C   UNL     1      -2.968  12.665  19.828  0.00  0.00    +0.000 C 
ATOM      8  O   UNL     1      -3.845  11.921  19.396  0.00  0.00    +0.000 OA
ATOM      9  N   UNL     1      -3.227  13.775  20.598  0.00  0.00    +0.000 N 
ATOM     10  H   UNL     1      -2.514  14.487  20.726  0.00  0.00    +0.000 HD
BRANCH   9  11
ATOM     11  C   UNL     1      -4.487  14.104  21.071  0.00  0.00    +0.000 A 
ATOM     12  C   UNL     1      -5.498  14.959  20.563  0.00  0.00    +0.000 A 
ATOM     13  N   UNL     1      -6.584  14.987  21.349  0.00  0.00    +0.000 NA
ATOM     14  N   UNL     1      -6.247  14.173  22.358  0.00  0.00    +0.000 N 
ATOM     15  C   UNL     1      -5.008  13.615  22.248  0.00  0.00    +0.000 A 
ATOM     16  C   UNL     1      -4.434  12.774  23.256  0.00  0.00    +0.000 C 
ATOM     17  O   UNL     1      -3.308  12.294  23.186  0.00  0.00    +0.000 OA
ATOM     18  N   UNL     1      -5.242  12.557  24.348  0.00  0.00    +0.000 N 
ATOM     19  C   UNL     1      -6.685  12.741  24.276  0.00  0.00    +0.000 C 
ATOM     20  C   UNL     1      -7.101  14.002  23.519  0.00  0.00    +0.000 C 
ATOM     21  H   UNL     1      -4.851  11.911  25.025  0.00  0.00    +0.000 HD
ENDBRANCH   9  11
ENDBRANCH   6   7
BRANCH   1  22
ATOM     22  C   UNL     1       0.524  10.882  19.974  0.00  0.00    +0.000 C 
ATOM     23  O   UNL     1       1.241  11.781  20.407  0.00  0.00    +0.000 OA
BRANCH  22  27
ATOM     24  C   UNL     1       2.590   7.308  18.596  0.00  0.00    +0.000 A 
ATOM     25  C   UNL     1       2.019   7.363  19.874  0.00  0.00    +0.000 A 
ATOM     26  C   UNL     1       1.325   8.515  20.298  0.00  0.00    +0.000 A 
ATOM     27  C   UNL     1       1.190   9.633  19.452  0.00  0.00    +0.000 A 
ATOM     28  C   UNL     1       1.710   9.554  18.165  0.00  0.00    +0.000 A 
ATOM     29  C   UNL     1       2.399   8.410  17.747  0.00  0.00    +0.000 A 
BRANCH  24  33
ATOM     30  C   UNL     1       5.784   4.092  16.187  0.00  0.00    +0.000 C 
ATOM     31  C   UNL     1       4.816   4.813  17.043  0.00  0.00    +0.000 A 
ATOM     32  C   UNL     1       4.379   6.122  17.085  0.00  0.00    +0.000 A 
ATOM     33  C   UNL     1       3.417   6.181  18.134  0.00  0.00    +0.000 A 
ATOM     34  N   UNL     1       3.295   4.970  18.711  0.00  0.00    +0.000 NA
ATOM     35  N   UNL     1       4.133   4.177  18.038  0.00  0.00    +0.000 N 
ATOM     36  H   UNL     1       4.184   3.201  18.307  0.00  0.00    +0.000 HD
ENDBRANCH  24  33
ENDBRANCH  22  27
ENDBRANCH   1  22
TORSDOF 5
ENDMDL
MODEL 8
REMARK VINA RESULT:      -8.5      4.933      8.094
REMARK  Name = 
REMARK  6 active torsions:
REMARK  status: ('A' for Active; 'I' for Inactive)
REMARK    1  A    between atoms: C_1  and  C_2
REMARK    2  A    between atoms: C_4  and  C_5
REMARK    3  A    between atoms: C_8  and  C_9
REMARK    4  A    between atoms: C_9  and  C_11
REMARK    5  A    between atoms: C_16  and  C_17
REMARK    6  A    between atoms: N_19  and  C_20
REMARK                            x       y       z     vdW  Elec       q    Type
REMARK                         _______ _______ _______ _____ _____    ______ ____
ROOT
ATOM      1  C   UNL     1       1.088  12.549  20.803  0.00  0.00    +0.000 C 
ATOM      2  C   UNL     1       0.278  13.643  21.522  0.00  0.00    +0.000 C 
ATOM      3  C   UNL     1      -0.620  14.489  20.619  0.00  0.00    +0.000 C 
ATOM      4  C   UNL     1       0.010  14.914  19.297  0.00  0.00    +0.000 C 
ATOM      5  C   UNL     1       0.852  13.828  18.630  0.00  0.00    +0.000 C 
ATOM      6  C   UNL     1       1.834  13.139  19.590  0.00  0.00    +0.000 C 
ENDROOT
BRANCH   6   7
ATOM      7  C   UNL     1       2.950  14.115  20.025  0.00  0.00    +0.000 C 
ATOM      8  O   UNL     1       3.544  14.002  21.094  0.00  0.00    +0.000 OA
ATOM      9  N   UNL     1       3.204  15.120  19.120  0.00  0.00    +0.000 N 
ATOM     10  H   UNL     1       2.539  15.321  18.379  0.00  0.00    +0.000 HD
BRANCH   9  11
ATOM     11  C   UNL     1       4.234  16.036  19.259  0.00  0.00    +0.000 A 
ATOM     12  C   UNL     1       4.296  17.306  19.887  0.00  0.00    +0.000 A 
ATOM     13  N   UNL     1       5.511  17.865  19.788  0.00  0.00    +0.000 NA
ATOM     14  N   UNL     1       6.201  16.961  19.080  0.00  0.00    +0.000 N 
ATOM     15  C   UNL     1       5.493  15.848  18.736  0.00  0.00    +0.000 A 
ATOM     16  C   UNL     1       6.029  14.799  17.919  0.00  0.00    +0.000 C 
ATOM     17  O   UNL     1       5.392  13.809  17.574  0.00  0.00    +0.000 OA
ATOM     18  N   UNL     1       7.330  14.994  17.517  0.00  0.00    +0.000 N 
ATOM     19  C   UNL     1       8.220  15.898  18.232  0.00  0.00    +0.000 C 
ATOM     20  C   UNL     1       7.557  17.217  18.630  0.00  0.00    +0.000 C 
ATOM     21  H   UNL     1       7.716  14.217  16.993  0.00  0.00    +0.000 HD
ENDBRANCH   9  11
ENDBRANCH   6   7
BRANCH   1  22
ATOM     22  C   UNL     1       0.217  11.328  20.418  0.00  0.00    +0.000 C 
ATOM     23  O   UNL     1      -0.992  11.303  20.632  0.00  0.00    +0.000 OA
BRANCH  22  27
ATOM     24  C   UNL     1       2.207   7.866  18.685  0.00  0.00    +0.000 A 
ATOM     25  C   UNL     1       1.864   7.896  20.043  0.00  0.00    +0.000 A 
ATOM     26  C   UNL     1       1.191   9.010  20.587  0.00  0.00    +0.000 A 
ATOM     27  C   UNL     1       0.850  10.115  19.782  0.00  0.00    +0.000 A 
ATOM     28  C   UNL     1       1.143  10.058  18.424  0.00  0.00    +0.000 A 
ATOM     29  C   UNL     1       1.811   8.951  17.887  0.00  0.00    +0.000 A 
BRANCH  24  33
ATOM     30  C   UNL     1       4.260   3.434  17.110  0.00  0.00    +0.000 C 
ATOM     31  C   UNL     1       3.866   4.825  17.427  0.00  0.00    +0.000 A 
ATOM     32  C   UNL     1       2.792   5.377  18.095  0.00  0.00    +0.000 A 
ATOM     33  C   UNL     1       3.003   6.785  18.081  0.00  0.00    +0.000 A 
ATOM     34  N   UNL     1       4.141   7.071  17.418  0.00  0.00    +0.000 NA
ATOM     35  N   UNL     1       4.634   5.886  17.048  0.00  0.00    +0.000 N 
ATOM     36  H   UNL     1       5.512   5.875  16.540  0.00  0.00    +0.000 HD
ENDBRANCH  24  33
ENDBRANCH  22  27
ENDBRANCH   1  22
TORSDOF 5
ENDMDL
MODEL 9
REMARK VINA RESULT:      -8.4      4.127      7.153
REMARK  Name = 
REMARK  6 active torsions:
REMARK  status: ('A' for Active; 'I' for Inactive)
REMARK    1  A    between atoms: C_1  and  C_2
REMARK    2  A    between atoms: C_4  and  C_5
REMARK    3  A    between atoms: C_8  and  C_9
REMARK    4  A    between atoms: C_9  and  C_11
REMARK    5  A    between atoms: C_16  and  C_17
REMARK    6  A    between atoms: N_19  and  C_20
REMARK                            x       y       z     vdW  Elec       q    Type
REMARK                         _______ _______ _______ _____ _____    ______ ____
ROOT
ATOM      1  C   UNL     1      -0.228  10.926  19.839  0.00  0.00    +0.000 C 
ATOM      2  C   UNL     1      -1.250   9.898  19.322  0.00  0.00    +0.000 C 
ATOM      3  C   UNL     1      -1.807  10.178  17.926  0.00  0.00    +0.000 C 
ATOM      4  C   UNL     1      -2.161  11.635  17.652  0.00  0.00    +0.000 C 
ATOM      5  C   UNL     1      -1.160  12.638  18.221  0.00  0.00    +0.000 C 
ATOM      6  C   UNL     1      -0.778  12.358  19.683  0.00  0.00    +0.000 C 
ENDROOT
BRANCH   6   7
ATOM      7  C   UNL     1      -1.978  12.615  20.621  0.00  0.00    +0.000 C 
ATOM      8  O   UNL     1      -2.171  11.955  21.639  0.00  0.00    +0.000 OA
ATOM      9  N   UNL     1      -2.809  13.630  20.207  0.00  0.00    +0.000 N 
ATOM     10  H   UNL     1      -2.755  13.979  19.255  0.00  0.00    +0.000 HD
BRANCH   9  11
ATOM     11  C   UNL     1      -3.879  14.098  20.953  0.00  0.00    +0.000 A 
ATOM     12  C   UNL     1      -3.971  15.091  21.961  0.00  0.00    +0.000 A 
ATOM     13  N   UNL     1      -5.221  15.231  22.426  0.00  0.00    +0.000 NA
ATOM     14  N   UNL     1      -5.906  14.312  21.731  0.00  0.00    +0.000 N 
ATOM     15  C   UNL     1      -5.159  13.605  20.836  0.00  0.00    +0.000 A 
ATOM     16  C   UNL     1      -5.689  12.531  20.049  0.00  0.00    +0.000 C 
ATOM     17  O   UNL     1      -5.020  11.865  19.265  0.00  0.00    +0.000 OA
ATOM     18  N   UNL     1      -7.024  12.274  20.255  0.00  0.00    +0.000 N 
ATOM     19  C   UNL     1      -7.913  13.278  20.824  0.00  0.00    +0.000 C 
ATOM     20  C   UNL     1      -7.303  14.032  22.006  0.00  0.00    +0.000 C 
ATOM     21  H   UNL     1      -7.401  11.555  19.648  0.00  0.00    +0.000 HD
ENDBRANCH   9  11
ENDBRANCH   6   7
BRANCH   1  22
ATOM     22  C   UNL     1       1.164  10.758  19.181  0.00  0.00    +0.000 C 
ATOM     23  O   UNL     1       1.819  11.724  18.800  0.00  0.00    +0.000 OA
BRANCH  22  27
ATOM     24  C   UNL     1       2.686   6.747  18.448  0.00  0.00    +0.000 A 
ATOM     25  C   UNL     1       2.731   7.728  17.449  0.00  0.00    +0.000 A 
ATOM     26  C   UNL     1       2.264   9.034  17.708  0.00  0.00    +0.000 A 
ATOM     27  C   UNL     1       1.742   9.380  18.970  0.00  0.00    +0.000 A 
ATOM     28  C   UNL     1       1.750   8.419  19.975  0.00  0.00    +0.000 A 
ATOM     29  C   UNL     1       2.214   7.124  19.715  0.00  0.00    +0.000 A 
BRANCH  24  33
ATOM     30  C   UNL     1       3.255   1.646  18.441  0.00  0.00    +0.000 C 
ATOM     31  C   UNL     1       3.275   3.113  18.251  0.00  0.00    +0.000 A 
ATOM     32  C   UNL     1       2.531   4.148  18.782  0.00  0.00    +0.000 A 
ATOM     33  C   UNL     1       3.056   5.342  18.210  0.00  0.00    +0.000 A 
ATOM     34  N   UNL     1       4.056   5.040  17.357  0.00  0.00    +0.000 NA
ATOM     35  N   UNL     1       4.167   3.710  17.409  0.00  0.00    +0.000 N 
ATOM     36  H   UNL     1       4.885   3.271  16.843  0.00  0.00    +0.000 HD
ENDBRANCH  24  33
ENDBRANCH  22  27
ENDBRANCH   1  22
TORSDOF 5
ENDMDL
