MODEL 1
REMARK VINA RESULT:      -7.0      0.000      0.000
REMARK  Name = 
REMARK  9 active torsions:
REMARK  status: ('A' for Active; 'I' for Inactive)
REMARK    1  A    between atoms: C_1  and  C_2
REMARK    2  A    between atoms: C_2  and  C_3
REMARK    3  A    between atoms: C_3  and  C_4
REMARK    4  A    between atoms: C_9  and  C_10
REMARK    5  A    between atoms: C_10  and  C_11
REMARK    6  A    between atoms: C_14  and  O_15
REMARK    7  A    between atoms: O_15  and  C_16
REMARK    8  A    between atoms: C_19  and  C_20
REMARK    9  A    between atoms: C_22  and  O_23
REMARK                            x       y       z     vdW  Elec       q    Type
REMARK                         _______ _______ _______ _____ _____    ______ ____
ROOT
ATOM      1  C   UNL     1       3.291   4.721  19.277  0.00  0.00    +0.000 A 
ATOM      2  C   UNL     1       3.721   5.058  17.982  0.00  0.00    +0.000 A 
ATOM      3  C   UNL     1       3.482   6.320  17.431  0.00  0.00    +0.000 A 
ATOM      4  C   UNL     1       2.782   7.227  18.223  0.00  0.00    +0.000 A 
ATOM      5  O   UNL     1       2.470   8.497  17.856  0.00  0.00    +0.000 OA
ATOM      6  C   UNL     1       1.781   9.061  18.888  0.00  0.00    +0.000 A 
ATOM      7  C   UNL     1       1.647   8.158  19.933  0.00  0.00    +0.000 A 
ATOM      8  C   UNL     1       0.960   8.406  21.225  0.00  0.00    +0.000 C 
ATOM      9  C   UNL     1       2.309   6.956  19.502  0.00  0.00    +0.000 A 
ATOM     10  C   UNL     1       2.577   5.673  20.034  0.00  0.00    +0.000 A 
ENDROOT
BRANCH  10  11
ATOM     11  O   UNL     1       2.162   5.306  21.294  0.00  0.00    +0.000 OA
ATOM     12  H   UNL     1       2.643   4.503  21.546  0.00  0.00    +0.000 HD
ENDBRANCH  10  11
BRANCH   1  13
ATOM     13  C   UNL     1       3.604   3.345  19.828  0.00  0.00    +0.000 C 
BRANCH  13  15
ATOM     14  C   UNL     1       1.375   2.418  19.096  0.00  0.00    +0.000 C 
ATOM     15  C   UNL     1       2.883   2.235  19.056  0.00  0.00    +0.000 C 
ENDBRANCH  13  15
ENDBRANCH   1  13
BRANCH   6  16
ATOM     16  C   UNL     1       1.354  10.476  18.693  0.00  0.00    +0.000 C 
BRANCH  16  17
ATOM     17  C   UNL     1      -0.142  10.644  18.546  0.00  0.00    +0.000 A 
ATOM     18  C   UNL     1      -0.847  11.561  19.338  0.00  0.00    +0.000 A 
ATOM     19  C   UNL     1      -2.224  11.731  19.167  0.00  0.00    +0.000 A 
ATOM     20  C   UNL     1      -2.915  11.006  18.196  0.00  0.00    +0.000 A 
ATOM     21  C   UNL     1      -2.226  10.077  17.418  0.00  0.00    +0.000 A 
ATOM     22  C   UNL     1      -0.850   9.900  17.591  0.00  0.00    +0.000 A 
BRANCH  20  23
ATOM     23  O   UNL     1      -4.260  11.247  18.126  0.00  0.00    +0.000 OA
ATOM     24  C   UNL     1      -4.761  11.554  16.828  0.00  0.00    +0.000 C 
ENDBRANCH  20  23
ENDBRANCH  16  17
ENDBRANCH   6  16
TORSDOF 6
ENDMDL
MODEL 2
REMARK VINA RESULT:      -6.9      0.816      1.357
REMARK  Name = 
REMARK  9 active torsions:
REMARK  status: ('A' for Active; 'I' for Inactive)
REMARK    1  A    between atoms: C_1  and  C_2
REMARK    2  A    between atoms: C_2  and  C_3
REMARK    3  A    between atoms: C_3  and  C_4
REMARK    4  A    between atoms: C_9  and  C_10
REMARK    5  A    between atoms: C_10  and  C_11
REMARK    6  A    between atoms: C_14  and  O_15
REMARK    7  A    between atoms: O_15  and  C_16
REMARK    8  A    between atoms: C_19  and  C_20
REMARK    9  A    between atoms: C_22  and  O_23
REMARK                            x       y       z     vdW  Elec       q    Type
REMARK                         _______ _______ _______ _____ _____    ______ ____
ROOT
ATOM      1  C   UNL     1       3.382   5.524  19.005  0.00  0.00    +0.000 A 
ATOM      2  C   UNL     1       3.773   6.056  17.765  0.00  0.00    +0.000 A 
ATOM      3  C   UNL     1       3.368   7.327  17.347  0.00  0.00    +0.000 A 
ATOM      4  C   UNL     1       2.543   8.038  18.214  0.00  0.00    +0.000 A 
ATOM      5  O   UNL     1       2.064   9.287  17.979  0.00  0.00    +0.000 OA
ATOM      6  C   UNL     1       1.294   9.635  19.048  0.00  0.00    +0.000 A 
ATOM      7  C   UNL     1       1.276   8.613  19.987  0.00  0.00    +0.000 A 
ATOM      8  C   UNL     1       0.550   8.623  21.280  0.00  0.00    +0.000 C 
ATOM      9  C   UNL     1       2.100   7.567  19.446  0.00  0.00    +0.000 A 
ATOM     10  C   UNL     1       2.537   6.281  19.842  0.00  0.00    +0.000 A 
ENDROOT
BRANCH  10  11
ATOM     11  O   UNL     1       2.164   5.725  21.046  0.00  0.00    +0.000 OA
ATOM     12  H   UNL     1       2.091   4.767  20.922  0.00  0.00    +0.000 HD
ENDBRANCH  10  11
BRANCH   1  13
ATOM     13  C   UNL     1       3.875   4.150  19.412  0.00  0.00    +0.000 C 
BRANCH  13  15
ATOM     14  C   UNL     1       3.624   1.798  18.534  0.00  0.00    +0.000 C 
ATOM     15  C   UNL     1       2.894   3.042  19.017  0.00  0.00    +0.000 C 
ENDBRANCH  13  15
ENDBRANCH   1  13
BRANCH   6  16
ATOM     16  C   UNL     1       0.680  10.993  18.996  0.00  0.00    +0.000 C 
BRANCH  16  17
ATOM     17  C   UNL     1      -0.777  10.985  18.588  0.00  0.00    +0.000 A 
ATOM     18  C   UNL     1      -1.255  10.070  17.640  0.00  0.00    +0.000 A 
ATOM     19  C   UNL     1      -2.610  10.050  17.297  0.00  0.00    +0.000 A 
ATOM     20  C   UNL     1      -3.510  10.927  17.904  0.00  0.00    +0.000 A 
ATOM     21  C   UNL     1      -3.040  11.853  18.833  0.00  0.00    +0.000 A 
ATOM     22  C   UNL     1      -1.684  11.880  19.173  0.00  0.00    +0.000 A 
BRANCH  20  23
ATOM     23  O   UNL     1      -4.808  10.824  17.484  0.00  0.00    +0.000 OA
ATOM     24  C   UNL     1      -5.523  12.052  17.396  0.00  0.00    +0.000 C 
ENDBRANCH  20  23
ENDBRANCH  16  17
ENDBRANCH   6  16
TORSDOF 6
ENDMDL
MODEL 3
REMARK VINA RESULT:      -6.8      2.339      8.046
REMARK  Name = 
REMARK  9 active torsions:
REMARK  status: ('A' for Active; 'I' for Inactive)
REMARK    1  A    between atoms: C_1  and  C_2
REMARK    2  A    between atoms: C_2  and  C_3
REMARK    3  A    between atoms: C_3  and  C_4
REMARK    4  A    between atoms: C_9  and  C_10
REMARK    5  A    between atoms: C_10  and  C_11
REMARK    6  A    between atoms: C_14  and  O_15
REMARK    7  A    between atoms: O_15  and  C_16
REMARK    8  A    between atoms: C_19  and  C_20
REMARK    9  A    between atoms: C_22  and  O_23
REMARK                            x       y       z     vdW  Elec       q    Type
REMARK                         _______ _______ _______ _____ _____    ______ ____
ROOT
ATOM      1  C   UNL     1       0.512  10.246  19.584  0.00  0.00    +0.000 A 
ATOM      2  C   UNL     1       0.156   9.670  20.815  0.00  0.00    +0.000 A 
ATOM      3  C   UNL     1       0.662   8.434  21.225  0.00  0.00    +0.000 A 
ATOM      4  C   UNL     1       1.529   7.790  20.346  0.00  0.00    +0.000 A 
ATOM      5  O   UNL     1       2.124   6.591  20.581  0.00  0.00    +0.000 OA
ATOM      6  C   UNL     1       2.885   6.294  19.491  0.00  0.00    +0.000 A 
ATOM      7  C   UNL     1       2.792   7.304  18.544  0.00  0.00    +0.000 A 
ATOM      8  C   UNL     1       3.477   7.338  17.228  0.00  0.00    +0.000 C 
ATOM      9  C   UNL     1       1.909   8.290  19.105  0.00  0.00    +0.000 A 
ATOM     10  C   UNL     1       1.386   9.548  18.726  0.00  0.00    +0.000 A 
ENDROOT
BRANCH  10  11
ATOM     11  O   UNL     1       1.705  10.137  17.522  0.00  0.00    +0.000 OA
ATOM     12  H   UNL     1       1.197  10.959  17.447  0.00  0.00    +0.000 HD
ENDBRANCH  10  11
BRANCH   1  13
ATOM     13  C   UNL     1      -0.052  11.602  19.209  0.00  0.00    +0.000 C 
BRANCH  13  15
ATOM     14  C   UNL     1      -2.030  10.675  17.946  0.00  0.00    +0.000 C 
ATOM     15  C   UNL     1      -1.578  11.579  19.082  0.00  0.00    +0.000 C 
ENDBRANCH  13  15
ENDBRANCH   1  13
BRANCH   6  16
ATOM     16  C   UNL     1       3.644   5.011  19.554  0.00  0.00    +0.000 C 
BRANCH  16  17
ATOM     17  C   UNL     1       4.730   4.897  18.508  0.00  0.00    +0.000 A 
ATOM     18  C   UNL     1       4.480   4.283  17.273  0.00  0.00    +0.000 A 
ATOM     19  C   UNL     1       5.483   4.215  16.301  0.00  0.00    +0.000 A 
ATOM     20  C   UNL     1       6.740   4.771  16.537  0.00  0.00    +0.000 A 
ATOM     21  C   UNL     1       7.004   5.364  17.770  0.00  0.00    +0.000 A 
ATOM     22  C   UNL     1       6.005   5.428  18.746  0.00  0.00    +0.000 A 
BRANCH  20  23
ATOM     23  O   UNL     1       7.645   4.636  15.519  0.00  0.00    +0.000 OA
ATOM     24  C   UNL     1       7.108   4.740  14.204  0.00  0.00    +0.000 C 
ENDBRANCH  20  23
ENDBRANCH  16  17
ENDBRANCH   6  16
TORSDOF 6
ENDMDL
MODEL 4
REMARK VINA RESULT:      -6.8      2.757      7.938
REMARK  Name = 
REMARK  9 active torsions:
REMARK  status: ('A' for Active; 'I' for Inactive)
REMARK    1  A    between atoms: C_1  and  C_2
REMARK    2  A    between atoms: C_2  and  C_3
REMARK    3  A    between atoms: C_3  and  C_4
REMARK    4  A    between atoms: C_9  and  C_10
REMARK    5  A    between atoms: C_10  and  C_11
REMARK    6  A    between atoms: C_14  and  O_15
REMARK    7  A    between atoms: O_15  and  C_16
REMARK    8  A    between atoms: C_19  and  C_20
REMARK    9  A    between atoms: C_22  and  O_23
REMARK                            x       y       z     vdW  Elec       q    Type
REMARK                         _______ _______ _______ _____ _____    ______ ____
ROOT
ATOM      1  C   UNL     1       1.009   9.502  19.760  0.00  0.00    +0.000 A 
ATOM      2  C   UNL     1       1.485   9.791  18.470  0.00  0.00    +0.000 A 
ATOM      3  C   UNL     1       2.209   8.855  17.725  0.00  0.00    +0.000 A 
ATOM      4  C   UNL     1       2.450   7.624  18.330  0.00  0.00    +0.000 A 
ATOM      5  O   UNL     1       3.123   6.595  17.753  0.00  0.00    +0.000 OA
ATOM      6  C   UNL     1       3.157   5.575  18.656  0.00  0.00    +0.000 A 
ATOM      7  C   UNL     1       2.498   5.936  19.822  0.00  0.00    +0.000 A 
ATOM      8  C   UNL     1       2.325   5.092  21.030  0.00  0.00    +0.000 C 
ATOM      9  C   UNL     1       2.027   7.277  19.609  0.00  0.00    +0.000 A 
ATOM     10  C   UNL     1       1.288   8.244  20.331  0.00  0.00    +0.000 A 
ENDROOT
BRANCH  10  11
ATOM     11  O   UNL     1       0.815   7.999  21.601  0.00  0.00    +0.000 OA
ATOM     12  H   UNL     1       1.007   8.776  22.147  0.00  0.00    +0.000 HD
ENDBRANCH  10  11
BRANCH   1  13
ATOM     13  C   UNL     1       0.208  10.550  20.506  0.00  0.00    +0.000 C 
BRANCH  13  15
ATOM     14  C   UNL     1      -1.739  11.607  19.298  0.00  0.00    +0.000 C 
ATOM     15  C   UNL     1      -0.249  11.690  19.591  0.00  0.00    +0.000 C 
ENDBRANCH  13  15
ENDBRANCH   1  13
BRANCH   6  16
ATOM     16  C   UNL     1       3.846   4.330  18.209  0.00  0.00    +0.000 C 
BRANCH  16  17
ATOM     17  C   UNL     1       4.965   4.576  17.222  0.00  0.00    +0.000 A 
ATOM     18  C   UNL     1       4.856   4.159  15.888  0.00  0.00    +0.000 A 
ATOM     19  C   UNL     1       5.884   4.424  14.978  0.00  0.00    +0.000 A 
ATOM     20  C   UNL     1       7.025   5.122  15.377  0.00  0.00    +0.000 A 
ATOM     21  C   UNL     1       7.150   5.522  16.706  0.00  0.00    +0.000 A 
ATOM     22  C   UNL     1       6.127   5.253  17.620  0.00  0.00    +0.000 A 
BRANCH  20  23
ATOM     23  O   UNL     1       7.968   5.315  14.405  0.00  0.00    +0.000 OA
ATOM     24  C   UNL     1       7.555   4.999  13.078  0.00  0.00    +0.000 C 
ENDBRANCH  20  23
ENDBRANCH  16  17
ENDBRANCH   6  16
TORSDOF 6
ENDMDL
MODEL 5
REMARK VINA RESULT:      -6.6      1.326      1.971
REMARK  Name = 
REMARK  9 active torsions:
REMARK  status: ('A' for Active; 'I' for Inactive)
REMARK    1  A    between atoms: C_1  and  C_2
REMARK    2  A    between atoms: C_2  and  C_3
REMARK    3  A    between atoms: C_3  and  C_4
REMARK    4  A    between atoms: C_9  and  C_10
REMARK    5  A    between atoms: C_10  and  C_11
REMARK    6  A    between atoms: C_14  and  O_15
REMARK    7  A    between atoms: O_15  and  C_16
REMARK    8  A    between atoms: C_19  and  C_20
REMARK    9  A    between atoms: C_22  and  O_23
REMARK                            x       y       z     vdW  Elec       q    Type
REMARK                         _______ _______ _______ _____ _____    ______ ____
ROOT
ATOM      1  C   UNL     1       3.129   6.503  18.961  0.00  0.00    +0.000 A 
ATOM      2  C   UNL     1       3.350   7.217  17.771  0.00  0.00    +0.000 A 
ATOM      3  C   UNL     1       2.722   8.440  17.517  0.00  0.00    +0.000 A 
ATOM      4  C   UNL     1       1.851   8.912  18.496  0.00  0.00    +0.000 A 
ATOM      5  O   UNL     1       1.165  10.082  18.424  0.00  0.00    +0.000 OA
ATOM      6  C   UNL     1       0.419  10.186  19.560  0.00  0.00    +0.000 A 
ATOM      7  C   UNL     1       0.625   9.084  20.378  0.00  0.00    +0.000 A 
ATOM      8  C   UNL     1      -0.010   8.841  21.697  0.00  0.00    +0.000 C 
ATOM      9  C   UNL     1       1.569   8.250  19.686  0.00  0.00    +0.000 A 
ATOM     10  C   UNL     1       2.229   7.021  19.916  0.00  0.00    +0.000 A 
ENDROOT
BRANCH  10  11
ATOM     11  O   UNL     1       2.028   6.290  21.065  0.00  0.00    +0.000 OA
ATOM     12  H   UNL     1       2.146   5.353  20.849  0.00  0.00    +0.000 HD
ENDBRANCH  10  11
BRANCH   1  13
ATOM     13  C   UNL     1       3.860   5.196  19.188  0.00  0.00    +0.000 C 
BRANCH  13  15
ATOM     14  C   UNL     1       4.622   3.778  17.245  0.00  0.00    +0.000 C 
ATOM     15  C   UNL     1       3.464   4.126  18.166  0.00  0.00    +0.000 C 
ENDBRANCH  13  15
ENDBRANCH   1  13
BRANCH   6  16
ATOM     16  C   UNL     1      -0.406  11.422  19.689  0.00  0.00    +0.000 C 
BRANCH  16  17
ATOM     17  C   UNL     1      -1.799  11.283  19.118  0.00  0.00    +0.000 A 
ATOM     18  C   UNL     1      -2.824  12.162  19.493  0.00  0.00    +0.000 A 
ATOM     19  C   UNL     1      -4.099  12.044  18.931  0.00  0.00    +0.000 A 
ATOM     20  C   UNL     1      -4.367  11.062  17.976  0.00  0.00    +0.000 A 
ATOM     21  C   UNL     1      -3.359  10.170  17.613  0.00  0.00    +0.000 A 
ATOM     22  C   UNL     1      -2.085  10.282  18.178  0.00  0.00    +0.000 A 
BRANCH  20  23
ATOM     23  O   UNL     1      -5.650  11.034  17.503  0.00  0.00    +0.000 OA
ATOM     24  C   UNL     1      -6.669  10.962  18.497  0.00  0.00    +0.000 C 
ENDBRANCH  20  23
ENDBRANCH  16  17
ENDBRANCH   6  16
TORSDOF 6
ENDMDL
MODEL 6
REMARK VINA RESULT:      -6.6      2.828      7.950
REMARK  Name = 
REMARK  9 active torsions:
REMARK  status: ('A' for Active; 'I' for Inactive)
REMARK    1  A    between atoms: C_1  and  C_2
REMARK    2  A    between atoms: C_2  and  C_3
REMARK    3  A    between atoms: C_3  and  C_4
REMARK    4  A    between atoms: C_9  and  C_10
REMARK    5  A    between atoms: C_10  and  C_11
REMARK    6  A    between atoms: C_14  and  O_15
REMARK    7  A    between atoms: O_15  and  C_16
REMARK    8  A    between atoms: C_19  and  C_20
REMARK    9  A    between atoms: C_22  and  O_23
REMARK                            x       y       z     vdW  Elec       q    Type
REMARK                         _______ _______ _______ _____ _____    ______ ____
ROOT
ATOM      1  C   UNL     1       0.958   9.456  19.710  0.00  0.00    +0.000 A 
ATOM      2  C   UNL     1       1.447   9.771  18.431  0.00  0.00    +0.000 A 
ATOM      3  C   UNL     1       2.211   8.865  17.690  0.00  0.00    +0.000 A 
ATOM      4  C   UNL     1       2.479   7.636  18.288  0.00  0.00    +0.000 A 
ATOM      5  O   UNL     1       3.193   6.633  17.714  0.00  0.00    +0.000 OA
ATOM      6  C   UNL     1       3.243   5.606  18.608  0.00  0.00    +0.000 A 
ATOM      7  C   UNL     1       2.554   5.937  19.766  0.00  0.00    +0.000 A 
ATOM      8  C   UNL     1       2.387   5.076  20.963  0.00  0.00    +0.000 C 
ATOM      9  C   UNL     1       2.046   7.265  19.557  0.00  0.00    +0.000 A 
ATOM     10  C   UNL     1       1.266   8.202  20.275  0.00  0.00    +0.000 A 
ENDROOT
BRANCH  10  11
ATOM     11  O   UNL     1       0.780   7.931  21.534  0.00  0.00    +0.000 OA
ATOM     12  H   UNL     1      -0.163   8.156  21.546  0.00  0.00    +0.000 HD
ENDBRANCH  10  11
BRANCH   1  13
ATOM     13  C   UNL     1       0.113  10.472  20.452  0.00  0.00    +0.000 C 
BRANCH  13  15
ATOM     14  C   UNL     1      -1.380  12.476  20.105  0.00  0.00    +0.000 C 
ATOM     15  C   UNL     1      -0.151  11.728  19.614  0.00  0.00    +0.000 C 
ENDBRANCH  13  15
ENDBRANCH   1  13
BRANCH   6  16
ATOM     16  C   UNL     1       3.977   4.387  18.162  0.00  0.00    +0.000 C 
BRANCH  16  17
ATOM     17  C   UNL     1       5.011   4.658  17.092  0.00  0.00    +0.000 A 
ATOM     18  C   UNL     1       6.264   5.195  17.419  0.00  0.00    +0.000 A 
ATOM     19  C   UNL     1       7.223   5.408  16.425  0.00  0.00    +0.000 A 
ATOM     20  C   UNL     1       6.956   5.076  15.096  0.00  0.00    +0.000 A 
ATOM     21  C   UNL     1       5.706   4.562  14.759  0.00  0.00    +0.000 A 
ATOM     22  C   UNL     1       4.742   4.353  15.750  0.00  0.00    +0.000 A 
BRANCH  20  23
ATOM     23  O   UNL     1       7.965   5.338  14.209  0.00  0.00    +0.000 OA
ATOM     24  C   UNL     1       7.703   4.972  12.858  0.00  0.00    +0.000 C 
ENDBRANCH  20  23
ENDBRANCH  16  17
ENDBRANCH   6  16
TORSDOF 6
ENDMDL
MODEL 7
REMARK VINA RESULT:      -6.6      1.561      7.875
REMARK  Name = 
REMARK  9 active torsions:
REMARK  status: ('A' for Active; 'I' for Inactive)
REMARK    1  A    between atoms: C_1  and  C_2
REMARK    2  A    between atoms: C_2  and  C_3
REMARK    3  A    between atoms: C_3  and  C_4
REMARK    4  A    between atoms: C_9  and  C_10
REMARK    5  A    between atoms: C_10  and  C_11
REMARK    6  A    between atoms: C_14  and  O_15
REMARK    7  A    between atoms: O_15  and  C_16
REMARK    8  A    between atoms: C_19  and  C_20
REMARK    9  A    between atoms: C_22  and  O_23
REMARK                            x       y       z     vdW  Elec       q    Type
REMARK                         _______ _______ _______ _____ _____    ______ ____
ROOT
ATOM      1  C   UNL     1      -3.991  11.528  18.343  0.00  0.00    +0.000 A 
ATOM      2  C   UNL     1      -4.032  10.453  17.439  0.00  0.00    +0.000 A 
ATOM      3  C   UNL     1      -2.884   9.734  17.095  0.00  0.00    +0.000 A 
ATOM      4  C   UNL     1      -1.689  10.143  17.682  0.00  0.00    +0.000 A 
ATOM      5  O   UNL     1      -0.482   9.557  17.474  0.00  0.00    +0.000 OA
ATOM      6  C   UNL     1       0.436  10.243  18.212  0.00  0.00    +0.000 A 
ATOM      7  C   UNL     1      -0.175  11.276  18.908  0.00  0.00    +0.000 A 
ATOM      8  C   UNL     1       0.495  12.239  19.816  0.00  0.00    +0.000 C 
ATOM      9  C   UNL     1      -1.570  11.209  18.568  0.00  0.00    +0.000 A 
ATOM     10  C   UNL     1      -2.754  11.909  18.902  0.00  0.00    +0.000 A 
ENDROOT
BRANCH  10  11
ATOM     11  O   UNL     1      -2.748  12.973  19.776  0.00  0.00    +0.000 OA
ATOM     12  H   UNL     1      -2.204  12.730  20.540  0.00  0.00    +0.000 HD
ENDBRANCH  10  11
BRANCH   1  13
ATOM     13  C   UNL     1      -5.275  12.251  18.694  0.00  0.00    +0.000 C 
BRANCH  13  15
ATOM     14  C   UNL     1      -7.130  13.047  17.181  0.00  0.00    +0.000 C 
ATOM     15  C   UNL     1      -6.439  11.837  17.789  0.00  0.00    +0.000 C 
ENDBRANCH  13  15
ENDBRANCH   1  13
BRANCH   6  16
ATOM     16  C   UNL     1       1.839   9.744  18.137  0.00  0.00    +0.000 C 
BRANCH  16  17
ATOM     17  C   UNL     1       2.034   8.383  18.766  0.00  0.00    +0.000 A 
ATOM     18  C   UNL     1       1.623   8.131  20.082  0.00  0.00    +0.000 A 
ATOM     19  C   UNL     1       1.777   6.858  20.640  0.00  0.00    +0.000 A 
ATOM     20  C   UNL     1       2.326   5.816  19.892  0.00  0.00    +0.000 A 
ATOM     21  C   UNL     1       2.758   6.063  18.590  0.00  0.00    +0.000 A 
ATOM     22  C   UNL     1       2.610   7.337  18.032  0.00  0.00    +0.000 A 
BRANCH  20  23
ATOM     23  O   UNL     1       2.438   4.618  20.544  0.00  0.00    +0.000 OA
ATOM     24  C   UNL     1       1.237   3.858  20.640  0.00  0.00    +0.000 C 
ENDBRANCH  20  23
ENDBRANCH  16  17
ENDBRANCH   6  16
TORSDOF 6
ENDMDL
MODEL 8
REMARK VINA RESULT:      -6.5      2.535      3.406
REMARK  Name = 
REMARK  9 active torsions:
REMARK  status: ('A' for Active; 'I' for Inactive)
REMARK    1  A    between atoms: C_1  and  C_2
REMARK    2  A    between atoms: C_2  and  C_3
REMARK    3  A    between atoms: C_3  and  C_4
REMARK    4  A    between atoms: C_9  and  C_10
REMARK    5  A    between atoms: C_10  and  C_11
REMARK    6  A    between atoms: C_14  and  O_15
REMARK    7  A    between atoms: O_15  and  C_16
REMARK    8  A    between atoms: C_19  and  C_20
REMARK    9  A    between atoms: C_22  and  O_23
REMARK                            x       y       z     vdW  Elec       q    Type
REMARK                         _______ _______ _______ _____ _____    ______ ____
ROOT
ATOM      1  C   UNL     1       2.313   7.214  18.810  0.00  0.00    +0.000 A 
ATOM      2  C   UNL     1       2.321   8.106  17.724  0.00  0.00    +0.000 A 
ATOM      3  C   UNL     1       1.908   9.435  17.858  0.00  0.00    +0.000 A 
ATOM      4  C   UNL     1       1.471   9.830  19.120  0.00  0.00    +0.000 A 
ATOM      5  O   UNL     1       1.045  11.081  19.436  0.00  0.00    +0.000 OA
ATOM      6  C   UNL     1       0.696  11.070  20.753  0.00  0.00    +0.000 A 
ATOM      7  C   UNL     1       0.901   9.811  21.300  0.00  0.00    +0.000 A 
ATOM      8  C   UNL     1       0.638   9.411  22.704  0.00  0.00    +0.000 C 
ATOM      9  C   UNL     1       1.416   8.998  20.232  0.00  0.00    +0.000 A 
ATOM     10  C   UNL     1       1.851   7.662  20.064  0.00  0.00    +0.000 A 
ENDROOT
BRANCH  10  11
ATOM     11  O   UNL     1       1.846   6.758  21.103  0.00  0.00    +0.000 OA
ATOM     12  H   UNL     1       1.276   6.016  20.851  0.00  0.00    +0.000 HD
ENDBRANCH  10  11
BRANCH   1  13
ATOM     13  C   UNL     1       2.797   5.793  18.606  0.00  0.00    +0.000 C 
BRANCH  13  15
ATOM     14  C   UNL     1       2.339   3.612  17.423  0.00  0.00    +0.000 C 
ATOM     15  C   UNL     1       1.738   4.909  17.940  0.00  0.00    +0.000 C 
ENDBRANCH  13  15
ENDBRANCH   1  13
BRANCH   6  16
ATOM     16  C   UNL     1       0.212  12.366  21.311  0.00  0.00    +0.000 C 
BRANCH  16  17
ATOM     17  C   UNL     1      -1.271  12.381  21.609  0.00  0.00    +0.000 A 
ATOM     18  C   UNL     1      -1.748  12.180  22.912  0.00  0.00    +0.000 A 
ATOM     19  C   UNL     1      -3.119  12.231  23.179  0.00  0.00    +0.000 A 
ATOM     20  C   UNL     1      -4.033  12.499  22.159  0.00  0.00    +0.000 A 
ATOM     21  C   UNL     1      -3.569  12.679  20.857  0.00  0.00    +0.000 A 
ATOM     22  C   UNL     1      -2.199  12.622  20.586  0.00  0.00    +0.000 A 
BRANCH  20  23
ATOM     23  O   UNL     1      -5.348  12.515  22.535  0.00  0.00    +0.000 OA
ATOM     24  C   UNL     1      -6.267  12.945  21.535  0.00  0.00    +0.000 C 
ENDBRANCH  20  23
ENDBRANCH  16  17
ENDBRANCH   6  16
TORSDOF 6
ENDMDL
MODEL 9
REMARK VINA RESULT:      -6.5      2.189      7.973
REMARK  Name = 
REMARK  9 active torsions:
REMARK  status: ('A' for Active; 'I' for Inactive)
REMARK    1  A    between atoms: C_1  and  C_2
REMARK    2  A    between atoms: C_2  and  C_3
REMARK    3  A    between atoms: C_3  and  C_4
REMARK    4  A    between atoms: C_9  and  C_10
REMARK    5  A    between atoms: C_10  and  C_11
REMARK    6  A    between atoms: C_14  and  O_15
REMARK    7  A    between atoms: O_15  and  C_16
REMARK    8  A    between atoms: C_19  and  C_20
REMARK    9  A    between atoms: C_22  and  O_23
REMARK                            x       y       z     vdW  Elec       q    Type
REMARK                         _______ _______ _______ _____ _____    ______ ____
ROOT
ATOM      1  C   UNL     1       0.410  10.709  20.131  0.00  0.00    +0.000 A 
ATOM      2  C   UNL     1       0.044  10.122  21.354  0.00  0.00    +0.000 A 
ATOM      3  C   UNL     1       0.434   8.824  21.695  0.00  0.00    +0.000 A 
ATOM      4  C   UNL     1       1.192   8.130  20.754  0.00  0.00    +0.000 A 
ATOM      5  O   UNL     1       1.666   6.868  20.918  0.00  0.00    +0.000 OA
ATOM      6  C   UNL     1       2.347   6.539  19.785  0.00  0.00    +0.000 A 
ATOM      7  C   UNL     1       2.323   7.592  18.881  0.00  0.00    +0.000 A 
ATOM      8  C   UNL     1       2.955   7.611  17.538  0.00  0.00    +0.000 C 
ATOM      9  C   UNL     1       1.572   8.640  19.517  0.00  0.00    +0.000 A 
ATOM     10  C   UNL     1       1.169   9.960  19.209  0.00  0.00    +0.000 A 
ENDROOT
BRANCH  10  11
ATOM     11  O   UNL     1       1.500  10.563  18.015  0.00  0.00    +0.000 OA
ATOM     12  H   UNL     1       0.755  10.450  17.407  0.00  0.00    +0.000 HD
ENDBRANCH  10  11
BRANCH   1  13
ATOM     13  C   UNL     1      -0.023  12.130  19.832  0.00  0.00    +0.000 C 
BRANCH  13  15
ATOM     14  C   UNL     1      -2.045  11.599  18.420  0.00  0.00    +0.000 C 
ATOM     15  C   UNL     1      -1.543  12.257  19.696  0.00  0.00    +0.000 C 
ENDBRANCH  13  15
ENDBRANCH   1  13
BRANCH   6  16
ATOM     16  C   UNL     1       2.968   5.184  19.766  0.00  0.00    +0.000 C 
BRANCH  16  17
ATOM     17  C   UNL     1       4.118   5.057  18.791  0.00  0.00    +0.000 A 
ATOM     18  C   UNL     1       5.404   5.497  19.131  0.00  0.00    +0.000 A 
ATOM     19  C   UNL     1       6.466   5.342  18.234  0.00  0.00    +0.000 A 
ATOM     20  C   UNL     1       6.266   4.733  16.996  0.00  0.00    +0.000 A 
ATOM     21  C   UNL     1       4.986   4.310  16.641  0.00  0.00    +0.000 A 
ATOM     22  C   UNL     1       3.922   4.470  17.533  0.00  0.00    +0.000 A 
BRANCH  20  23
ATOM     23  O   UNL     1       7.373   4.644  16.197  0.00  0.00    +0.000 OA
ATOM     24  C   UNL     1       7.124   4.696  14.795  0.00  0.00    +0.000 C 
ENDBRANCH  20  23
ENDBRANCH  16  17
ENDBRANCH   6  16
TORSDOF 6
ENDMDL
