MODEL 1
REMARK VINA RESULT:      -6.4      0.000      0.000
REMARK  Name = 
REMARK  5 active torsions:
REMARK  status: ('A' for Active; 'I' for Inactive)
REMARK    1  A    between atoms: C_2  and  C_3
REMARK    2  A    between atoms: C_3  and  N_4
REMARK    3  A    between atoms: C_10  and  O_11
REMARK    4  A    between atoms: C_12  and  O_13
REMARK    5  A    between atoms: C_16  and  C_17
REMARK                            x       y       z     vdW  Elec       q    Type
REMARK                         _______ _______ _______ _____ _____    ______ ____
ROOT
ATOM      1  N   UNL     1       3.274   7.892  18.266  0.00  0.00    +0.000 NA
ATOM      2  C   UNL     1       2.473   7.264  19.346  0.00  0.00    +0.000 C 
ATOM      3  C   UNL     1       3.140   6.045  19.977  0.00  0.00    +0.000 C 
ATOM      4  C   UNL     1       2.943   4.791  19.150  0.00  0.00    +0.000 A 
ATOM      5  C   UNL     1       3.458   4.697  17.831  0.00  0.00    +0.000 A 
ATOM      6  C   UNL     1       3.188   3.535  17.076  0.00  0.00    +0.000 A 
ATOM      7  C   UNL     1       2.434   2.481  17.603  0.00  0.00    +0.000 A 
ATOM      8  C   UNL     1       1.945   2.561  18.909  0.00  0.00    +0.000 A 
ATOM      9  C   UNL     1       2.195   3.701  19.683  0.00  0.00    +0.000 A 
ATOM     10 CL   UNL     1       1.512   3.718  21.317  0.00  0.00    +0.000 Cl
ATOM     11  C   UNL     1       4.238   5.824  17.147  0.00  0.00    +0.000 C 
ATOM     12  C   UNL     1       3.338   7.076  17.030  0.00  0.00    +0.000 C 
ENDROOT
BRANCH  11  13
ATOM     13  C   UNL     1       5.624   6.163  17.718  0.00  0.00    +0.000 A 
ATOM     14  C   UNL     1       6.327   5.304  18.590  0.00  0.00    +0.000 A 
ATOM     15  C   UNL     1       7.569   5.677  19.115  0.00  0.00    +0.000 A 
ATOM     16  C   UNL     1       8.141   6.901  18.769  0.00  0.00    +0.000 A 
ATOM     17  C   UNL     1       7.479   7.752  17.885  0.00  0.00    +0.000 A 
ATOM     18 CL   UNL     1       8.204   9.288  17.438  0.00  0.00    +0.000 Cl
ATOM     19  C   UNL     1       6.235   7.387  17.360  0.00  0.00    +0.000 A 
ENDBRANCH  11  13
BRANCH   7  20
ATOM     20  O   UNL     1       2.167   1.390  16.851  0.00  0.00    +0.000 OA
ATOM     21  H   UNL     1       2.815   0.686  16.709  0.00  0.00    +0.000 HD
ENDBRANCH   7  20
BRANCH   8  22
ATOM     22  O   UNL     1       1.211   1.553  19.434  0.00  0.00    +0.000 OA
ATOM     23  H   UNL     1       0.820   1.587  20.319  0.00  0.00    +0.000 HD
ENDBRANCH   8  22
BRANCH   1  24
ATOM     24  C   UNL     1       2.705   9.221  17.926  0.00  0.00    +0.000 C 
BRANCH  24  26
ATOM     25  C   UNL     1       0.473  10.124  18.504  0.00  0.00    +0.000 C 
ATOM     26  C   UNL     1       1.195   9.206  17.860  0.00  0.00    +0.000 C 
ENDBRANCH  24  26
ENDBRANCH   1  24
TORSDOF 5
ENDMDL
MODEL 2
REMARK VINA RESULT:      -6.4      3.341      5.486
REMARK  Name = 
REMARK  5 active torsions:
REMARK  status: ('A' for Active; 'I' for Inactive)
REMARK    1  A    between atoms: C_2  and  C_3
REMARK    2  A    between atoms: C_3  and  N_4
REMARK    3  A    between atoms: C_10  and  O_11
REMARK    4  A    between atoms: C_12  and  O_13
REMARK    5  A    between atoms: C_16  and  C_17
REMARK                            x       y       z     vdW  Elec       q    Type
REMARK                         _______ _______ _______ _____ _____    ______ ____
ROOT
ATOM      1  N   UNL     1       2.968   3.379  19.348  0.00  0.00    +0.000 NA
ATOM      2  C   UNL     1       4.432   3.183  19.487  0.00  0.00    +0.000 C 
ATOM      3  C   UNL     1       5.246   4.455  19.271  0.00  0.00    +0.000 C 
ATOM      4  C   UNL     1       5.462   4.755  17.802  0.00  0.00    +0.000 A 
ATOM      5  C   UNL     1       4.365   5.016  16.940  0.00  0.00    +0.000 A 
ATOM      6  C   UNL     1       4.612   5.220  15.565  0.00  0.00    +0.000 A 
ATOM      7  C   UNL     1       5.910   5.177  15.042  0.00  0.00    +0.000 A 
ATOM      8  C   UNL     1       6.994   4.943  15.892  0.00  0.00    +0.000 A 
ATOM      9  C   UNL     1       6.781   4.735  17.261  0.00  0.00    +0.000 A 
ATOM     10 CL   UNL     1       8.216   4.422  18.251  0.00  0.00    +0.000 Cl
ATOM     11  C   UNL     1       2.906   5.018  17.407  0.00  0.00    +0.000 C 
ATOM     12  C   UNL     1       2.537   3.618  17.949  0.00  0.00    +0.000 C 
ENDROOT
BRANCH  11  13
ATOM     13  C   UNL     1       2.482   6.138  18.370  0.00  0.00    +0.000 A 
ATOM     14  C   UNL     1       2.146   5.904  19.721  0.00  0.00    +0.000 A 
ATOM     15  C   UNL     1       1.728   6.952  20.548  0.00  0.00    +0.000 A 
ATOM     16  C   UNL     1       1.652   8.254  20.051  0.00  0.00    +0.000 A 
ATOM     17  C   UNL     1       2.008   8.514  18.728  0.00  0.00    +0.000 A 
ATOM     18 CL   UNL     1       1.925  10.153  18.104  0.00  0.00    +0.000 Cl
ATOM     19  C   UNL     1       2.423   7.469  17.895  0.00  0.00    +0.000 A 
ENDBRANCH  11  13
BRANCH   7  20
ATOM     20  O   UNL     1       6.119   5.350  13.718  0.00  0.00    +0.000 OA
ATOM     21  H   UNL     1       6.774   5.972  13.374  0.00  0.00    +0.000 HD
ENDBRANCH   7  20
BRANCH   8  22
ATOM     22  O   UNL     1       8.255   4.895  15.405  0.00  0.00    +0.000 OA
ATOM     23  H   UNL     1       8.824   5.674  15.326  0.00  0.00    +0.000 HD
ENDBRANCH   8  22
BRANCH   1  24
ATOM     24  C   UNL     1       2.249   2.186  19.866  0.00  0.00    +0.000 C 
BRANCH  24  26
ATOM     25  C   UNL     1       2.018   3.175  22.123  0.00  0.00    +0.000 C 
ATOM     26  C   UNL     1       1.468   2.482  21.125  0.00  0.00    +0.000 C 
ENDBRANCH  24  26
ENDBRANCH   1  24
TORSDOF 5
ENDMDL
MODEL 3
REMARK VINA RESULT:      -6.2      3.074      4.425
REMARK  Name = 
REMARK  5 active torsions:
REMARK  status: ('A' for Active; 'I' for Inactive)
REMARK    1  A    between atoms: C_2  and  C_3
REMARK    2  A    between atoms: C_3  and  N_4
REMARK    3  A    between atoms: C_10  and  O_11
REMARK    4  A    between atoms: C_12  and  O_13
REMARK    5  A    between atoms: C_16  and  C_17
REMARK                            x       y       z     vdW  Elec       q    Type
REMARK                         _______ _______ _______ _____ _____    ______ ____
ROOT
ATOM      1  N   UNL     1       7.125   6.244  17.888  0.00  0.00    +0.000 NA
ATOM      2  C   UNL     1       7.042   5.184  18.921  0.00  0.00    +0.000 C 
ATOM      3  C   UNL     1       6.406   3.889  18.425  0.00  0.00    +0.000 C 
ATOM      4  C   UNL     1       4.892   3.957  18.425  0.00  0.00    +0.000 A 
ATOM      5  C   UNL     1       4.203   4.896  17.614  0.00  0.00    +0.000 A 
ATOM      6  C   UNL     1       2.796   4.969  17.701  0.00  0.00    +0.000 A 
ATOM      7  C   UNL     1       2.074   4.133  18.561  0.00  0.00    +0.000 A 
ATOM      8  C   UNL     1       2.748   3.192  19.344  0.00  0.00    +0.000 A 
ATOM      9  C   UNL     1       4.143   3.097  19.280  0.00  0.00    +0.000 A 
ATOM     10 CL   UNL     1       4.907   1.891  20.329  0.00  0.00    +0.000 Cl
ATOM     11  C   UNL     1       4.910   5.895  16.692  0.00  0.00    +0.000 C 
ATOM     12  C   UNL     1       5.808   6.828  17.537  0.00  0.00    +0.000 C 
ENDROOT
BRANCH  11  13
ATOM     13  C   UNL     1       5.658   5.319  15.479  0.00  0.00    +0.000 A 
ATOM     14  C   UNL     1       7.048   5.479  15.287  0.00  0.00    +0.000 A 
ATOM     15  C   UNL     1       7.676   4.969  14.145  0.00  0.00    +0.000 A 
ATOM     16  C   UNL     1       6.938   4.278  13.184  0.00  0.00    +0.000 A 
ATOM     17  C   UNL     1       5.569   4.082  13.368  0.00  0.00    +0.000 A 
ATOM     18 CL   UNL     1       4.641   3.202  12.165  0.00  0.00    +0.000 Cl
ATOM     19  C   UNL     1       4.935   4.593  14.505  0.00  0.00    +0.000 A 
ENDBRANCH  11  13
BRANCH   7  20
ATOM     20  O   UNL     1       0.729   4.239  18.646  0.00  0.00    +0.000 OA
ATOM     21  H   UNL     1       0.231   4.917  18.169  0.00  0.00    +0.000 HD
ENDBRANCH   7  20
BRANCH   8  22
ATOM     22  O   UNL     1       2.067   2.379  20.183  0.00  0.00    +0.000 OA
ATOM     23  H   UNL     1       2.467   1.963  20.960  0.00  0.00    +0.000 HD
ENDBRANCH   8  22
BRANCH   1  24
ATOM     24  C   UNL     1       8.016   7.337  18.357  0.00  0.00    +0.000 C 
BRANCH  24  26
ATOM     25  C   UNL     1       8.366   9.762  18.008  0.00  0.00    +0.000 C 
ATOM     26  C   UNL     1       7.803   8.625  17.597  0.00  0.00    +0.000 C 
ENDBRANCH  24  26
ENDBRANCH   1  24
TORSDOF 5
ENDMDL
MODEL 4
REMARK VINA RESULT:      -6.1      1.089      1.466
REMARK  Name = 
REMARK  5 active torsions:
REMARK  status: ('A' for Active; 'I' for Inactive)
REMARK    1  A    between atoms: C_2  and  C_3
REMARK    2  A    between atoms: C_3  and  N_4
REMARK    3  A    between atoms: C_10  and  O_11
REMARK    4  A    between atoms: C_12  and  O_13
REMARK    5  A    between atoms: C_16  and  C_17
REMARK                            x       y       z     vdW  Elec       q    Type
REMARK                         _______ _______ _______ _____ _____    ______ ____
ROOT
ATOM      1  N   UNL     1       3.081   8.019  18.216  0.00  0.00    +0.000 NA
ATOM      2  C   UNL     1       2.393   7.362  19.354  0.00  0.00    +0.000 C 
ATOM      3  C   UNL     1       3.182   6.210  19.969  0.00  0.00    +0.000 C 
ATOM      4  C   UNL     1       3.028   4.925  19.181  0.00  0.00    +0.000 A 
ATOM      5  C   UNL     1       3.469   4.835  17.835  0.00  0.00    +0.000 A 
ATOM      6  C   UNL     1       3.240   3.639  17.121  0.00  0.00    +0.000 A 
ATOM      7  C   UNL     1       2.596   2.547  17.714  0.00  0.00    +0.000 A 
ATOM      8  C   UNL     1       2.180   2.625  19.045  0.00  0.00    +0.000 A 
ATOM      9  C   UNL     1       2.393   3.798  19.780  0.00  0.00    +0.000 A 
ATOM     10 CL   UNL     1       1.808   3.807  21.452  0.00  0.00    +0.000 Cl
ATOM     11  C   UNL     1       4.124   5.998  17.082  0.00  0.00    +0.000 C 
ATOM     12  C   UNL     1       3.130   7.180  16.995  0.00  0.00    +0.000 C 
ENDROOT
BRANCH  11  13
ATOM     13  C   UNL     1       5.513   6.448  17.561  0.00  0.00    +0.000 A 
ATOM     14  C   UNL     1       6.167   7.591  17.053  0.00  0.00    +0.000 A 
ATOM     15  C   UNL     1       7.450   7.938  17.494  0.00  0.00    +0.000 A 
ATOM     16  C   UNL     1       8.095   7.165  18.459  0.00  0.00    +0.000 A 
ATOM     17  C   UNL     1       7.455   6.049  18.998  0.00  0.00    +0.000 A 
ATOM     18 CL   UNL     1       8.262   5.081  20.221  0.00  0.00    +0.000 Cl
ATOM     19  C   UNL     1       6.176   5.695  18.558  0.00  0.00    +0.000 A 
ENDBRANCH  11  13
BRANCH   7  20
ATOM     20  O   UNL     1       2.364   1.422  17.002  0.00  0.00    +0.000 OA
ATOM     21  H   UNL     1       2.089   1.442  16.075  0.00  0.00    +0.000 HD
ENDBRANCH   7  20
BRANCH   8  22
ATOM     22  O   UNL     1       1.554   1.581  19.634  0.00  0.00    +0.000 OA
ATOM     23  H   UNL     1       0.629   1.352  19.464  0.00  0.00    +0.000 HD
ENDBRANCH   8  22
BRANCH   1  24
ATOM     24  C   UNL     1       2.399   9.296  17.884  0.00  0.00    +0.000 C 
BRANCH  24  26
ATOM     25  C   UNL     1       0.068  10.048  18.249  0.00  0.00    +0.000 C 
ATOM     26  C   UNL     1       1.197   9.556  18.763  0.00  0.00    +0.000 C 
ENDBRANCH  24  26
ENDBRANCH   1  24
TORSDOF 5
ENDMDL
MODEL 5
REMARK VINA RESULT:      -6.0      7.260     10.232
REMARK  Name = 
REMARK  5 active torsions:
REMARK  status: ('A' for Active; 'I' for Inactive)
REMARK    1  A    between atoms: C_2  and  C_3
REMARK    2  A    between atoms: C_3  and  N_4
REMARK    3  A    between atoms: C_10  and  O_11
REMARK    4  A    between atoms: C_12  and  O_13
REMARK    5  A    between atoms: C_16  and  C_17
REMARK                            x       y       z     vdW  Elec       q    Type
REMARK                         _______ _______ _______ _____ _____    ______ ____
ROOT
ATOM      1  N   UNL     1      -0.192  13.360  20.037  0.00  0.00    +0.000 NA
ATOM      2  C   UNL     1      -0.009  14.441  21.035  0.00  0.00    +0.000 C 
ATOM      3  C   UNL     1      -0.058  13.958  22.482  0.00  0.00    +0.000 C 
ATOM      4  C   UNL     1      -1.478  13.785  22.981  0.00  0.00    +0.000 A 
ATOM      5  C   UNL     1      -2.355  12.846  22.379  0.00  0.00    +0.000 A 
ATOM      6  C   UNL     1      -3.690  12.772  22.834  0.00  0.00    +0.000 A 
ATOM      7  C   UNL     1      -4.157  13.596  23.864  0.00  0.00    +0.000 A 
ATOM      8  C   UNL     1      -3.289  14.505  24.474  0.00  0.00    +0.000 A 
ATOM      9  C   UNL     1      -1.960  14.603  24.044  0.00  0.00    +0.000 A 
ATOM     10 CL   UNL     1      -0.946  15.803  24.863  0.00  0.00    +0.000 Cl
ATOM     11  C   UNL     1      -1.955  11.949  21.204  0.00  0.00    +0.000 C 
ATOM     12  C   UNL     1      -1.576  12.829  19.990  0.00  0.00    +0.000 C 
ENDROOT
BRANCH  11  13
ATOM     13  C   UNL     1      -0.901  10.864  21.479  0.00  0.00    +0.000 A 
ATOM     14  C   UNL     1      -0.597  10.400  22.778  0.00  0.00    +0.000 A 
ATOM     15  C   UNL     1       0.399   9.438  22.979  0.00  0.00    +0.000 A 
ATOM     16  C   UNL     1       1.098   8.910  21.894  0.00  0.00    +0.000 A 
ATOM     17  C   UNL     1       0.793   9.331  20.600  0.00  0.00    +0.000 A 
ATOM     18 CL   UNL     1       1.663   8.657  19.231  0.00  0.00    +0.000 Cl
ATOM     19  C   UNL     1      -0.198  10.295  20.392  0.00  0.00    +0.000 A 
ENDBRANCH  11  13
BRANCH   7  20
ATOM     20  O   UNL     1      -5.446  13.524  24.265  0.00  0.00    +0.000 OA
ATOM     21  H   UNL     1      -5.788  14.040  25.008  0.00  0.00    +0.000 HD
ENDBRANCH   7  20
BRANCH   8  22
ATOM     22  O   UNL     1      -3.724  15.312  25.469  0.00  0.00    +0.000 OA
ATOM     23  H   UNL     1      -4.298  16.077  25.320  0.00  0.00    +0.000 HD
ENDBRANCH   8  22
BRANCH   1  24
ATOM     24  C   UNL     1       0.169  13.857  18.684  0.00  0.00    +0.000 C 
BRANCH  24  26
ATOM     25  C   UNL     1       2.155  12.401  18.430  0.00  0.00    +0.000 C 
ATOM     26  C   UNL     1       1.623  13.622  18.349  0.00  0.00    +0.000 C 
ENDBRANCH  24  26
ENDBRANCH   1  24
TORSDOF 5
ENDMDL
MODEL 6
REMARK VINA RESULT:      -5.9      2.741      4.199
REMARK  Name = 
REMARK  5 active torsions:
REMARK  status: ('A' for Active; 'I' for Inactive)
REMARK    1  A    between atoms: C_2  and  C_3
REMARK    2  A    between atoms: C_3  and  N_4
REMARK    3  A    between atoms: C_10  and  O_11
REMARK    4  A    between atoms: C_12  and  O_13
REMARK    5  A    between atoms: C_16  and  C_17
REMARK                            x       y       z     vdW  Elec       q    Type
REMARK                         _______ _______ _______ _____ _____    ______ ____
ROOT
ATOM      1  N   UNL     1       7.142   6.174  17.694  0.00  0.00    +0.000 NA
ATOM      2  C   UNL     1       7.088   5.145  18.760  0.00  0.00    +0.000 C 
ATOM      3  C   UNL     1       6.386   3.857  18.338  0.00  0.00    +0.000 C 
ATOM      4  C   UNL     1       4.877   3.973  18.422  0.00  0.00    +0.000 A 
ATOM      5  C   UNL     1       4.171   4.911  17.626  0.00  0.00    +0.000 A 
ATOM      6  C   UNL     1       2.773   5.030  17.792  0.00  0.00    +0.000 A 
ATOM      7  C   UNL     1       2.078   4.240  18.715  0.00  0.00    +0.000 A 
ATOM      8  C   UNL     1       2.768   3.300  19.484  0.00  0.00    +0.000 A 
ATOM      9  C   UNL     1       4.155   3.160  19.343  0.00  0.00    +0.000 A 
ATOM     10 CL   UNL     1       4.942   1.959  20.380  0.00  0.00    +0.000 Cl
ATOM     11  C   UNL     1       4.852   5.863  16.638  0.00  0.00    +0.000 C 
ATOM     12  C   UNL     1       5.825   6.790  17.402  0.00  0.00    +0.000 C 
ENDROOT
BRANCH  11  13
ATOM     13  C   UNL     1       5.511   5.232  15.400  0.00  0.00    +0.000 A 
ATOM     14  C   UNL     1       4.978   4.105  14.736  0.00  0.00    +0.000 A 
ATOM     15  C   UNL     1       5.638   3.545  13.637  0.00  0.00    +0.000 A 
ATOM     16  C   UNL     1       6.827   4.104  13.168  0.00  0.00    +0.000 A 
ATOM     17  C   UNL     1       7.355   5.235  13.790  0.00  0.00    +0.000 A 
ATOM     18 CL   UNL     1       8.845   5.947  13.194  0.00  0.00    +0.000 Cl
ATOM     19  C   UNL     1       6.703   5.798  14.892  0.00  0.00    +0.000 A 
ENDBRANCH  11  13
BRANCH   7  20
ATOM     20  O   UNL     1       0.745   4.390  18.874  0.00  0.00    +0.000 OA
ATOM     21  H   UNL     1       0.128   4.367  18.129  0.00  0.00    +0.000 HD
ENDBRANCH   7  20
BRANCH   8  22
ATOM     22  O   UNL     1       2.114   2.530  20.383  0.00  0.00    +0.000 OA
ATOM     23  H   UNL     1       1.151   2.533  20.483  0.00  0.00    +0.000 HD
ENDBRANCH   8  22
BRANCH   1  24
ATOM     24  C   UNL     1       8.091   7.251  18.080  0.00  0.00    +0.000 C 
BRANCH  24  26
ATOM     25  C   UNL     1       8.291   9.716  17.996  0.00  0.00    +0.000 C 
ATOM     26  C   UNL     1       7.633   8.617  17.626  0.00  0.00    +0.000 C 
ENDBRANCH  24  26
ENDBRANCH   1  24
TORSDOF 5
ENDMDL
MODEL 7
REMARK VINA RESULT:      -5.9      6.283      9.691
REMARK  Name = 
REMARK  5 active torsions:
REMARK  status: ('A' for Active; 'I' for Inactive)
REMARK    1  A    between atoms: C_2  and  C_3
REMARK    2  A    between atoms: C_3  and  N_4
REMARK    3  A    between atoms: C_10  and  O_11
REMARK    4  A    between atoms: C_12  and  O_13
REMARK    5  A    between atoms: C_16  and  C_17
REMARK                            x       y       z     vdW  Elec       q    Type
REMARK                         _______ _______ _______ _____ _____    ______ ____
ROOT
ATOM      1  N   UNL     1       0.172  10.670  19.136  0.00  0.00    +0.000 NA
ATOM      2  C   UNL     1      -0.970  10.340  18.249  0.00  0.00    +0.000 C 
ATOM      3  C   UNL     1      -1.797  11.553  17.832  0.00  0.00    +0.000 C 
ATOM      4  C   UNL     1      -2.790  11.963  18.900  0.00  0.00    +0.000 A 
ATOM      5  C   UNL     1      -2.353  12.392  20.180  0.00  0.00    +0.000 A 
ATOM      6  C   UNL     1      -3.319  12.697  21.163  0.00  0.00    +0.000 A 
ATOM      7  C   UNL     1      -4.689  12.591  20.898  0.00  0.00    +0.000 A 
ATOM      8  C   UNL     1      -5.123  12.191  19.632  0.00  0.00    +0.000 A 
ATOM      9  C   UNL     1      -4.189  11.881  18.636  0.00  0.00    +0.000 A 
ATOM     10 CL   UNL     1      -4.838  11.360  17.072  0.00  0.00    +0.000 Cl
ATOM     11  C   UNL     1      -0.878  12.476  20.583  0.00  0.00    +0.000 C 
ATOM     12  C   UNL     1      -0.240  11.069  20.503  0.00  0.00    +0.000 C 
ENDROOT
BRANCH  11  13
ATOM     13  C   UNL     1      -0.018  13.538  19.878  0.00  0.00    +0.000 A 
ATOM     14  C   UNL     1       1.376  13.403  19.699  0.00  0.00    +0.000 A 
ATOM     15  C   UNL     1       2.120  14.416  19.084  0.00  0.00    +0.000 A 
ATOM     16  C   UNL     1       1.490  15.571  18.622  0.00  0.00    +0.000 A 
ATOM     17  C   UNL     1       0.109  15.713  18.761  0.00  0.00    +0.000 A 
ATOM     18 CL   UNL     1      -0.687  17.161  18.169  0.00  0.00    +0.000 Cl
ATOM     19  C   UNL     1      -0.639  14.705  19.378  0.00  0.00    +0.000 A 
ENDBRANCH  11  13
BRANCH   7  20
ATOM     20  O   UNL     1      -5.594  12.864  21.864  0.00  0.00    +0.000 OA
ATOM     21  H   UNL     1      -5.923  13.758  22.029  0.00  0.00    +0.000 HD
ENDBRANCH   7  20
BRANCH   8  22
ATOM     22  O   UNL     1      -6.443  12.080  19.358  0.00  0.00    +0.000 OA
ATOM     23  H   UNL     1      -6.814  11.374  18.810  0.00  0.00    +0.000 HD
ENDBRANCH   8  22
BRANCH   1  24
ATOM     24  C   UNL     1       1.083   9.501  19.240  0.00  0.00    +0.000 C 
BRANCH  24  26
ATOM     25  C   UNL     1       2.583   8.131  17.825  0.00  0.00    +0.000 C 
ATOM     26  C   UNL     1       1.772   9.185  17.933  0.00  0.00    +0.000 C 
ENDBRANCH  24  26
ENDBRANCH   1  24
TORSDOF 5
ENDMDL
MODEL 8
REMARK VINA RESULT:      -5.8      7.351     10.338
REMARK  Name = 
REMARK  5 active torsions:
REMARK  status: ('A' for Active; 'I' for Inactive)
REMARK    1  A    between atoms: C_2  and  C_3
REMARK    2  A    between atoms: C_3  and  N_4
REMARK    3  A    between atoms: C_10  and  O_11
REMARK    4  A    between atoms: C_12  and  O_13
REMARK    5  A    between atoms: C_16  and  C_17
REMARK                            x       y       z     vdW  Elec       q    Type
REMARK                         _______ _______ _______ _____ _____    ______ ____
ROOT
ATOM      1  N   UNL     1       0.086  13.750  20.923  0.00  0.00    +0.000 NA
ATOM      2  C   UNL     1      -0.274  14.617  22.071  0.00  0.00    +0.000 C 
ATOM      3  C   UNL     1      -0.927  13.867  23.228  0.00  0.00    +0.000 C 
ATOM      4  C   UNL     1      -2.404  13.624  22.994  0.00  0.00    +0.000 A 
ATOM      5  C   UNL     1      -2.851  12.833  21.904  0.00  0.00    +0.000 A 
ATOM      6  C   UNL     1      -4.239  12.694  21.687  0.00  0.00    +0.000 A 
ATOM      7  C   UNL     1      -5.174  13.313  22.524  0.00  0.00    +0.000 A 
ATOM      8  C   UNL     1      -4.738  14.075  23.611  0.00  0.00    +0.000 A 
ATOM      9  C   UNL     1      -3.367  14.232  23.852  0.00  0.00    +0.000 A 
ATOM     10 CL   UNL     1      -2.913  15.236  25.239  0.00  0.00    +0.000 Cl
ATOM     11  C   UNL     1      -1.905  12.171  20.898  0.00  0.00    +0.000 C 
ATOM     12  C   UNL     1      -1.090  13.260  20.163  0.00  0.00    +0.000 C 
ENDROOT
BRANCH  11  13
ATOM     13  C   UNL     1      -1.009  11.036  21.421  0.00  0.00    +0.000 A 
ATOM     14  C   UNL     1      -0.966  10.656  22.780  0.00  0.00    +0.000 A 
ATOM     15  C   UNL     1      -0.103   9.643  23.212  0.00  0.00    +0.000 A 
ATOM     16  C   UNL     1       0.717   8.979  22.300  0.00  0.00    +0.000 A 
ATOM     17  C   UNL     1       0.668   9.316  20.948  0.00  0.00    +0.000 A 
ATOM     18 CL   UNL     1       1.691   8.473  19.796  0.00  0.00    +0.000 Cl
ATOM     19  C   UNL     1      -0.189  10.332  20.510  0.00  0.00    +0.000 A 
ENDBRANCH  11  13
BRANCH   7  20
ATOM     20  O   UNL     1      -6.498  13.187  22.281  0.00  0.00    +0.000 OA
ATOM     21  H   UNL     1      -6.947  13.684  21.583  0.00  0.00    +0.000 HD
ENDBRANCH   7  20
BRANCH   8  22
ATOM     22  O   UNL     1      -5.627  14.683  24.429  0.00  0.00    +0.000 OA
ATOM     23  H   UNL     1      -5.675  14.513  25.381  0.00  0.00    +0.000 HD
ENDBRANCH   8  22
BRANCH   1  24
ATOM     24  C   UNL     1       0.975  14.491  19.991  0.00  0.00    +0.000 C 
BRANCH  24  26
ATOM     25  C   UNL     1       2.214  12.992  18.460  0.00  0.00    +0.000 C 
ATOM     26  C   UNL     1       1.156  13.777  18.672  0.00  0.00    +0.000 C 
ENDBRANCH  24  26
ENDBRANCH   1  24
TORSDOF 5
ENDMDL
MODEL 9
REMARK VINA RESULT:      -5.8      3.962      7.358
REMARK  Name = 
REMARK  5 active torsions:
REMARK  status: ('A' for Active; 'I' for Inactive)
REMARK    1  A    between atoms: C_2  and  C_3
REMARK    2  A    between atoms: C_3  and  N_4
REMARK    3  A    between atoms: C_10  and  O_11
REMARK    4  A    between atoms: C_12  and  O_13
REMARK    5  A    between atoms: C_16  and  C_17
REMARK                            x       y       z     vdW  Elec       q    Type
REMARK                         _______ _______ _______ _____ _____    ______ ____
ROOT
ATOM      1  N   UNL     1       1.473  12.403  19.343  0.00  0.00    +0.000 NA
ATOM      2  C   UNL     1       2.366  11.633  18.444  0.00  0.00    +0.000 C 
ATOM      3  C   UNL     1       1.702  10.410  17.817  0.00  0.00    +0.000 C 
ATOM      4  C   UNL     1       1.684   9.222  18.757  0.00  0.00    +0.000 A 
ATOM      5  C   UNL     1       0.984   9.277  19.991  0.00  0.00    +0.000 A 
ATOM      6  C   UNL     1       1.055   8.170  20.864  0.00  0.00    +0.000 A 
ATOM      7  C   UNL     1       1.792   7.027  20.535  0.00  0.00    +0.000 A 
ATOM      8  C   UNL     1       2.464   6.961  19.311  0.00  0.00    +0.000 A 
ATOM      9  C   UNL     1       2.413   8.044  18.424  0.00  0.00    +0.000 A 
ATOM     10 CL   UNL     1       3.317   7.874  16.910  0.00  0.00    +0.000 Cl
ATOM     11  C   UNL     1       0.206  10.508  20.466  0.00  0.00    +0.000 C 
ATOM     12  C   UNL     1       1.175  11.704  20.616  0.00  0.00    +0.000 C 
ENDROOT
BRANCH  11  13
ATOM     13  C   UNL     1      -1.057  10.886  19.675  0.00  0.00    +0.000 A 
ATOM     14  C   UNL     1      -1.942  11.908  20.083  0.00  0.00    +0.000 A 
ATOM     15  C   UNL     1      -3.099  12.188  19.348  0.00  0.00    +0.000 A 
ATOM     16  C   UNL     1      -3.387  11.471  18.187  0.00  0.00    +0.000 A 
ATOM     17  C   UNL     1      -2.511  10.478  17.748  0.00  0.00    +0.000 A 
ATOM     18 CL   UNL     1      -2.866   9.583  16.280  0.00  0.00    +0.000 Cl
ATOM     19  C   UNL     1      -1.355  10.190  18.481  0.00  0.00    +0.000 A 
ENDBRANCH  11  13
BRANCH   7  20
ATOM     20  O   UNL     1       1.867   5.990  21.399  0.00  0.00    +0.000 OA
ATOM     21  H   UNL     1       2.444   6.001  22.174  0.00  0.00    +0.000 HD
ENDBRANCH   7  20
BRANCH   8  22
ATOM     22  O   UNL     1       3.183   5.866  18.977  0.00  0.00    +0.000 OA
ATOM     23  H   UNL     1       2.940   5.271  18.254  0.00  0.00    +0.000 HD
ENDBRANCH   8  22
BRANCH   1  24
ATOM     24  C   UNL     1       2.090  13.717  19.660  0.00  0.00    +0.000 C 
BRANCH  24  26
ATOM     25  C   UNL     1      -0.006  14.688  18.768  0.00  0.00    +0.000 C 
ATOM     26  C   UNL     1       1.152  14.874  19.405  0.00  0.00    +0.000 C 
ENDBRANCH  24  26
ENDBRANCH   1  24
TORSDOF 5
ENDMDL
