MODEL 1
REMARK VINA RESULT:      -8.4      0.000      0.000
REMARK  Name = 
REMARK  4 active torsions:
REMARK  status: ('A' for Active; 'I' for Inactive)
REMARK    1  A    between atoms: C_2  and  C_17
REMARK    2  A    between atoms: N_3  and  C_4
REMARK    3  A    between atoms: C_7  and  O_8
REMARK    4  A    between atoms: O_8  and  C_9
REMARK                            x       y       z     vdW  Elec       q    Type
REMARK                         _______ _______ _______ _____ _____    ______ ____
ROOT
ATOM      1  O   UNL     1       2.289   8.939  17.116  0.00  0.00    +0.000 OA
ATOM      2  C   UNL     1       2.111   8.486  18.246  0.00  0.00    +0.000 C 
ATOM      3  N   UNL     1       2.587   7.274  18.701  0.00  0.00    +0.000 N 
ATOM      4  H   UNL     1       2.280   6.966  19.624  0.00  0.00    +0.000 HD
ENDROOT
BRANCH   2   5
ATOM      5  C   UNL     1       1.276   9.247  19.217  0.00  0.00    +0.000 A 
ATOM      6  C   UNL     1       0.781  10.434  18.831  0.00  0.00    +0.000 A 
ATOM      7  N   UNL     1       0.001  11.262  19.595  0.00  0.00    +0.000 NA
ATOM      8  C   UNL     1      -0.242  10.861  20.793  0.00  0.00    +0.000 A 
ATOM      9  N   UNL     1       0.206   9.690  21.335  0.00  0.00    +0.000 N 
ATOM     10  C   UNL     1       0.941   8.799  20.588  0.00  0.00    +0.000 A 
ATOM     11  O   UNL     1       1.292   7.693  21.002  0.00  0.00    +0.000 OA
ATOM     12  C   UNL     1      -0.174   9.417  22.698  0.00  0.00    +0.000 C 
ATOM     13  C   UNL     1      -1.017  10.556  23.248  0.00  0.00    +0.000 C 
ATOM     14  S   UNL     1      -1.200  11.765  21.916  0.00  0.00    +0.000 S 
ENDBRANCH   2   5
BRANCH   3  15
ATOM     15  C   UNL     1       3.374   6.365  17.965  0.00  0.00    +0.000 A 
ATOM     16  C   UNL     1       3.035   5.020  17.800  0.00  0.00    +0.000 A 
ATOM     17  C   UNL     1       3.858   4.165  17.063  0.00  0.00    +0.000 A 
ATOM     18  C   UNL     1       5.030   4.645  16.488  0.00  0.00    +0.000 A 
ATOM     19  C   UNL     1       5.400   5.976  16.689  0.00  0.00    +0.000 A 
ATOM     20  C   UNL     1       4.552   6.845  17.384  0.00  0.00    +0.000 A 
BRANCH  18  21
ATOM     21  O   UNL     1       5.777   3.719  15.800  0.00  0.00    +0.000 OA
BRANCH  21  22
ATOM     22  C   UNL     1       6.287   4.024  14.561  0.00  0.00    +0.000 A 
ATOM     23  C   UNL     1       5.634   3.433  13.478  0.00  0.00    +0.000 A 
ATOM     24  C   UNL     1       6.083   3.663  12.177  0.00  0.00    +0.000 A 
ATOM     25  C   UNL     1       7.188   4.486  11.958  0.00  0.00    +0.000 A 
ATOM     26  C   UNL     1       7.816   5.110  13.033  0.00  0.00    +0.000 A 
ATOM     27  C   UNL     1       7.348   4.905  14.331  0.00  0.00    +0.000 A 
ENDBRANCH  21  22
ENDBRANCH  18  21
ENDBRANCH   3  15
TORSDOF 4
ENDMDL
MODEL 2
REMARK VINA RESULT:      -8.1      0.952      1.840
REMARK  Name = 
REMARK  4 active torsions:
REMARK  status: ('A' for Active; 'I' for Inactive)
REMARK    1  A    between atoms: C_2  and  C_17
REMARK    2  A    between atoms: N_3  and  C_4
REMARK    3  A    between atoms: C_7  and  O_8
REMARK    4  A    between atoms: O_8  and  C_9
REMARK                            x       y       z     vdW  Elec       q    Type
REMARK                         _______ _______ _______ _____ _____    ______ ____
ROOT
ATOM      1  O   UNL     1       2.012   6.323  20.484  0.00  0.00    +0.000 OA
ATOM      2  C   UNL     1       2.001   7.372  19.842  0.00  0.00    +0.000 C 
ATOM      3  N   UNL     1       2.637   7.571  18.634  0.00  0.00    +0.000 N 
ATOM      4  H   UNL     1       2.639   8.519  18.255  0.00  0.00    +0.000 HD
ENDROOT
BRANCH   2   5
ATOM      5  C   UNL     1       1.304   8.565  20.398  0.00  0.00    +0.000 A 
ATOM      6  C   UNL     1       1.244   8.696  21.733  0.00  0.00    +0.000 A 
ATOM      7  N   UNL     1       0.642   9.725  22.409  0.00  0.00    +0.000 NA
ATOM      8  C   UNL     1       0.065  10.616  21.682  0.00  0.00    +0.000 A 
ATOM      9  N   UNL     1       0.023  10.609  20.317  0.00  0.00    +0.000 N 
ATOM     10  C   UNL     1       0.664   9.631  19.594  0.00  0.00    +0.000 A 
ATOM     11  O   UNL     1       0.731   9.629  18.364  0.00  0.00    +0.000 OA
ATOM     12  C   UNL     1      -0.674  11.699  19.683  0.00  0.00    +0.000 C 
ATOM     13  C   UNL     1      -1.240  12.644  20.730  0.00  0.00    +0.000 C 
ATOM     14  S   UNL     1      -0.757  11.988  22.345  0.00  0.00    +0.000 S 
ENDBRANCH   2   5
BRANCH   3  15
ATOM     15  C   UNL     1       3.381   6.609  17.922  0.00  0.00    +0.000 A 
ATOM     16  C   UNL     1       3.015   5.263  17.843  0.00  0.00    +0.000 A 
ATOM     17  C   UNL     1       3.796   4.355  17.127  0.00  0.00    +0.000 A 
ATOM     18  C   UNL     1       4.955   4.781  16.484  0.00  0.00    +0.000 A 
ATOM     19  C   UNL     1       5.353   6.114  16.597  0.00  0.00    +0.000 A 
ATOM     20  C   UNL     1       4.545   7.035  17.273  0.00  0.00    +0.000 A 
BRANCH  18  21
ATOM     21  O   UNL     1       5.661   3.805  15.822  0.00  0.00    +0.000 OA
BRANCH  21  22
ATOM     22  C   UNL     1       6.194   4.058  14.581  0.00  0.00    +0.000 A 
ATOM     23  C   UNL     1       5.545   3.443  13.509  0.00  0.00    +0.000 A 
ATOM     24  C   UNL     1       6.016   3.620  12.207  0.00  0.00    +0.000 A 
ATOM     25  C   UNL     1       7.139   4.414  11.977  0.00  0.00    +0.000 A 
ATOM     26  C   UNL     1       7.764   5.063  13.040  0.00  0.00    +0.000 A 
ATOM     27  C   UNL     1       7.274   4.911  14.337  0.00  0.00    +0.000 A 
ENDBRANCH  21  22
ENDBRANCH  18  21
ENDBRANCH   3  15
TORSDOF 4
ENDMDL
MODEL 3
REMARK VINA RESULT:      -8.0      2.302      3.757
REMARK  Name = 
REMARK  4 active torsions:
REMARK  status: ('A' for Active; 'I' for Inactive)
REMARK    1  A    between atoms: C_2  and  C_17
REMARK    2  A    between atoms: N_3  and  C_4
REMARK    3  A    between atoms: C_7  and  O_8
REMARK    4  A    between atoms: O_8  and  C_9
REMARK                            x       y       z     vdW  Elec       q    Type
REMARK                         _______ _______ _______ _____ _____    ______ ____
ROOT
ATOM      1  O   UNL     1      -0.644   8.174  21.486  0.00  0.00    +0.000 OA
ATOM      2  C   UNL     1       0.106   9.118  21.241  0.00  0.00    +0.000 C 
ATOM      3  N   UNL     1       1.290   9.031  20.539  0.00  0.00    +0.000 N 
ATOM      4  H   UNL     1       1.872   9.869  20.496  0.00  0.00    +0.000 HD
ENDROOT
BRANCH   2   5
ATOM      5  C   UNL     1      -0.223  10.470  21.770  0.00  0.00    +0.000 A 
ATOM      6  C   UNL     1      -0.970  10.550  22.884  0.00  0.00    +0.000 A 
ATOM      7  N   UNL     1      -1.365  11.707  23.502  0.00  0.00    +0.000 NA
ATOM      8  C   UNL     1      -1.003  12.802  22.931  0.00  0.00    +0.000 A 
ATOM      9  N   UNL     1      -0.261  12.884  21.788  0.00  0.00    +0.000 N 
ATOM     10  C   UNL     1       0.209  11.751  21.166  0.00  0.00    +0.000 A 
ATOM     11  O   UNL     1       0.955  11.774  20.185  0.00  0.00    +0.000 OA
ATOM     12  C   UNL     1       0.044  14.207  21.304  0.00  0.00    +0.000 C 
ATOM     13  C   UNL     1      -0.571  15.256  22.215  0.00  0.00    +0.000 C 
ATOM     14  S   UNL     1      -1.408  14.368  23.550  0.00  0.00    +0.000 S 
ENDBRANCH   2   5
BRANCH   3  15
ATOM     15  C   UNL     1       1.828   7.862  19.964  0.00  0.00    +0.000 A 
ATOM     16  C   UNL     1       1.923   6.647  20.648  0.00  0.00    +0.000 A 
ATOM     17  C   UNL     1       2.471   5.524  20.028  0.00  0.00    +0.000 A 
ATOM     18  C   UNL     1       2.934   5.603  18.718  0.00  0.00    +0.000 A 
ATOM     19  C   UNL     1       2.887   6.824  18.044  0.00  0.00    +0.000 A 
ATOM     20  C   UNL     1       2.293   7.938  18.647  0.00  0.00    +0.000 A 
BRANCH  18  21
ATOM     21  O   UNL     1       3.472   4.446  18.207  0.00  0.00    +0.000 OA
BRANCH  21  22
ATOM     22  C   UNL     1       4.733   4.452  17.659  0.00  0.00    +0.000 A 
ATOM     23  C   UNL     1       4.798   4.169  16.293  0.00  0.00    +0.000 A 
ATOM     24  C   UNL     1       6.031   4.133  15.642  0.00  0.00    +0.000 A 
ATOM     25  C   UNL     1       7.203   4.378  16.357  0.00  0.00    +0.000 A 
ATOM     26  C   UNL     1       7.138   4.702  17.711  0.00  0.00    +0.000 A 
ATOM     27  C   UNL     1       5.902   4.769  18.355  0.00  0.00    +0.000 A 
ENDBRANCH  21  22
ENDBRANCH  18  21
ENDBRANCH   3  15
TORSDOF 4
ENDMDL
MODEL 4
REMARK VINA RESULT:      -7.9      1.063      1.555
REMARK  Name = 
REMARK  4 active torsions:
REMARK  status: ('A' for Active; 'I' for Inactive)
REMARK    1  A    between atoms: C_2  and  C_17
REMARK    2  A    between atoms: N_3  and  C_4
REMARK    3  A    between atoms: C_7  and  O_8
REMARK    4  A    between atoms: O_8  and  C_9
REMARK                            x       y       z     vdW  Elec       q    Type
REMARK                         _______ _______ _______ _____ _____    ______ ____
ROOT
ATOM      1  O   UNL     1       2.227   8.576  17.368  0.00  0.00    +0.000 OA
ATOM      2  C   UNL     1       2.194   8.109  18.505  0.00  0.00    +0.000 C 
ATOM      3  N   UNL     1       2.791   6.929  18.897  0.00  0.00    +0.000 N 
ATOM      4  H   UNL     1       2.600   6.598  19.844  0.00  0.00    +0.000 HD
ENDROOT
BRANCH   2   5
ATOM      5  C   UNL     1       1.415   8.810  19.563  0.00  0.00    +0.000 A 
ATOM      6  C   UNL     1       1.410   8.283  20.798  0.00  0.00    +0.000 A 
ATOM      7  N   UNL     1       0.748   8.794  21.884  0.00  0.00    +0.000 NA
ATOM      8  C   UNL     1       0.052   9.854  21.671  0.00  0.00    +0.000 A 
ATOM      9  N   UNL     1      -0.058  10.494  20.469  0.00  0.00    +0.000 N 
ATOM     10  C   UNL     1       0.635  10.054  19.366  0.00  0.00    +0.000 A 
ATOM     11  O   UNL     1       0.640  10.645  18.286  0.00  0.00    +0.000 OA
ATOM     12  C   UNL     1      -0.889  11.671  20.433  0.00  0.00    +0.000 C 
ATOM     13  C   UNL     1      -1.489  11.936  21.804  0.00  0.00    +0.000 C 
ATOM     14  S   UNL     1      -0.863  10.648  22.908  0.00  0.00    +0.000 S 
ENDBRANCH   2   5
BRANCH   3  15
ATOM     15  C   UNL     1       3.556   6.075  18.076  0.00  0.00    +0.000 A 
ATOM     16  C   UNL     1       3.141   4.792  17.711  0.00  0.00    +0.000 A 
ATOM     17  C   UNL     1       3.946   3.990  16.899  0.00  0.00    +0.000 A 
ATOM     18  C   UNL     1       5.175   4.461  16.447  0.00  0.00    +0.000 A 
ATOM     19  C   UNL     1       5.617   5.723  16.847  0.00  0.00    +0.000 A 
ATOM     20  C   UNL     1       4.791   6.546  17.619  0.00  0.00    +0.000 A 
BRANCH  18  21
ATOM     21  O   UNL     1       5.897   3.587  15.670  0.00  0.00    +0.000 OA
BRANCH  21  22
ATOM     22  C   UNL     1       6.389   3.989  14.451  0.00  0.00    +0.000 A 
ATOM     23  C   UNL     1       5.773   3.421  13.335  0.00  0.00    +0.000 A 
ATOM     24  C   UNL     1       6.208   3.749  12.050  0.00  0.00    +0.000 A 
ATOM     25  C   UNL     1       7.263   4.645  11.881  0.00  0.00    +0.000 A 
ATOM     26  C   UNL     1       7.852   5.246  12.991  0.00  0.00    +0.000 A 
ATOM     27  C   UNL     1       7.395   4.942  14.274  0.00  0.00    +0.000 A 
ENDBRANCH  21  22
ENDBRANCH  18  21
ENDBRANCH   3  15
TORSDOF 4
ENDMDL
MODEL 5
REMARK VINA RESULT:      -7.9      2.379      3.811
REMARK  Name = 
REMARK  4 active torsions:
REMARK  status: ('A' for Active; 'I' for Inactive)
REMARK    1  A    between atoms: C_2  and  C_17
REMARK    2  A    between atoms: N_3  and  C_4
REMARK    3  A    between atoms: C_7  and  O_8
REMARK    4  A    between atoms: O_8  and  C_9
REMARK                            x       y       z     vdW  Elec       q    Type
REMARK                         _______ _______ _______ _____ _____    ______ ____
ROOT
ATOM      1  O   UNL     1       1.892   9.252  22.441  0.00  0.00    +0.000 OA
ATOM      2  C   UNL     1       0.919   9.277  21.690  0.00  0.00    +0.000 C 
ATOM      3  N   UNL     1       0.701   8.406  20.643  0.00  0.00    +0.000 N 
ATOM      4  H   UNL     1      -0.092   8.599  20.029  0.00  0.00    +0.000 HD
ENDROOT
BRANCH   2   5
ATOM      5  C   UNL     1      -0.104  10.346  21.851  0.00  0.00    +0.000 A 
ATOM      6  C   UNL     1      -0.792  10.395  23.003  0.00  0.00    +0.000 A 
ATOM      7  N   UNL     1      -1.766  11.307  23.316  0.00  0.00    +0.000 NA
ATOM      8  C   UNL     1      -2.051  12.163  22.399  0.00  0.00    +0.000 A 
ATOM      9  N   UNL     1      -1.455  12.228  21.172  0.00  0.00    +0.000 N 
ATOM     10  C   UNL     1      -0.432  11.373  20.835  0.00  0.00    +0.000 A 
ATOM     11  O   UNL     1       0.196  11.449  19.778  0.00  0.00    +0.000 OA
ATOM     12  C   UNL     1      -1.916  13.262  20.280  0.00  0.00    +0.000 C 
ATOM     13  C   UNL     1      -3.019  14.074  20.938  0.00  0.00    +0.000 C 
ATOM     14  S   UNL     1      -3.257  13.390  22.596  0.00  0.00    +0.000 S 
ENDBRANCH   2   5
BRANCH   3  15
ATOM     15  C   UNL     1       1.536   7.331  20.272  0.00  0.00    +0.000 A 
ATOM     16  C   UNL     1       1.572   6.117  20.963  0.00  0.00    +0.000 A 
ATOM     17  C   UNL     1       2.424   5.091  20.550  0.00  0.00    +0.000 A 
ATOM     18  C   UNL     1       3.252   5.269  19.446  0.00  0.00    +0.000 A 
ATOM     19  C   UNL     1       3.256   6.496  18.780  0.00  0.00    +0.000 A 
ATOM     20  C   UNL     1       2.368   7.506  19.162  0.00  0.00    +0.000 A 
BRANCH  18  21
ATOM     21  O   UNL     1       4.065   4.205  19.136  0.00  0.00    +0.000 OA
BRANCH  21  22
ATOM     22  C   UNL     1       5.111   4.366  18.260  0.00  0.00    +0.000 A 
ATOM     23  C   UNL     1       4.856   3.992  16.940  0.00  0.00    +0.000 A 
ATOM     24  C   UNL     1       5.857   4.099  15.973  0.00  0.00    +0.000 A 
ATOM     25  C   UNL     1       7.116   4.581  16.327  0.00  0.00    +0.000 A 
ATOM     26  C   UNL     1       7.362   4.995  17.634  0.00  0.00    +0.000 A 
ATOM     27  C   UNL     1       6.352   4.917  18.593  0.00  0.00    +0.000 A 
ENDBRANCH  21  22
ENDBRANCH  18  21
ENDBRANCH   3  15
TORSDOF 4
ENDMDL
MODEL 6
REMARK VINA RESULT:      -7.9      3.684      5.118
REMARK  Name = 
REMARK  4 active torsions:
REMARK  status: ('A' for Active; 'I' for Inactive)
REMARK    1  A    between atoms: C_2  and  C_17
REMARK    2  A    between atoms: N_3  and  C_4
REMARK    3  A    between atoms: C_7  and  O_8
REMARK    4  A    between atoms: O_8  and  C_9
REMARK                            x       y       z     vdW  Elec       q    Type
REMARK                         _______ _______ _______ _____ _____    ______ ____
ROOT
ATOM      1  O   UNL     1       1.592  11.757  21.226  0.00  0.00    +0.000 OA
ATOM      2  C   UNL     1       0.427  11.407  21.042  0.00  0.00    +0.000 C 
ATOM      3  N   UNL     1       0.035  10.285  20.342  0.00  0.00    +0.000 N 
ATOM      4  H   UNL     1      -0.963  10.164  20.170  0.00  0.00    +0.000 HD
ENDROOT
BRANCH   2   5
ATOM      5  C   UNL     1      -0.683  12.260  21.549  0.00  0.00    +0.000 A 
ATOM      6  C   UNL     1      -0.886  13.450  20.961  0.00  0.00    +0.000 A 
ATOM      7  N   UNL     1      -1.855  14.356  21.302  0.00  0.00    +0.000 NA
ATOM      8  C   UNL     1      -2.607  14.031  22.294  0.00  0.00    +0.000 A 
ATOM      9  N   UNL     1      -2.511  12.868  23.004  0.00  0.00    +0.000 N 
ATOM     10  C   UNL     1      -1.594  11.902  22.661  0.00  0.00    +0.000 A 
ATOM     11  O   UNL     1      -1.528  10.802  23.211  0.00  0.00    +0.000 OA
ATOM     12  C   UNL     1      -3.448  12.687  24.084  0.00  0.00    +0.000 C 
ATOM     13  C   UNL     1      -4.362  13.895  24.198  0.00  0.00    +0.000 C 
ATOM     14  S   UNL     1      -3.883  15.042  22.884  0.00  0.00    +0.000 S 
ENDBRANCH   2   5
BRANCH   3  15
ATOM     15  C   UNL     1       0.895   9.340  19.744  0.00  0.00    +0.000 A 
ATOM     16  C   UNL     1       1.285   9.401  18.404  0.00  0.00    +0.000 A 
ATOM     17  C   UNL     1       2.135   8.432  17.867  0.00  0.00    +0.000 A 
ATOM     18  C   UNL     1       2.600   7.389  18.663  0.00  0.00    +0.000 A 
ATOM     19  C   UNL     1       2.176   7.295  19.989  0.00  0.00    +0.000 A 
ATOM     20  C   UNL     1       1.365   8.291  20.542  0.00  0.00    +0.000 A 
BRANCH  18  21
ATOM     21  O   UNL     1       3.415   6.480  18.033  0.00  0.00    +0.000 OA
BRANCH  21  22
ATOM     22  C   UNL     1       3.196   5.131  18.188  0.00  0.00    +0.000 A 
ATOM     23  C   UNL     1       4.190   4.435  18.878  0.00  0.00    +0.000 A 
ATOM     24  C   UNL     1       4.074   3.058  19.075  0.00  0.00    +0.000 A 
ATOM     25  C   UNL     1       2.963   2.376  18.580  0.00  0.00    +0.000 A 
ATOM     26  C   UNL     1       1.950   3.075  17.927  0.00  0.00    +0.000 A 
ATOM     27  C   UNL     1       2.051   4.456  17.758  0.00  0.00    +0.000 A 
ENDBRANCH  21  22
ENDBRANCH  18  21
ENDBRANCH   3  15
TORSDOF 4
ENDMDL
MODEL 7
REMARK VINA RESULT:      -7.9      3.956     10.606
REMARK  Name = 
REMARK  4 active torsions:
REMARK  status: ('A' for Active; 'I' for Inactive)
REMARK    1  A    between atoms: C_2  and  C_17
REMARK    2  A    between atoms: N_3  and  C_4
REMARK    3  A    between atoms: C_7  and  O_8
REMARK    4  A    between atoms: O_8  and  C_9
REMARK                            x       y       z     vdW  Elec       q    Type
REMARK                         _______ _______ _______ _____ _____    ______ ____
ROOT
ATOM      1  O   UNL     1       0.908   9.463  18.551  0.00  0.00    +0.000 OA
ATOM      2  C   UNL     1       1.419   8.747  19.411  0.00  0.00    +0.000 C 
ATOM      3  N   UNL     1       1.275   8.914  20.772  0.00  0.00    +0.000 N 
ATOM      4  H   UNL     1       1.837   8.317  21.380  0.00  0.00    +0.000 HD
ENDROOT
BRANCH   2   5
ATOM      5  C   UNL     1       2.315   7.632  18.998  0.00  0.00    +0.000 A 
ATOM      6  C   UNL     1       3.110   7.821  17.932  0.00  0.00    +0.000 A 
ATOM      7  N   UNL     1       3.989   6.905  17.417  0.00  0.00    +0.000 NA
ATOM      8  C   UNL     1       4.018   5.761  18.003  0.00  0.00    +0.000 A 
ATOM      9  N   UNL     1       3.258   5.412  19.083  0.00  0.00    +0.000 N 
ATOM     10  C   UNL     1       2.407   6.317  19.672  0.00  0.00    +0.000 A 
ATOM     11  O   UNL     1       1.768   6.080  20.698  0.00  0.00    +0.000 OA
ATOM     12  C   UNL     1       3.436   4.078  19.599  0.00  0.00    +0.000 C 
ATOM     13  C   UNL     1       4.468   3.326  18.775  0.00  0.00    +0.000 C 
ATOM     14  S   UNL     1       5.054   4.468  17.500  0.00  0.00    +0.000 S 
ENDBRANCH   2   5
BRANCH   3  15
ATOM     15  C   UNL     1       0.504   9.910  21.407  0.00  0.00    +0.000 A 
ATOM     16  C   UNL     1       0.549  11.259  21.046  0.00  0.00    +0.000 A 
ATOM     17  C   UNL     1      -0.234  12.200  21.716  0.00  0.00    +0.000 A 
ATOM     18  C   UNL     1      -1.068  11.804  22.758  0.00  0.00    +0.000 A 
ATOM     19  C   UNL     1      -1.082  10.466  23.156  0.00  0.00    +0.000 A 
ATOM     20  C   UNL     1      -0.335   9.515  22.454  0.00  0.00    +0.000 A 
BRANCH  18  21
ATOM     21  O   UNL     1      -1.782  12.810  23.363  0.00  0.00    +0.000 OA
BRANCH  21  22
ATOM     22  C   UNL     1      -3.156  12.800  23.329  0.00  0.00    +0.000 A 
ATOM     23  C   UNL     1      -3.728  12.975  22.068  0.00  0.00    +0.000 A 
ATOM     24  C   UNL     1      -5.117  12.999  21.924  0.00  0.00    +0.000 A 
ATOM     25  C   UNL     1      -5.934  12.848  23.044  0.00  0.00    +0.000 A 
ATOM     26  C   UNL     1      -5.366  12.632  24.297  0.00  0.00    +0.000 A 
ATOM     27  C   UNL     1      -3.979  12.577  24.436  0.00  0.00    +0.000 A 
ENDBRANCH  21  22
ENDBRANCH  18  21
ENDBRANCH   3  15
TORSDOF 4
ENDMDL
MODEL 8
REMARK VINA RESULT:      -7.9      2.281      3.908
REMARK  Name = 
REMARK  4 active torsions:
REMARK  status: ('A' for Active; 'I' for Inactive)
REMARK    1  A    between atoms: C_2  and  C_17
REMARK    2  A    between atoms: N_3  and  C_4
REMARK    3  A    between atoms: C_7  and  O_8
REMARK    4  A    between atoms: O_8  and  C_9
REMARK                            x       y       z     vdW  Elec       q    Type
REMARK                         _______ _______ _______ _____ _____    ______ ____
ROOT
ATOM      1  O   UNL     1      -0.557   8.115  21.480  0.00  0.00    +0.000 OA
ATOM      2  C   UNL     1       0.162   9.068  21.185  0.00  0.00    +0.000 C 
ATOM      3  N   UNL     1       1.322   8.989  20.443  0.00  0.00    +0.000 N 
ATOM      4  H   UNL     1       1.884   9.837  20.358  0.00  0.00    +0.000 HD
ENDROOT
BRANCH   2   5
ATOM      5  C   UNL     1      -0.176  10.426  21.693  0.00  0.00    +0.000 A 
ATOM      6  C   UNL     1      -0.871  10.518  22.838  0.00  0.00    +0.000 A 
ATOM      7  N   UNL     1      -1.267  11.682  23.443  0.00  0.00    +0.000 NA
ATOM      8  C   UNL     1      -0.961  12.770  22.827  0.00  0.00    +0.000 A 
ATOM      9  N   UNL     1      -0.276  12.838  21.647  0.00  0.00    +0.000 N 
ATOM     10  C   UNL     1       0.194  11.700  21.034  0.00  0.00    +0.000 A 
ATOM     11  O   UNL     1       0.891  11.714  20.019  0.00  0.00    +0.000 OA
ATOM     12  C   UNL     1      -0.029  14.154  21.115  0.00  0.00    +0.000 C 
ATOM     13  C   UNL     1      -0.627  15.213  22.026  0.00  0.00    +0.000 C 
ATOM     14  S   UNL     1      -1.377  14.341  23.422  0.00  0.00    +0.000 S 
ENDBRANCH   2   5
BRANCH   3  15
ATOM     15  C   UNL     1       1.864   7.817  19.877  0.00  0.00    +0.000 A 
ATOM     16  C   UNL     1       2.378   7.760  18.579  0.00  0.00    +0.000 A 
ATOM     17  C   UNL     1       2.897   6.568  18.072  0.00  0.00    +0.000 A 
ATOM     18  C   UNL     1       2.905   5.417  18.855  0.00  0.00    +0.000 A 
ATOM     19  C   UNL     1       2.350   5.454  20.136  0.00  0.00    +0.000 A 
ATOM     20  C   UNL     1       1.875   6.659  20.663  0.00  0.00    +0.000 A 
BRANCH  18  21
ATOM     21  O   UNL     1       3.421   4.294  18.256  0.00  0.00    +0.000 OA
BRANCH  21  22
ATOM     22  C   UNL     1       4.639   4.346  17.621  0.00  0.00    +0.000 A 
ATOM     23  C   UNL     1       5.734   4.629  18.439  0.00  0.00    +0.000 A 
ATOM     24  C   UNL     1       7.014   4.722  17.892  0.00  0.00    +0.000 A 
ATOM     25  C   UNL     1       7.201   4.531  16.523  0.00  0.00    +0.000 A 
ATOM     26  C   UNL     1       6.116   4.206  15.711  0.00  0.00    +0.000 A 
ATOM     27  C   UNL     1       4.842   4.083  16.264  0.00  0.00    +0.000 A 
ENDBRANCH  21  22
ENDBRANCH  18  21
ENDBRANCH   3  15
TORSDOF 4
ENDMDL
MODEL 9
REMARK VINA RESULT:      -7.8      3.438      4.976
REMARK  Name = 
REMARK  4 active torsions:
REMARK  status: ('A' for Active; 'I' for Inactive)
REMARK    1  A    between atoms: C_2  and  C_17
REMARK    2  A    between atoms: N_3  and  C_4
REMARK    3  A    between atoms: C_7  and  O_8
REMARK    4  A    between atoms: O_8  and  C_9
REMARK                            x       y       z     vdW  Elec       q    Type
REMARK                         _______ _______ _______ _____ _____    ______ ____
ROOT
ATOM      1  O   UNL     1       1.475  10.095  22.269  0.00  0.00    +0.000 OA
ATOM      2  C   UNL     1       0.536  10.271  21.495  0.00  0.00    +0.000 C 
ATOM      3  N   UNL     1       0.389   9.653  20.270  0.00  0.00    +0.000 N 
ATOM      4  H   UNL     1      -0.381   9.965  19.677  0.00  0.00    +0.000 HD
ENDROOT
BRANCH   2   5
ATOM      5  C   UNL     1      -0.523  11.259  21.840  0.00  0.00    +0.000 A 
ATOM      6  C   UNL     1      -1.243  11.052  22.955  0.00  0.00    +0.000 A 
ATOM      7  N   UNL     1      -2.252  11.855  23.417  0.00  0.00    +0.000 NA
ATOM      8  C   UNL     1      -2.539  12.875  22.687  0.00  0.00    +0.000 A 
ATOM      9  N   UNL     1      -1.912  13.207  21.520  0.00  0.00    +0.000 N 
ATOM     10  C   UNL     1      -0.855  12.466  21.048  0.00  0.00    +0.000 A 
ATOM     11  O   UNL     1      -0.202  12.773  20.050  0.00  0.00    +0.000 OA
ATOM     12  C   UNL     1      -2.380  14.392  20.846  0.00  0.00    +0.000 C 
ATOM     13  C   UNL     1      -3.524  15.024  21.621  0.00  0.00    +0.000 C 
ATOM     14  S   UNL     1      -3.786  14.006  23.093  0.00  0.00    +0.000 S 
ENDBRANCH   2   5
BRANCH   3  15
ATOM     15  C   UNL     1       1.269   8.704  19.711  0.00  0.00    +0.000 A 
ATOM     16  C   UNL     1       1.858   8.855  18.453  0.00  0.00    +0.000 A 
ATOM     17  C   UNL     1       2.718   7.877  17.949  0.00  0.00    +0.000 A 
ATOM     18  C   UNL     1       2.995   6.736  18.696  0.00  0.00    +0.000 A 
ATOM     19  C   UNL     1       2.373   6.556  19.932  0.00  0.00    +0.000 A 
ATOM     20  C   UNL     1       1.551   7.557  20.459  0.00  0.00    +0.000 A 
BRANCH  18  21
ATOM     21  O   UNL     1       3.838   5.828  18.102  0.00  0.00    +0.000 OA
BRANCH  21  22
ATOM     22  C   UNL     1       3.590   4.480  18.209  0.00  0.00    +0.000 A 
ATOM     23  C   UNL     1       4.361   3.798  19.151  0.00  0.00    +0.000 A 
ATOM     24  C   UNL     1       4.200   2.423  19.328  0.00  0.00    +0.000 A 
ATOM     25  C   UNL     1       3.267   1.728  18.559  0.00  0.00    +0.000 A 
ATOM     26  C   UNL     1       2.467   2.413  17.647  0.00  0.00    +0.000 A 
ATOM     27  C   UNL     1       2.606   3.793  17.493  0.00  0.00    +0.000 A 
ENDBRANCH  21  22
ENDBRANCH  18  21
ENDBRANCH   3  15
TORSDOF 4
ENDMDL
