MODEL 1
REMARK VINA RESULT:      -6.4      0.000      0.000
REMARK  Name = 
REMARK  12 active torsions:
REMARK  status: ('A' for Active; 'I' for Inactive)
REMARK    1  A    between atoms: C_1  and  N_2
REMARK    2  A    between atoms: N_2  and  C_3
REMARK    3  A    between atoms: C_11  and  N_12
REMARK    4  A    between atoms: N_15  and  C_16
REMARK    5  A    between atoms: C_16  and  C_17
REMARK    6  A    between atoms: C_16  and  C_18
REMARK    7  A    between atoms: C_23  and  O_24
REMARK    8  A    between atoms: O_24  and  C_25
REMARK    9  A    between atoms: C_26  and  O_27
REMARK   10  A    between atoms: O_27  and  C_28
REMARK   11  A    between atoms: C_29  and  O_30
REMARK   12  A    between atoms: O_30  and  C_31
REMARK                            x       y       z     vdW  Elec       q    Type
REMARK                         _______ _______ _______ _____ _____    ______ ____
ROOT
ATOM      1  C   UNL     1       1.716   7.985  19.748  0.00  0.00    +0.000 A 
ATOM      2  C   UNL     1       0.651   8.239  20.502  0.00  0.00    +0.000 A 
ATOM      3  C   UNL     1      -0.214   9.376  20.614  0.00  0.00    +0.000 A 
ATOM      4  C   UNL     1      -0.052  10.636  20.179  0.00  0.00    +0.000 A 
ATOM      5  C   UNL     1       0.890  11.079  19.123  0.00  0.00    +0.000 A 
ATOM      6  C   UNL     1       1.782  10.296  18.491  0.00  0.00    +0.000 A 
ATOM      7  C   UNL     1       2.202   8.886  18.644  0.00  0.00    +0.000 A 
ATOM      8  O   UNL     1       3.033   8.453  17.839  0.00  0.00    +0.000 OA
ATOM      9  C   UNL     1       0.645  12.533  18.631  0.00  0.00    +0.000 C 
ATOM     10  C   UNL     1      -0.632  12.584  17.752  0.00  0.00    +0.000 C 
ATOM     11  C   UNL     1      -1.843  11.855  18.337  0.00  0.00    +0.000 C 
ATOM     12  C   UNL     1      -1.972  12.134  19.817  0.00  0.00    +0.000 A 
ATOM     13  C   UNL     1      -2.952  13.027  20.231  0.00  0.00    +0.000 A 
ATOM     14  C   UNL     1      -3.094  13.367  21.573  0.00  0.00    +0.000 A 
ATOM     15  C   UNL     1      -2.211  12.823  22.541  0.00  0.00    +0.000 A 
ATOM     16  C   UNL     1      -1.191  11.918  22.135  0.00  0.00    +0.000 A 
ATOM     17  C   UNL     1      -1.075  11.574  20.756  0.00  0.00    +0.000 A 
ENDROOT
BRANCH   9  18
ATOM     18  N   UNL     1       1.809  13.083  17.921  0.00  0.00    +0.000 N 
ATOM     19  C   UNL     1       2.799  13.730  18.629  0.00  0.00    +0.000 C 
ATOM     20  O   UNL     1       2.782  13.915  19.837  0.00  0.00    +0.000 OA
ATOM     21  N   UNL     1       3.821  14.137  17.809  0.00  0.00    +0.000 N 
ATOM     22  H   UNL     1       2.207  12.484  17.212  0.00  0.00    +0.000 HD
ATOM     23  H   UNL     1       3.560  14.307  16.849  0.00  0.00    +0.000 HD
BRANCH  21  24
ATOM     24  C   UNL     1       4.927  14.926  18.350  0.00  0.00    +0.000 C 
ATOM     25  C   UNL     1       6.228  14.573  17.640  0.00  0.00    +0.000 C 
ATOM     26  C   UNL     1       4.643  16.425  18.244  0.00  0.00    +0.000 C 
ENDBRANCH  21  24
ENDBRANCH   9  18
BRANCH   1  28
ATOM     27  C   UNL     1       2.075   5.556  20.439  0.00  0.00    +0.000 C 
ATOM     28  N   UNL     1       2.490   6.837  19.920  0.00  0.00    +0.000 N 
ATOM     29  H   UNL     1       3.474   6.964  19.681  0.00  0.00    +0.000 HD
ENDBRANCH   1  28
BRANCH  14  30
ATOM     30  O   UNL     1      -4.061  14.257  21.993  0.00  0.00    +0.000 OA
ATOM     31  C   UNL     1      -5.409  13.786  21.945  0.00  0.00    +0.000 C 
ENDBRANCH  14  30
BRANCH  15  32
ATOM     32  O   UNL     1      -2.471  13.259  23.824  0.00  0.00    +0.000 OA
ATOM     33  C   UNL     1      -1.805  14.396  24.348  0.00  0.00    +0.000 C 
ENDBRANCH  15  32
BRANCH  16  34
ATOM     34  O   UNL     1      -0.465  11.320  23.136  0.00  0.00    +0.000 OA
ATOM     35  C   UNL     1      -0.730   9.978  23.527  0.00  0.00    +0.000 C 
ENDBRANCH  16  34
TORSDOF 6
ENDMDL
MODEL 2
REMARK VINA RESULT:      -6.3      2.836      5.566
REMARK  Name = 
REMARK  12 active torsions:
REMARK  status: ('A' for Active; 'I' for Inactive)
REMARK    1  A    between atoms: C_1  and  N_2
REMARK    2  A    between atoms: N_2  and  C_3
REMARK    3  A    between atoms: C_11  and  N_12
REMARK    4  A    between atoms: N_15  and  C_16
REMARK    5  A    between atoms: C_16  and  C_17
REMARK    6  A    between atoms: C_16  and  C_18
REMARK    7  A    between atoms: C_23  and  O_24
REMARK    8  A    between atoms: O_24  and  C_25
REMARK    9  A    between atoms: C_26  and  O_27
REMARK   10  A    between atoms: O_27  and  C_28
REMARK   11  A    between atoms: C_29  and  O_30
REMARK   12  A    between atoms: O_30  and  C_31
REMARK                            x       y       z     vdW  Elec       q    Type
REMARK                         _______ _______ _______ _____ _____    ______ ____
ROOT
ATOM      1  C   UNL     1      -4.248  11.012  18.208  0.00  0.00    +0.000 A 
ATOM      2  C   UNL     1      -4.127  12.075  18.997  0.00  0.00    +0.000 A 
ATOM      3  C   UNL     1      -2.995  12.721  19.592  0.00  0.00    +0.000 A 
ATOM      4  C   UNL     1      -1.733  12.292  19.749  0.00  0.00    +0.000 A 
ATOM      5  C   UNL     1      -1.085  11.193  18.992  0.00  0.00    +0.000 A 
ATOM      6  C   UNL     1      -1.690  10.407  18.083  0.00  0.00    +0.000 A 
ATOM      7  C   UNL     1      -3.083  10.271  17.607  0.00  0.00    +0.000 A 
ATOM      8  O   UNL     1      -3.292   9.465  16.693  0.00  0.00    +0.000 OA
ATOM      9  C   UNL     1       0.455  11.120  19.182  0.00  0.00    +0.000 C 
ATOM     10  C   UNL     1       1.137  12.281  18.412  0.00  0.00    +0.000 C 
ATOM     11  C   UNL     1       0.494  13.654  18.620  0.00  0.00    +0.000 C 
ATOM     12  C   UNL     1       0.135  13.862  20.074  0.00  0.00    +0.000 A 
ATOM     13  C   UNL     1       0.947  14.694  20.836  0.00  0.00    +0.000 A 
ATOM     14  C   UNL     1       0.704  14.890  22.192  0.00  0.00    +0.000 A 
ATOM     15  C   UNL     1      -0.369  14.213  22.827  0.00  0.00    +0.000 A 
ATOM     16  C   UNL     1      -1.203  13.345  22.067  0.00  0.00    +0.000 A 
ATOM     17  C   UNL     1      -0.942  13.171  20.677  0.00  0.00    +0.000 A 
ENDROOT
BRANCH   9  18
ATOM     18  N   UNL     1       1.004   9.816  18.783  0.00  0.00    +0.000 N 
ATOM     19  C   UNL     1       1.420   8.925  19.749  0.00  0.00    +0.000 C 
ATOM     20  O   UNL     1       1.395   9.141  20.952  0.00  0.00    +0.000 OA
ATOM     21  N   UNL     1       1.861   7.750  19.194  0.00  0.00    +0.000 N 
ATOM     22  H   UNL     1       0.499   9.340  18.049  0.00  0.00    +0.000 HD
ATOM     23  H   UNL     1       2.217   7.826  18.253  0.00  0.00    +0.000 HD
BRANCH  21  24
ATOM     24  C   UNL     1       2.435   6.707  20.043  0.00  0.00    +0.000 C 
ATOM     25  C   UNL     1       1.350   5.740  20.502  0.00  0.00    +0.000 C 
ATOM     26  C   UNL     1       3.555   5.958  19.321  0.00  0.00    +0.000 C 
ENDBRANCH  21  24
ENDBRANCH   9  18
BRANCH   1  28
ATOM     27  C   UNL     1      -6.739  10.608  18.578  0.00  0.00    +0.000 C 
ATOM     28  N   UNL     1      -5.492  10.482  17.863  0.00  0.00    +0.000 N 
ATOM     29  H   UNL     1      -5.475   9.905  17.021  0.00  0.00    +0.000 HD
ENDBRANCH   1  28
BRANCH  14  30
ATOM     30  O   UNL     1       1.508  15.710  22.956  0.00  0.00    +0.000 OA
ATOM     31  C   UNL     1       2.803  15.990  22.423  0.00  0.00    +0.000 C 
ENDBRANCH  14  30
BRANCH  15  32
ATOM     32  O   UNL     1      -0.478  14.502  24.171  0.00  0.00    +0.000 OA
ATOM     33  C   UNL     1      -1.470  15.404  24.636  0.00  0.00    +0.000 C 
ENDBRANCH  15  32
BRANCH  16  34
ATOM     34  O   UNL     1      -2.306  12.835  22.709  0.00  0.00    +0.000 OA
ATOM     35  C   UNL     1      -2.243  11.583  23.381  0.00  0.00    +0.000 C 
ENDBRANCH  16  34
TORSDOF 6
ENDMDL
MODEL 3
REMARK VINA RESULT:      -6.2      5.812     10.432
REMARK  Name = 
REMARK  12 active torsions:
REMARK  status: ('A' for Active; 'I' for Inactive)
REMARK    1  A    between atoms: C_1  and  N_2
REMARK    2  A    between atoms: N_2  and  C_3
REMARK    3  A    between atoms: C_11  and  N_12
REMARK    4  A    between atoms: N_15  and  C_16
REMARK    5  A    between atoms: C_16  and  C_17
REMARK    6  A    between atoms: C_16  and  C_18
REMARK    7  A    between atoms: C_23  and  O_24
REMARK    8  A    between atoms: O_24  and  C_25
REMARK    9  A    between atoms: C_26  and  O_27
REMARK   10  A    between atoms: O_27  and  C_28
REMARK   11  A    between atoms: C_29  and  O_30
REMARK   12  A    between atoms: O_30  and  C_31
REMARK                            x       y       z     vdW  Elec       q    Type
REMARK                         _______ _______ _______ _____ _____    ______ ____
ROOT
ATOM      1  C   UNL     1       7.168  12.190  25.085  0.00  0.00    +0.000 A 
ATOM      2  C   UNL     1       8.413  12.182  24.619  0.00  0.00    +0.000 A 
ATOM      3  C   UNL     1       9.051  12.869  23.536  0.00  0.00    +0.000 A 
ATOM      4  C   UNL     1       8.521  13.532  22.495  0.00  0.00    +0.000 A 
ATOM      5  C   UNL     1       7.138  14.062  22.412  0.00  0.00    +0.000 A 
ATOM      6  C   UNL     1       6.179  13.892  23.339  0.00  0.00    +0.000 A 
ATOM      7  C   UNL     1       6.092  13.126  24.600  0.00  0.00    +0.000 A 
ATOM      8  O   UNL     1       5.052  13.236  25.259  0.00  0.00    +0.000 OA
ATOM      9  C   UNL     1       6.906  15.031  21.220  0.00  0.00    +0.000 C 
ATOM     10  C   UNL     1       7.592  16.392  21.506  0.00  0.00    +0.000 C 
ATOM     11  C   UNL     1       9.027  16.290  22.025  0.00  0.00    +0.000 C 
ATOM     12  C   UNL     1       9.800  15.238  21.263  0.00  0.00    +0.000 A 
ATOM     13  C   UNL     1      10.717  15.661  20.309  0.00  0.00    +0.000 A 
ATOM     14  C   UNL     1      11.425  14.745  19.537  0.00  0.00    +0.000 A 
ATOM     15  C   UNL     1      11.194  13.354  19.694  0.00  0.00    +0.000 A 
ATOM     16  C   UNL     1      10.248  12.901  20.656  0.00  0.00    +0.000 A 
ATOM     17  C   UNL     1       9.545  13.858  21.445  0.00  0.00    +0.000 A 
ENDROOT
BRANCH   9  18
ATOM     18  N   UNL     1       5.478  15.203  20.913  0.00  0.00    +0.000 N 
ATOM     19  C   UNL     1       5.038  15.068  19.613  0.00  0.00    +0.000 C 
ATOM     20  O   UNL     1       5.759  14.833  18.655  0.00  0.00    +0.000 OA
ATOM     21  N   UNL     1       3.677  15.220  19.525  0.00  0.00    +0.000 N 
ATOM     22  H   UNL     1       4.840  14.758  21.556  0.00  0.00    +0.000 HD
ATOM     23  H   UNL     1       3.261  15.792  20.245  0.00  0.00    +0.000 HD
BRANCH  21  24
ATOM     24  C   UNL     1       3.020  15.207  18.219  0.00  0.00    +0.000 C 
ATOM     25  C   UNL     1       1.933  14.139  18.181  0.00  0.00    +0.000 C 
ATOM     26  C   UNL     1       2.441  16.579  17.875  0.00  0.00    +0.000 C 
ENDBRANCH  21  24
ENDBRANCH   9  18
BRANCH   1  28
ATOM     27  C   UNL     1       6.823  11.493  27.514  0.00  0.00    +0.000 C 
ATOM     28  N   UNL     1       6.745  11.313  26.085  0.00  0.00    +0.000 N 
ATOM     29  H   UNL     1       6.379  10.429  25.729  0.00  0.00    +0.000 HD
ENDBRANCH   1  28
BRANCH  14  30
ATOM     30  O   UNL     1      12.333  15.157  18.584  0.00  0.00    +0.000 OA
ATOM     31  C   UNL     1      11.791  15.863  17.466  0.00  0.00    +0.000 C 
ENDBRANCH  14  30
BRANCH  15  32
ATOM     32  O   UNL     1      11.963  12.575  18.855  0.00  0.00    +0.000 OA
ATOM     33  C   UNL     1      11.433  12.092  17.631  0.00  0.00    +0.000 C 
ENDBRANCH  15  32
BRANCH  16  34
ATOM     34  O   UNL     1      10.178  11.544  20.857  0.00  0.00    +0.000 OA
ATOM     35  C   UNL     1       9.286  10.740  20.096  0.00  0.00    +0.000 C 
ENDBRANCH  16  34
TORSDOF 6
ENDMDL
MODEL 4
REMARK VINA RESULT:      -6.1      2.934      5.508
REMARK  Name = 
REMARK  12 active torsions:
REMARK  status: ('A' for Active; 'I' for Inactive)
REMARK    1  A    between atoms: C_1  and  N_2
REMARK    2  A    between atoms: N_2  and  C_3
REMARK    3  A    between atoms: C_11  and  N_12
REMARK    4  A    between atoms: N_15  and  C_16
REMARK    5  A    between atoms: C_16  and  C_17
REMARK    6  A    between atoms: C_16  and  C_18
REMARK    7  A    between atoms: C_23  and  O_24
REMARK    8  A    between atoms: O_24  and  C_25
REMARK    9  A    between atoms: C_26  and  O_27
REMARK   10  A    between atoms: O_27  and  C_28
REMARK   11  A    between atoms: C_29  and  O_30
REMARK   12  A    between atoms: O_30  and  C_31
REMARK                            x       y       z     vdW  Elec       q    Type
REMARK                         _______ _______ _______ _____ _____    ______ ____
ROOT
ATOM      1  C   UNL     1      -4.741  11.351  18.558  0.00  0.00    +0.000 A 
ATOM      2  C   UNL     1      -4.652  12.355  19.425  0.00  0.00    +0.000 A 
ATOM      3  C   UNL     1      -3.538  13.040  20.010  0.00  0.00    +0.000 A 
ATOM      4  C   UNL     1      -2.240  12.702  20.062  0.00  0.00    +0.000 A 
ATOM      5  C   UNL     1      -1.559  11.721  19.182  0.00  0.00    +0.000 A 
ATOM      6  C   UNL     1      -2.157  10.963  18.245  0.00  0.00    +0.000 A 
ATOM      7  C   UNL     1      -3.562  10.754  17.836  0.00  0.00    +0.000 A 
ATOM      8  O   UNL     1      -3.765  10.008  16.871  0.00  0.00    +0.000 OA
ATOM      9  C   UNL     1      -0.008  11.755  19.282  0.00  0.00    +0.000 C 
ATOM     10  C   UNL     1       0.537  13.024  18.576  0.00  0.00    +0.000 C 
ATOM     11  C   UNL     1      -0.194  14.320  18.931  0.00  0.00    +0.000 C 
ATOM     12  C   UNL     1      -0.478  14.385  20.414  0.00  0.00    +0.000 A 
ATOM     13  C   UNL     1       0.313  15.216  21.198  0.00  0.00    +0.000 A 
ATOM     14  C   UNL     1       0.138  15.286  22.576  0.00  0.00    +0.000 A 
ATOM     15  C   UNL     1      -0.840  14.478  23.210  0.00  0.00    +0.000 A 
ATOM     16  C   UNL     1      -1.651  13.609  22.427  0.00  0.00    +0.000 A 
ATOM     17  C   UNL     1      -1.463  13.565  21.015  0.00  0.00    +0.000 A 
ENDROOT
BRANCH   9  18
ATOM     18  N   UNL     1       0.611  10.534  18.747  0.00  0.00    +0.000 N 
ATOM     19  C   UNL     1       1.163   9.613  19.611  0.00  0.00    +0.000 C 
ATOM     20  O   UNL     1       1.206   9.738  20.826  0.00  0.00    +0.000 OA
ATOM     21  N   UNL     1       1.654   8.522  18.938  0.00  0.00    +0.000 N 
ATOM     22  H   UNL     1       0.095  10.073  18.012  0.00  0.00    +0.000 HD
ATOM     23  H   UNL     1       1.936   8.698  17.985  0.00  0.00    +0.000 HD
BRANCH  21  24
ATOM     24  C   UNL     1       2.366   7.472  19.663  0.00  0.00    +0.000 C 
ATOM     25  C   UNL     1       1.412   6.724  20.587  0.00  0.00    +0.000 C 
ATOM     26  C   UNL     1       3.056   6.503  18.702  0.00  0.00    +0.000 C 
ENDBRANCH  21  24
ENDBRANCH   9  18
BRANCH   1  28
ATOM     27  C   UNL     1      -6.967  10.251  19.143  0.00  0.00    +0.000 C 
ATOM     28  N   UNL     1      -5.960  10.752  18.239  0.00  0.00    +0.000 N 
ATOM     29  H   UNL     1      -6.109  10.630  17.236  0.00  0.00    +0.000 HD
ENDBRANCH   1  28
BRANCH  14  30
ATOM     30  O   UNL     1       0.924  16.104  23.362  0.00  0.00    +0.000 OA
ATOM     31  C   UNL     1       0.726  17.509  23.195  0.00  0.00    +0.000 C 
ENDBRANCH  14  30
BRANCH  15  32
ATOM     32  O   UNL     1      -0.889  14.651  24.578  0.00  0.00    +0.000 OA
ATOM     33  C   UNL     1      -1.789  15.583  25.154  0.00  0.00    +0.000 C 
ENDBRANCH  15  32
BRANCH  16  34
ATOM     34  O   UNL     1      -2.672  12.963  23.083  0.00  0.00    +0.000 OA
ATOM     35  C   UNL     1      -3.933  13.595  23.268  0.00  0.00    +0.000 C 
ENDBRANCH  16  34
TORSDOF 6
ENDMDL
MODEL 5
REMARK VINA RESULT:      -5.9      2.636      5.580
REMARK  Name = 
REMARK  12 active torsions:
REMARK  status: ('A' for Active; 'I' for Inactive)
REMARK    1  A    between atoms: C_1  and  N_2
REMARK    2  A    between atoms: N_2  and  C_3
REMARK    3  A    between atoms: C_11  and  N_12
REMARK    4  A    between atoms: N_15  and  C_16
REMARK    5  A    between atoms: C_16  and  C_17
REMARK    6  A    between atoms: C_16  and  C_18
REMARK    7  A    between atoms: C_23  and  O_24
REMARK    8  A    between atoms: O_24  and  C_25
REMARK    9  A    between atoms: C_26  and  O_27
REMARK   10  A    between atoms: O_27  and  C_28
REMARK   11  A    between atoms: C_29  and  O_30
REMARK   12  A    between atoms: O_30  and  C_31
REMARK                            x       y       z     vdW  Elec       q    Type
REMARK                         _______ _______ _______ _____ _____    ______ ____
ROOT
ATOM      1  C   UNL     1       2.941  14.537  19.856  0.00  0.00    +0.000 A 
ATOM      2  C   UNL     1       2.321  14.843  20.991  0.00  0.00    +0.000 A 
ATOM      3  C   UNL     1       1.166  14.305  21.645  0.00  0.00    +0.000 A 
ATOM      4  C   UNL     1       0.200  13.498  21.178  0.00  0.00    +0.000 A 
ATOM      5  C   UNL     1       0.292  12.635  19.975  0.00  0.00    +0.000 A 
ATOM      6  C   UNL     1       1.333  12.586  19.124  0.00  0.00    +0.000 A 
ATOM      7  C   UNL     1       2.596  13.346  19.001  0.00  0.00    +0.000 A 
ATOM      8  O   UNL     1       3.380  12.999  18.112  0.00  0.00    +0.000 OA
ATOM      9  C   UNL     1      -0.862  11.601  19.852  0.00  0.00    +0.000 C 
ATOM     10  C   UNL     1      -0.665  10.466  20.891  0.00  0.00    +0.000 C 
ATOM     11  C   UNL     1      -0.330  10.942  22.306  0.00  0.00    +0.000 C 
ATOM     12  C   UNL     1      -1.184  12.131  22.686  0.00  0.00    +0.000 A 
ATOM     13  C   UNL     1      -2.246  11.922  23.557  0.00  0.00    +0.000 A 
ATOM     14  C   UNL     1      -3.101  12.962  23.910  0.00  0.00    +0.000 A 
ATOM     15  C   UNL     1      -2.915  14.254  23.355  0.00  0.00    +0.000 A 
ATOM     16  C   UNL     1      -1.842  14.485  22.450  0.00  0.00    +0.000 A 
ATOM     17  C   UNL     1      -0.971  13.407  22.115  0.00  0.00    +0.000 A 
ENDROOT
BRANCH   9  18
ATOM     18  N   UNL     1      -0.986  11.066  18.488  0.00  0.00    +0.000 N 
ATOM     19  C   UNL     1      -2.081  11.399  17.721  0.00  0.00    +0.000 C 
ATOM     20  O   UNL     1      -3.004  12.107  18.096  0.00  0.00    +0.000 OA
ATOM     21  N   UNL     1      -2.006  10.844  16.468  0.00  0.00    +0.000 N 
ATOM     22  H   UNL     1      -0.141  11.085  17.936  0.00  0.00    +0.000 HD
ATOM     23  H   UNL     1      -1.465   9.994  16.407  0.00  0.00    +0.000 HD
BRANCH  21  24
ATOM     24  C   UNL     1      -3.116  10.999  15.529  0.00  0.00    +0.000 C 
ATOM     25  C   UNL     1      -2.952  10.045  14.352  0.00  0.00    +0.000 C 
ATOM     26  C   UNL     1      -4.462  10.778  16.218  0.00  0.00    +0.000 C 
ENDBRANCH  21  24
ENDBRANCH   9  18
BRANCH   1  28
ATOM     27  C   UNL     1       5.218  15.677  20.005  0.00  0.00    +0.000 C 
ATOM     28  N   UNL     1       3.986  15.310  19.349  0.00  0.00    +0.000 N 
ATOM     29  H   UNL     1       3.809  15.681  18.414  0.00  0.00    +0.000 HD
ENDBRANCH   1  28
BRANCH  14  30
ATOM     30  O   UNL     1      -4.161  12.762  24.769  0.00  0.00    +0.000 OA
ATOM     31  C   UNL     1      -5.434  12.550  24.155  0.00  0.00    +0.000 C 
ENDBRANCH  14  30
BRANCH  15  32
ATOM     32  O   UNL     1      -3.844  15.175  23.793  0.00  0.00    +0.000 OA
ATOM     33  C   UNL     1      -3.535  16.061  24.856  0.00  0.00    +0.000 C 
ENDBRANCH  15  32
BRANCH  16  34
ATOM     34  O   UNL     1      -1.633  15.786  22.063  0.00  0.00    +0.000 OA
ATOM     35  C   UNL     1      -2.219  16.295  20.871  0.00  0.00    +0.000 C 
ENDBRANCH  16  34
TORSDOF 6
ENDMDL
MODEL 6
REMARK VINA RESULT:      -5.9      5.552     10.059
REMARK  Name = 
REMARK  12 active torsions:
REMARK  status: ('A' for Active; 'I' for Inactive)
REMARK    1  A    between atoms: C_1  and  N_2
REMARK    2  A    between atoms: N_2  and  C_3
REMARK    3  A    between atoms: C_11  and  N_12
REMARK    4  A    between atoms: N_15  and  C_16
REMARK    5  A    between atoms: C_16  and  C_17
REMARK    6  A    between atoms: C_16  and  C_18
REMARK    7  A    between atoms: C_23  and  O_24
REMARK    8  A    between atoms: O_24  and  C_25
REMARK    9  A    between atoms: C_26  and  O_27
REMARK   10  A    between atoms: O_27  and  C_28
REMARK   11  A    between atoms: C_29  and  O_30
REMARK   12  A    between atoms: O_30  and  C_31
REMARK                            x       y       z     vdW  Elec       q    Type
REMARK                         _______ _______ _______ _____ _____    ______ ____
ROOT
ATOM      1  C   UNL     1       7.035  12.685  24.426  0.00  0.00    +0.000 A 
ATOM      2  C   UNL     1       8.156  12.689  23.713  0.00  0.00    +0.000 A 
ATOM      3  C   UNL     1       8.553  13.388  22.527  0.00  0.00    +0.000 A 
ATOM      4  C   UNL     1       7.816  14.053  21.623  0.00  0.00    +0.000 A 
ATOM      5  C   UNL     1       6.442  14.573  21.831  0.00  0.00    +0.000 A 
ATOM      6  C   UNL     1       5.695  14.390  22.935  0.00  0.00    +0.000 A 
ATOM      7  C   UNL     1       5.876  13.615  24.181  0.00  0.00    +0.000 A 
ATOM      8  O   UNL     1       4.993  13.713  25.041  0.00  0.00    +0.000 OA
ATOM      9  C   UNL     1       5.963  15.548  20.720  0.00  0.00    +0.000 C 
ATOM     10  C   UNL     1       6.685  16.912  20.869  0.00  0.00    +0.000 C 
ATOM     11  C   UNL     1       8.197  16.819  21.081  0.00  0.00    +0.000 C 
ATOM     12  C   UNL     1       8.802  15.777  20.168  0.00  0.00    +0.000 A 
ATOM     13  C   UNL     1       9.500  16.213  19.048  0.00  0.00    +0.000 A 
ATOM     14  C   UNL     1      10.039  15.307  18.139  0.00  0.00    +0.000 A 
ATOM     15  C   UNL     1       9.855  13.914  18.330  0.00  0.00    +0.000 A 
ATOM     16  C   UNL     1       9.130  13.447  19.463  0.00  0.00    +0.000 A 
ATOM     17  C   UNL     1       8.599  14.394  20.387  0.00  0.00    +0.000 A 
ENDROOT
BRANCH   9  18
ATOM     18  N   UNL     1       4.501  15.710  20.715  0.00  0.00    +0.000 N 
ATOM     19  C   UNL     1       3.815  15.680  19.521  0.00  0.00    +0.000 C 
ATOM     20  O   UNL     1       4.335  15.548  18.422  0.00  0.00    +0.000 OA
ATOM     21  N   UNL     1       2.462  15.805  19.714  0.00  0.00    +0.000 N 
ATOM     22  H   UNL     1       4.006  15.195  21.428  0.00  0.00    +0.000 HD
ATOM     23  H   UNL     1       2.192  16.301  20.551  0.00  0.00    +0.000 HD
BRANCH  21  24
ATOM     24  C   UNL     1       1.561  15.891  18.566  0.00  0.00    +0.000 C 
ATOM     25  C   UNL     1       0.222  15.239  18.892  0.00  0.00    +0.000 C 
ATOM     26  C   UNL     1       1.361  17.340  18.124  0.00  0.00    +0.000 C 
ENDBRANCH  21  24
ENDBRANCH   9  18
BRANCH   1  28
ATOM     27  C   UNL     1       7.244  11.948  26.859  0.00  0.00    +0.000 C 
ATOM     28  N   UNL     1       6.832  11.798  25.485  0.00  0.00    +0.000 N 
ATOM     29  H   UNL     1       6.370  10.929  25.212  0.00  0.00    +0.000 HD
ENDBRANCH   1  28
BRANCH  14  30
ATOM     30  O   UNL     1      10.729  15.732  17.023  0.00  0.00    +0.000 OA
ATOM     31  C   UNL     1      11.487  16.934  17.175  0.00  0.00    +0.000 C 
ENDBRANCH  14  30
BRANCH  15  32
ATOM     32  O   UNL     1      10.439  13.146  17.345  0.00  0.00    +0.000 OA
ATOM     33  C   UNL     1      11.793  12.737  17.457  0.00  0.00    +0.000 C 
ENDBRANCH  15  32
BRANCH  16  34
ATOM     34  O   UNL     1       9.112  12.088  19.664  0.00  0.00    +0.000 OA
ATOM     35  C   UNL     1      10.185  11.436  20.331  0.00  0.00    +0.000 C 
ENDBRANCH  16  34
TORSDOF 6
ENDMDL
MODEL 7
REMARK VINA RESULT:      -5.9      3.083      6.088
REMARK  Name = 
REMARK  12 active torsions:
REMARK  status: ('A' for Active; 'I' for Inactive)
REMARK    1  A    between atoms: C_1  and  N_2
REMARK    2  A    between atoms: N_2  and  C_3
REMARK    3  A    between atoms: C_11  and  N_12
REMARK    4  A    between atoms: N_15  and  C_16
REMARK    5  A    between atoms: C_16  and  C_17
REMARK    6  A    between atoms: C_16  and  C_18
REMARK    7  A    between atoms: C_23  and  O_24
REMARK    8  A    between atoms: O_24  and  C_25
REMARK    9  A    between atoms: C_26  and  O_27
REMARK   10  A    between atoms: O_27  and  C_28
REMARK   11  A    between atoms: C_29  and  O_30
REMARK   12  A    between atoms: O_30  and  C_31
REMARK                            x       y       z     vdW  Elec       q    Type
REMARK                         _______ _______ _______ _____ _____    ______ ____
ROOT
ATOM      1  C   UNL     1       2.991  15.868  19.561  0.00  0.00    +0.000 A 
ATOM      2  C   UNL     1       2.449  16.058  20.760  0.00  0.00    +0.000 A 
ATOM      3  C   UNL     1       1.357  15.433  21.445  0.00  0.00    +0.000 A 
ATOM      4  C   UNL     1       0.377  14.643  20.978  0.00  0.00    +0.000 A 
ATOM      5  C   UNL     1       0.399  13.890  19.700  0.00  0.00    +0.000 A 
ATOM      6  C   UNL     1       1.375  13.944  18.777  0.00  0.00    +0.000 A 
ATOM      7  C   UNL     1       2.609  14.746  18.631  0.00  0.00    +0.000 A 
ATOM      8  O   UNL     1       3.334  14.499  17.662  0.00  0.00    +0.000 OA
ATOM      9  C   UNL     1      -0.739  12.839  19.569  0.00  0.00    +0.000 C 
ATOM     10  C   UNL     1      -0.442  11.625  20.487  0.00  0.00    +0.000 C 
ATOM     11  C   UNL     1      -0.015  11.986  21.911  0.00  0.00    +0.000 C 
ATOM     12  C   UNL     1      -0.863  13.113  22.455  0.00  0.00    +0.000 A 
ATOM     13  C   UNL     1      -1.855  12.801  23.377  0.00  0.00    +0.000 A 
ATOM     14  C   UNL     1      -2.704  13.782  23.880  0.00  0.00    +0.000 A 
ATOM     15  C   UNL     1      -2.586  15.122  23.430  0.00  0.00    +0.000 A 
ATOM     16  C   UNL     1      -1.587  15.459  22.474  0.00  0.00    +0.000 A 
ATOM     17  C   UNL     1      -0.721  14.439  21.984  0.00  0.00    +0.000 A 
ENDROOT
BRANCH   9  18
ATOM     18  N   UNL     1      -0.951  12.421  18.176  0.00  0.00    +0.000 N 
ATOM     19  C   UNL     1      -2.077  11.698  17.844  0.00  0.00    +0.000 C 
ATOM     20  O   UNL     1      -2.934  11.340  18.639  0.00  0.00    +0.000 OA
ATOM     21  N   UNL     1      -2.127  11.434  16.498  0.00  0.00    +0.000 N 
ATOM     22  H   UNL     1      -0.757  13.123  17.478  0.00  0.00    +0.000 HD
ATOM     23  H   UNL     1      -1.232  11.400  16.033  0.00  0.00    +0.000 HD
BRANCH  21  24
ATOM     24  C   UNL     1      -3.195  10.596  15.953  0.00  0.00    +0.000 C 
ATOM     25  C   UNL     1      -4.526  11.335  16.003  0.00  0.00    +0.000 C 
ATOM     26  C   UNL     1      -2.877  10.151  14.526  0.00  0.00    +0.000 C 
ENDBRANCH  21  24
ENDBRANCH   9  18
BRANCH   1  28
ATOM     27  C   UNL     1       5.171  17.183  19.714  0.00  0.00    +0.000 C 
ATOM     28  N   UNL     1       3.980  16.711  19.052  0.00  0.00    +0.000 N 
ATOM     29  H   UNL     1       3.786  17.050  18.108  0.00  0.00    +0.000 HD
ENDBRANCH   1  28
BRANCH  14  30
ATOM     30  O   UNL     1      -3.693  13.479  24.792  0.00  0.00    +0.000 OA
ATOM     31  C   UNL     1      -4.740  12.628  24.320  0.00  0.00    +0.000 C 
ENDBRANCH  14  30
BRANCH  15  32
ATOM     32  O   UNL     1      -3.500  15.975  24.012  0.00  0.00    +0.000 OA
ATOM     33  C   UNL     1      -4.660  16.381  23.304  0.00  0.00    +0.000 C 
ENDBRANCH  15  32
BRANCH  16  34
ATOM     34  O   UNL     1      -1.435  16.795  22.190  0.00  0.00    +0.000 OA
ATOM     35  C   UNL     1      -0.815  17.672  23.122  0.00  0.00    +0.000 C 
ENDBRANCH  16  34
TORSDOF 6
ENDMDL
MODEL 8
REMARK VINA RESULT:      -5.8      2.953      5.925
REMARK  Name = 
REMARK  12 active torsions:
REMARK  status: ('A' for Active; 'I' for Inactive)
REMARK    1  A    between atoms: C_1  and  N_2
REMARK    2  A    between atoms: N_2  and  C_3
REMARK    3  A    between atoms: C_11  and  N_12
REMARK    4  A    between atoms: N_15  and  C_16
REMARK    5  A    between atoms: C_16  and  C_17
REMARK    6  A    between atoms: C_16  and  C_18
REMARK    7  A    between atoms: C_23  and  O_24
REMARK    8  A    between atoms: O_24  and  C_25
REMARK    9  A    between atoms: C_26  and  O_27
REMARK   10  A    between atoms: O_27  and  C_28
REMARK   11  A    between atoms: C_29  and  O_30
REMARK   12  A    between atoms: O_30  and  C_31
REMARK                            x       y       z     vdW  Elec       q    Type
REMARK                         _______ _______ _______ _____ _____    ______ ____
ROOT
ATOM      1  C   UNL     1      -2.402  14.228  24.183  0.00  0.00    +0.000 A 
ATOM      2  C   UNL     1      -3.135  13.306  23.567  0.00  0.00    +0.000 A 
ATOM      3  C   UNL     1      -2.983  12.613  22.323  0.00  0.00    +0.000 A 
ATOM      4  C   UNL     1      -2.188  12.877  21.273  0.00  0.00    +0.000 A 
ATOM      5  C   UNL     1      -0.974  13.728  21.292  0.00  0.00    +0.000 A 
ATOM      6  C   UNL     1      -0.526  14.429  22.349  0.00  0.00    +0.000 A 
ATOM      7  C   UNL     1      -1.047  14.683  23.709  0.00  0.00    +0.000 A 
ATOM      8  O   UNL     1      -0.336  15.346  24.472  0.00  0.00    +0.000 OA
ATOM      9  C   UNL     1      -0.102  13.611  20.010  0.00  0.00    +0.000 C 
ATOM     10  C   UNL     1       0.644  12.251  20.004  0.00  0.00    +0.000 C 
ATOM     11  C   UNL     1      -0.226  11.040  20.345  0.00  0.00    +0.000 C 
ATOM     12  C   UNL     1      -1.566  11.131  19.652  0.00  0.00    +0.000 A 
ATOM     13  C   UNL     1      -1.783  10.331  18.537  0.00  0.00    +0.000 A 
ATOM     14  C   UNL     1      -2.975  10.402  17.822  0.00  0.00    +0.000 A 
ATOM     15  C   UNL     1      -3.982  11.323  18.209  0.00  0.00    +0.000 A 
ATOM     16  C   UNL     1      -3.773  12.162  19.340  0.00  0.00    +0.000 A 
ATOM     17  C   UNL     1      -2.550  12.061  20.064  0.00  0.00    +0.000 A 
ENDROOT
BRANCH   9  18
ATOM     18  N   UNL     1       0.832  14.737  19.867  0.00  0.00    +0.000 N 
ATOM     19  C   UNL     1       1.707  14.767  18.803  0.00  0.00    +0.000 C 
ATOM     20  O   UNL     1       1.796  13.896  17.950  0.00  0.00    +0.000 OA
ATOM     21  N   UNL     1       2.469  15.909  18.810  0.00  0.00    +0.000 N 
ATOM     22  H   UNL     1       0.437  15.651  20.033  0.00  0.00    +0.000 HD
ATOM     23  H   UNL     1       2.612  16.324  19.719  0.00  0.00    +0.000 HD
BRANCH  21  24
ATOM     24  C   UNL     1       3.527  16.091  17.818  0.00  0.00    +0.000 C 
ATOM     25  C   UNL     1       3.057  17.019  16.704  0.00  0.00    +0.000 C 
ATOM     26  C   UNL     1       4.806  16.628  18.462  0.00  0.00    +0.000 C 
ENDBRANCH  21  24
ENDBRANCH   9  18
BRANCH   1  28
ATOM     27  C   UNL     1      -3.441  16.170  25.469  0.00  0.00    +0.000 C 
ATOM     28  N   UNL     1      -2.836  14.866  25.346  0.00  0.00    +0.000 N 
ATOM     29  H   UNL     1      -2.650  14.338  26.200  0.00  0.00    +0.000 HD
ENDBRANCH   1  28
BRANCH  14  30
ATOM     30  O   UNL     1      -3.196   9.615  16.711  0.00  0.00    +0.000 OA
ATOM     31  C   UNL     1      -2.631  10.089  15.487  0.00  0.00    +0.000 C 
ENDBRANCH  14  30
BRANCH  15  32
ATOM     32  O   UNL     1      -5.099  11.282  17.401  0.00  0.00    +0.000 OA
ATOM     33  C   UNL     1      -5.608  12.468  16.814  0.00  0.00    +0.000 C 
ENDBRANCH  15  32
BRANCH  16  34
ATOM     34  O   UNL     1      -4.841  12.925  19.744  0.00  0.00    +0.000 OA
ATOM     35  C   UNL     1      -5.891  12.358  20.519  0.00  0.00    +0.000 C 
ENDBRANCH  16  34
TORSDOF 6
ENDMDL
MODEL 9
REMARK VINA RESULT:      -5.8      2.971      6.014
REMARK  Name = 
REMARK  12 active torsions:
REMARK  status: ('A' for Active; 'I' for Inactive)
REMARK    1  A    between atoms: C_1  and  N_2
REMARK    2  A    between atoms: N_2  and  C_3
REMARK    3  A    between atoms: C_11  and  N_12
REMARK    4  A    between atoms: N_15  and  C_16
REMARK    5  A    between atoms: C_16  and  C_17
REMARK    6  A    between atoms: C_16  and  C_18
REMARK    7  A    between atoms: C_23  and  O_24
REMARK    8  A    between atoms: O_24  and  C_25
REMARK    9  A    between atoms: C_26  and  O_27
REMARK   10  A    between atoms: O_27  and  C_28
REMARK   11  A    between atoms: C_29  and  O_30
REMARK   12  A    between atoms: O_30  and  C_31
REMARK                            x       y       z     vdW  Elec       q    Type
REMARK                         _______ _______ _______ _____ _____    ______ ____
ROOT
ATOM      1  C   UNL     1      -5.507  12.704  19.272  0.00  0.00    +0.000 A 
ATOM      2  C   UNL     1      -5.228  13.657  20.156  0.00  0.00    +0.000 A 
ATOM      3  C   UNL     1      -3.998  14.140  20.710  0.00  0.00    +0.000 A 
ATOM      4  C   UNL     1      -2.770  13.597  20.704  0.00  0.00    +0.000 A 
ATOM      5  C   UNL     1      -2.287  12.545  19.776  0.00  0.00    +0.000 A 
ATOM      6  C   UNL     1      -3.032  11.919  18.848  0.00  0.00    +0.000 A 
ATOM      7  C   UNL     1      -4.466  11.947  18.490  0.00  0.00    +0.000 A 
ATOM      8  O   UNL     1      -4.821  11.270  17.519  0.00  0.00    +0.000 OA
ATOM      9  C   UNL     1      -0.749  12.330  19.815  0.00  0.00    +0.000 C 
ATOM     10  C   UNL     1      -0.033  13.515  19.115  0.00  0.00    +0.000 C 
ATOM     11  C   UNL     1      -0.533  14.901  19.527  0.00  0.00    +0.000 C 
ATOM     12  C   UNL     1      -0.750  14.969  21.021  0.00  0.00    +0.000 A 
ATOM     13  C   UNL     1       0.192  15.641  21.790  0.00  0.00    +0.000 A 
ATOM     14  C   UNL     1       0.080  15.700  23.176  0.00  0.00    +0.000 A 
ATOM     15  C   UNL     1      -0.992  15.041  23.830  0.00  0.00    +0.000 A 
ATOM     16  C   UNL     1      -1.960  14.334  23.062  0.00  0.00    +0.000 A 
ATOM     17  C   UNL     1      -1.831  14.300  21.643  0.00  0.00    +0.000 A 
ENDROOT
BRANCH   9  18
ATOM     18  N   UNL     1      -0.352  11.041  19.230  0.00  0.00    +0.000 N 
ATOM     19  C   UNL     1       0.671  10.317  19.802  0.00  0.00    +0.000 C 
ATOM     20  O   UNL     1       1.318  10.675  20.775  0.00  0.00    +0.000 OA
ATOM     21  N   UNL     1       0.872   9.126  19.149  0.00  0.00    +0.000 N 
ATOM     22  H   UNL     1      -1.113  10.435  18.959  0.00  0.00    +0.000 HD
ATOM     23  H   UNL     1       0.600   9.119  18.177  0.00  0.00    +0.000 HD
BRANCH  21  24
ATOM     24  C   UNL     1       1.976   8.251  19.541  0.00  0.00    +0.000 C 
ATOM     25  C   UNL     1       1.514   7.256  20.599  0.00  0.00    +0.000 C 
ATOM     26  C   UNL     1       2.561   7.520  18.332  0.00  0.00    +0.000 C 
ENDBRANCH  21  24
ENDBRANCH   9  18
BRANCH   1  28
ATOM     27  C   UNL     1      -7.844  13.079  18.320  0.00  0.00    +0.000 C 
ATOM     28  N   UNL     1      -6.818  12.316  18.988  0.00  0.00    +0.000 N 
ATOM     29  H   UNL     1      -7.060  11.392  19.347  0.00  0.00    +0.000 HD
ENDBRANCH   1  28
BRANCH  14  30
ATOM     30  O   UNL     1       1.013  16.360  23.947  0.00  0.00    +0.000 OA
ATOM     31  C   UNL     1       1.149  17.762  23.701  0.00  0.00    +0.000 C 
ENDBRANCH  14  30
BRANCH  15  32
ATOM     32  O   UNL     1      -0.964  15.182  25.202  0.00  0.00    +0.000 OA
ATOM     33  C   UNL     1      -1.756  16.169  25.842  0.00  0.00    +0.000 C 
ENDBRANCH  15  32
BRANCH  16  34
ATOM     34  O   UNL     1      -3.046  13.842  23.744  0.00  0.00    +0.000 OA
ATOM     35  C   UNL     1      -3.216  12.442  23.931  0.00  0.00    +0.000 C 
ENDBRANCH  16  34
TORSDOF 6
ENDMDL
