MODEL 1
REMARK VINA RESULT:      -6.4      0.000      0.000
REMARK  Name = 
REMARK  11 active torsions:
REMARK  status: ('A' for Active; 'I' for Inactive)
REMARK    1  A    between atoms: C_1  and  C_2
REMARK    2  A    between atoms: C_2  and  C_3
REMARK    3  A    between atoms: C_2  and  N_4
REMARK    4  A    between atoms: N_4  and  C_5
REMARK    5  A    between atoms: C_5  and  C_6
REMARK    6  A    between atoms: C_6  and  C_7
REMARK    7  A    between atoms: C_7  and  C_8
REMARK    8  A    between atoms: C_8  and  C_9
REMARK    9  A    between atoms: C_9  and  N_10
REMARK   10  A    between atoms: N_10  and  C_11
REMARK   11  A    between atoms: C_13  and  O_14
REMARK                            x       y       z     vdW  Elec       q    Type
REMARK                         _______ _______ _______ _____ _____    ______ ____
ROOT
ATOM      1  N   UNL     1       3.481   5.679  18.190  0.00  0.00    +0.000 N 
ATOM      2  H   UNL     1       3.179   5.942  17.245  0.00  0.00    +0.000 HD
ENDROOT
BRANCH   1   3
ATOM      3  C   UNL     1       4.903   5.542  18.148  0.00  0.00    +0.000 A 
ATOM      4  C   UNL     1       5.676   5.615  19.319  0.00  0.00    +0.000 A 
ATOM      5  C   UNL     1       7.046   5.411  19.270  0.00  0.00    +0.000 A 
ATOM      6  C   UNL     1       7.670   5.099  18.073  0.00  0.00    +0.000 A 
ATOM      7  C   UNL     1       6.911   4.978  16.900  0.00  0.00    +0.000 A 
ATOM      8  C   UNL     1       7.520   4.632  15.690  0.00  0.00    +0.000 A 
ATOM      9  C   UNL     1       6.752   4.502  14.540  0.00  0.00    +0.000 A 
ATOM     10  C   UNL     1       5.396   4.744  14.641  0.00  0.00    +0.000 A 
ATOM     11  N   UNL     1       4.773   5.095  15.789  0.00  0.00    +0.000 NA
ATOM     12  C   UNL     1       5.514   5.196  16.919  0.00  0.00    +0.000 A 
BRANCH   5  13
ATOM     13  O   UNL     1       7.816   5.498  20.392  0.00  0.00    +0.000 OA
ATOM     14  H   UNL     1       7.418   6.146  20.995  0.00  0.00    +0.000 HD
ENDBRANCH   5  13
ENDBRANCH   1   3
BRANCH   1  15
ATOM     15  C   UNL     1       2.945   6.526  19.244  0.00  0.00    +0.000 C 
BRANCH  15  16
ATOM     16  C   UNL     1       2.087   5.718  20.215  0.00  0.00    +0.000 C 
BRANCH  16  17
ATOM     17  C   UNL     1       1.393   4.545  19.513  0.00  0.00    +0.000 C 
BRANCH  17  18
ATOM     18  C   UNL     1       0.863   3.492  20.492  0.00  0.00    +0.000 C 
BRANCH  18  19
ATOM     19  C   UNL     1       1.795   2.283  20.556  0.00  0.00    +0.000 C 
BRANCH  19  20
ATOM     20  N   UNL     1       1.952   1.720  19.215  0.00  0.00    +0.000 NA
ATOM     21  H   UNL     1       1.484   0.813  19.169  0.00  0.00    +0.000 HD
BRANCH  20  23
ATOM     22  C   UNL     1       3.537   2.186  17.433  0.00  0.00    +0.000 C 
ATOM     23  C   UNL     1       3.356   1.560  18.818  0.00  0.00    +0.000 C 
ATOM     24  C   UNL     1       4.320   2.217  19.808  0.00  0.00    +0.000 C 
ENDBRANCH  20  23
ENDBRANCH  19  20
ENDBRANCH  18  19
ENDBRANCH  17  18
ENDBRANCH  16  17
ENDBRANCH  15  16
ENDBRANCH   1  15
TORSDOF 9
ENDMDL
MODEL 2
REMARK VINA RESULT:      -6.3      1.210      2.985
REMARK  Name = 
REMARK  11 active torsions:
REMARK  status: ('A' for Active; 'I' for Inactive)
REMARK    1  A    between atoms: C_1  and  C_2
REMARK    2  A    between atoms: C_2  and  C_3
REMARK    3  A    between atoms: C_2  and  N_4
REMARK    4  A    between atoms: N_4  and  C_5
REMARK    5  A    between atoms: C_5  and  C_6
REMARK    6  A    between atoms: C_6  and  C_7
REMARK    7  A    between atoms: C_7  and  C_8
REMARK    8  A    between atoms: C_8  and  C_9
REMARK    9  A    between atoms: C_9  and  N_10
REMARK   10  A    between atoms: N_10  and  C_11
REMARK   11  A    between atoms: C_13  and  O_14
REMARK                            x       y       z     vdW  Elec       q    Type
REMARK                         _______ _______ _______ _____ _____    ______ ____
ROOT
ATOM      1  N   UNL     1       3.878   3.326  18.206  0.00  0.00    +0.000 N 
ATOM      2  H   UNL     1       3.092   3.959  18.019  0.00  0.00    +0.000 HD
ENDROOT
BRANCH   1   3
ATOM      3  C   UNL     1       5.072   4.106  18.111  0.00  0.00    +0.000 A 
ATOM      4  C   UNL     1       5.767   4.515  19.261  0.00  0.00    +0.000 A 
ATOM      5  C   UNL     1       6.960   5.211  19.150  0.00  0.00    +0.000 A 
ATOM      6  C   UNL     1       7.503   5.486  17.905  0.00  0.00    +0.000 A 
ATOM      7  C   UNL     1       6.847   5.049  16.745  0.00  0.00    +0.000 A 
ATOM      8  C   UNL     1       7.398   5.288  15.482  0.00  0.00    +0.000 A 
ATOM      9  C   UNL     1       6.743   4.836  14.344  0.00  0.00    +0.000 A 
ATOM     10  C   UNL     1       5.544   4.172  14.512  0.00  0.00    +0.000 A 
ATOM     11  N   UNL     1       4.973   3.934  15.715  0.00  0.00    +0.000 NA
ATOM     12  C   UNL     1       5.621   4.349  16.829  0.00  0.00    +0.000 A 
BRANCH   5  13
ATOM     13  O   UNL     1       7.640   5.634  20.254  0.00  0.00    +0.000 OA
ATOM     14  H   UNL     1       7.333   6.526  20.486  0.00  0.00    +0.000 HD
ENDBRANCH   5  13
ENDBRANCH   1   3
BRANCH   1  15
ATOM     15  C   UNL     1       3.725   2.525  19.411  0.00  0.00    +0.000 C 
BRANCH  15  16
ATOM     16  C   UNL     1       2.257   2.188  19.663  0.00  0.00    +0.000 C 
BRANCH  16  17
ATOM     17  C   UNL     1       1.331   3.317  19.198  0.00  0.00    +0.000 C 
BRANCH  17  18
ATOM     18  C   UNL     1       0.889   4.237  20.342  0.00  0.00    +0.000 C 
BRANCH  18  19
ATOM     19  C   UNL     1       1.950   5.296  20.636  0.00  0.00    +0.000 C 
BRANCH  19  20
ATOM     20  N   UNL     1       2.305   5.984  19.395  0.00  0.00    +0.000 NA
ATOM     21  H   UNL     1       3.188   5.610  19.039  0.00  0.00    +0.000 HD
BRANCH  20  23
ATOM     22  C   UNL     1       2.155   8.095  18.201  0.00  0.00    +0.000 C 
ATOM     23  C   UNL     1       2.427   7.438  19.557  0.00  0.00    +0.000 C 
ATOM     24  C   UNL     1       1.454   7.992  20.600  0.00  0.00    +0.000 C 
ENDBRANCH  20  23
ENDBRANCH  19  20
ENDBRANCH  18  19
ENDBRANCH  17  18
ENDBRANCH  16  17
ENDBRANCH  15  16
ENDBRANCH   1  15
TORSDOF 9
ENDMDL
MODEL 3
REMARK VINA RESULT:      -6.2      2.045      3.976
REMARK  Name = 
REMARK  11 active torsions:
REMARK  status: ('A' for Active; 'I' for Inactive)
REMARK    1  A    between atoms: C_1  and  C_2
REMARK    2  A    between atoms: C_2  and  C_3
REMARK    3  A    between atoms: C_2  and  N_4
REMARK    4  A    between atoms: N_4  and  C_5
REMARK    5  A    between atoms: C_5  and  C_6
REMARK    6  A    between atoms: C_6  and  C_7
REMARK    7  A    between atoms: C_7  and  C_8
REMARK    8  A    between atoms: C_8  and  C_9
REMARK    9  A    between atoms: C_9  and  N_10
REMARK   10  A    between atoms: N_10  and  C_11
REMARK   11  A    between atoms: C_13  and  O_14
REMARK                            x       y       z     vdW  Elec       q    Type
REMARK                         _______ _______ _______ _____ _____    ______ ____
ROOT
ATOM      1  N   UNL     1       3.324   3.659  17.451  0.00  0.00    +0.000 N 
ATOM      2  H   UNL     1       3.180   4.377  18.170  0.00  0.00    +0.000 HD
ENDROOT
BRANCH   1   3
ATOM      3  C   UNL     1       4.583   3.936  16.835  0.00  0.00    +0.000 A 
ATOM      4  C   UNL     1       4.783   3.726  15.460  0.00  0.00    +0.000 A 
ATOM      5  C   UNL     1       5.988   4.065  14.865  0.00  0.00    +0.000 A 
ATOM      6  C   UNL     1       7.002   4.646  15.609  0.00  0.00    +0.000 A 
ATOM      7  C   UNL     1       6.808   4.904  16.973  0.00  0.00    +0.000 A 
ATOM      8  C   UNL     1       7.809   5.520  17.732  0.00  0.00    +0.000 A 
ATOM      9  C   UNL     1       7.596   5.781  19.078  0.00  0.00    +0.000 A 
ATOM     10  C   UNL     1       6.388   5.397  19.626  0.00  0.00    +0.000 A 
ATOM     11  N   UNL     1       5.402   4.787  18.930  0.00  0.00    +0.000 NA
ATOM     12  C   UNL     1       5.595   4.554  17.609  0.00  0.00    +0.000 A 
BRANCH   5  13
ATOM     13  O   UNL     1       6.208   3.852  13.537  0.00  0.00    +0.000 OA
ATOM     14  H   UNL     1       5.365   3.619  13.114  0.00  0.00    +0.000 HD
ENDBRANCH   5  13
ENDBRANCH   1   3
BRANCH   1  15
ATOM     15  C   UNL     1       3.122   2.296  17.921  0.00  0.00    +0.000 C 
BRANCH  15  16
ATOM     16  C   UNL     1       1.765   2.147  18.605  0.00  0.00    +0.000 C 
BRANCH  16  17
ATOM     17  C   UNL     1       1.795   2.688  20.040  0.00  0.00    +0.000 C 
BRANCH  17  18
ATOM     18  C   UNL     1       0.941   3.948  20.221  0.00  0.00    +0.000 C 
BRANCH  18  19
ATOM     19  C   UNL     1       1.743   5.064  20.887  0.00  0.00    +0.000 C 
BRANCH  19  20
ATOM     20  N   UNL     1       2.784   5.527  19.970  0.00  0.00    +0.000 NA
ATOM     21  H   UNL     1       3.704   5.323  20.367  0.00  0.00    +0.000 HD
BRANCH  20  23
ATOM     22  C   UNL     1       2.451   7.125  18.169  0.00  0.00    +0.000 C 
ATOM     23  C   UNL     1       2.693   6.962  19.673  0.00  0.00    +0.000 C 
ATOM     24  C   UNL     1       1.569   7.648  20.450  0.00  0.00    +0.000 C 
ENDBRANCH  20  23
ENDBRANCH  19  20
ENDBRANCH  18  19
ENDBRANCH  17  18
ENDBRANCH  16  17
ENDBRANCH  15  16
ENDBRANCH   1  15
TORSDOF 9
ENDMDL
MODEL 4
REMARK VINA RESULT:      -6.2      2.108      5.810
REMARK  Name = 
REMARK  11 active torsions:
REMARK  status: ('A' for Active; 'I' for Inactive)
REMARK    1  A    between atoms: C_1  and  C_2
REMARK    2  A    between atoms: C_2  and  C_3
REMARK    3  A    between atoms: C_2  and  N_4
REMARK    4  A    between atoms: N_4  and  C_5
REMARK    5  A    between atoms: C_5  and  C_6
REMARK    6  A    between atoms: C_6  and  C_7
REMARK    7  A    between atoms: C_7  and  C_8
REMARK    8  A    between atoms: C_8  and  C_9
REMARK    9  A    between atoms: C_9  and  N_10
REMARK   10  A    between atoms: N_10  and  C_11
REMARK   11  A    between atoms: C_13  and  O_14
REMARK                            x       y       z     vdW  Elec       q    Type
REMARK                         _______ _______ _______ _____ _____    ______ ____
ROOT
ATOM      1  N   UNL     1       3.831   6.180  17.196  0.00  0.00    +0.000 N 
ATOM      2  H   UNL     1       3.662   5.381  16.574  0.00  0.00    +0.000 HD
ENDROOT
BRANCH   1   3
ATOM      3  C   UNL     1       3.081   5.942  18.389  0.00  0.00    +0.000 A 
ATOM      4  C   UNL     1       2.798   6.981  19.291  0.00  0.00    +0.000 A 
ATOM      5  C   UNL     1       2.011   6.748  20.407  0.00  0.00    +0.000 A 
ATOM      6  C   UNL     1       1.463   5.496  20.634  0.00  0.00    +0.000 A 
ATOM      7  C   UNL     1       1.697   4.455  19.724  0.00  0.00    +0.000 A 
ATOM      8  C   UNL     1       1.125   3.194  19.920  0.00  0.00    +0.000 A 
ATOM      9  C   UNL     1       1.354   2.179  19.002  0.00  0.00    +0.000 A 
ATOM     10  C   UNL     1       2.170   2.459  17.922  0.00  0.00    +0.000 A 
ATOM     11  N   UNL     1       2.752   3.660  17.705  0.00  0.00    +0.000 NA
ATOM     12  C   UNL     1       2.509   4.662  18.585  0.00  0.00    +0.000 A 
BRANCH   5  13
ATOM     13  O   UNL     1       1.741   7.738  21.304  0.00  0.00    +0.000 OA
ATOM     14  H   UNL     1       0.838   7.618  21.640  0.00  0.00    +0.000 HD
ENDBRANCH   5  13
ENDBRANCH   1   3
BRANCH   1  15
ATOM     15  C   UNL     1       5.237   6.510  17.374  0.00  0.00    +0.000 C 
BRANCH  15  16
ATOM     16  C   UNL     1       5.969   5.406  18.134  0.00  0.00    +0.000 C 
BRANCH  16  17
ATOM     17  C   UNL     1       6.990   4.689  17.243  0.00  0.00    +0.000 C 
BRANCH  17  18
ATOM     18  C   UNL     1       6.770   4.955  15.749  0.00  0.00    +0.000 C 
BRANCH  18  19
ATOM     19  C   UNL     1       6.234   3.711  15.044  0.00  0.00    +0.000 C 
BRANCH  19  20
ATOM     20  N   UNL     1       5.467   4.114  13.866  0.00  0.00    +0.000 NA
ATOM     21  H   UNL     1       4.470   3.984  14.047  0.00  0.00    +0.000 HD
BRANCH  20  23
ATOM     22  C   UNL     1       4.649   3.402  11.690  0.00  0.00    +0.000 C 
ATOM     23  C   UNL     1       5.838   3.371  12.655  0.00  0.00    +0.000 C 
ATOM     24  C   UNL     1       7.072   3.957  11.966  0.00  0.00    +0.000 C 
ENDBRANCH  20  23
ENDBRANCH  19  20
ENDBRANCH  18  19
ENDBRANCH  17  18
ENDBRANCH  16  17
ENDBRANCH  15  16
ENDBRANCH   1  15
TORSDOF 9
ENDMDL
MODEL 5
REMARK VINA RESULT:      -6.2      1.469      3.067
REMARK  Name = 
REMARK  11 active torsions:
REMARK  status: ('A' for Active; 'I' for Inactive)
REMARK    1  A    between atoms: C_1  and  C_2
REMARK    2  A    between atoms: C_2  and  C_3
REMARK    3  A    between atoms: C_2  and  N_4
REMARK    4  A    between atoms: N_4  and  C_5
REMARK    5  A    between atoms: C_5  and  C_6
REMARK    6  A    between atoms: C_6  and  C_7
REMARK    7  A    between atoms: C_7  and  C_8
REMARK    8  A    between atoms: C_8  and  C_9
REMARK    9  A    between atoms: C_9  and  N_10
REMARK   10  A    between atoms: N_10  and  C_11
REMARK   11  A    between atoms: C_13  and  O_14
REMARK                            x       y       z     vdW  Elec       q    Type
REMARK                         _______ _______ _______ _____ _____    ______ ____
ROOT
ATOM      1  N   UNL     1       3.658   3.024  17.492  0.00  0.00    +0.000 N 
ATOM      2  H   UNL     1       3.660   2.596  16.559  0.00  0.00    +0.000 HD
ENDROOT
BRANCH   1   3
ATOM      3  C   UNL     1       4.835   3.829  17.583  0.00  0.00    +0.000 A 
ATOM      4  C   UNL     1       5.368   4.202  18.828  0.00  0.00    +0.000 A 
ATOM      5  C   UNL     1       6.549   4.924  18.900  0.00  0.00    +0.000 A 
ATOM      6  C   UNL     1       7.240   5.261  17.747  0.00  0.00    +0.000 A 
ATOM      7  C   UNL     1       6.748   4.861  16.496  0.00  0.00    +0.000 A 
ATOM      8  C   UNL     1       7.450   5.164  15.324  0.00  0.00    +0.000 A 
ATOM      9  C   UNL     1       6.957   4.748  14.095  0.00  0.00    +0.000 A 
ATOM     10  C   UNL     1       5.762   4.056  14.081  0.00  0.00    +0.000 A 
ATOM     11  N   UNL     1       5.048   3.756  15.189  0.00  0.00    +0.000 NA
ATOM     12  C   UNL     1       5.538   4.136  16.393  0.00  0.00    +0.000 A 
BRANCH   5  13
ATOM     13  O   UNL     1       7.071   5.313  20.097  0.00  0.00    +0.000 OA
ATOM     14  H   UNL     1       6.351   5.377  20.745  0.00  0.00    +0.000 HD
ENDBRANCH   5  13
ENDBRANCH   1   3
BRANCH   1  15
ATOM     15  C   UNL     1       2.405   3.671  17.849  0.00  0.00    +0.000 C 
BRANCH  15  16
ATOM     16  C   UNL     1       1.756   2.989  19.051  0.00  0.00    +0.000 C 
BRANCH  16  17
ATOM     17  C   UNL     1       1.036   3.998  19.952  0.00  0.00    +0.000 C 
BRANCH  17  18
ATOM     18  C   UNL     1       2.002   4.872  20.760  0.00  0.00    +0.000 C 
BRANCH  18  19
ATOM     19  C   UNL     1       1.675   6.354  20.589  0.00  0.00    +0.000 C 
BRANCH  19  20
ATOM     20  N   UNL     1       2.774   7.015  19.886  0.00  0.00    +0.000 NA
ATOM     21  H   UNL     1       2.976   7.911  20.335  0.00  0.00    +0.000 HD
BRANCH  20  23
ATOM     22  C   UNL     1       1.793   8.596  18.321  0.00  0.00    +0.000 C 
ATOM     23  C   UNL     1       2.493   7.242  18.462  0.00  0.00    +0.000 C 
ATOM     24  C   UNL     1       3.764   7.230  17.609  0.00  0.00    +0.000 C 
ENDBRANCH  20  23
ENDBRANCH  19  20
ENDBRANCH  18  19
ENDBRANCH  17  18
ENDBRANCH  16  17
ENDBRANCH  15  16
ENDBRANCH   1  15
TORSDOF 9
ENDMDL
MODEL 6
REMARK VINA RESULT:      -6.2      2.225      6.091
REMARK  Name = 
REMARK  11 active torsions:
REMARK  status: ('A' for Active; 'I' for Inactive)
REMARK    1  A    between atoms: C_1  and  C_2
REMARK    2  A    between atoms: C_2  and  C_3
REMARK    3  A    between atoms: C_2  and  N_4
REMARK    4  A    between atoms: N_4  and  C_5
REMARK    5  A    between atoms: C_5  and  C_6
REMARK    6  A    between atoms: C_6  and  C_7
REMARK    7  A    between atoms: C_7  and  C_8
REMARK    8  A    between atoms: C_8  and  C_9
REMARK    9  A    between atoms: C_9  and  N_10
REMARK   10  A    between atoms: N_10  and  C_11
REMARK   11  A    between atoms: C_13  and  O_14
REMARK                            x       y       z     vdW  Elec       q    Type
REMARK                         _______ _______ _______ _____ _____    ______ ____
ROOT
ATOM      1  N   UNL     1       2.616   3.414  17.304  0.00  0.00    +0.000 N 
ATOM      2  H   UNL     1       1.857   2.797  16.992  0.00  0.00    +0.000 HD
ENDROOT
BRANCH   1   3
ATOM      3  C   UNL     1       2.311   3.800  18.645  0.00  0.00    +0.000 A 
ATOM      4  C   UNL     1       2.227   2.850  19.676  0.00  0.00    +0.000 A 
ATOM      5  C   UNL     1       1.999   3.249  20.984  0.00  0.00    +0.000 A 
ATOM      6  C   UNL     1       1.884   4.593  21.300  0.00  0.00    +0.000 A 
ATOM      7  C   UNL     1       2.008   5.561  20.294  0.00  0.00    +0.000 A 
ATOM      8  C   UNL     1       1.928   6.923  20.601  0.00  0.00    +0.000 A 
ATOM      9  C   UNL     1       2.067   7.870  19.595  0.00  0.00    +0.000 A 
ATOM     10  C   UNL     1       2.265   7.415  18.305  0.00  0.00    +0.000 A 
ATOM     11  N   UNL     1       2.334   6.107  17.966  0.00  0.00    +0.000 NA
ATOM     12  C   UNL     1       2.226   5.181  18.949  0.00  0.00    +0.000 A 
BRANCH   5  13
ATOM     13  O   UNL     1       1.895   2.340  21.995  0.00  0.00    +0.000 OA
ATOM     14  H   UNL     1       1.006   2.405  22.381  0.00  0.00    +0.000 HD
ENDBRANCH   5  13
ENDBRANCH   1   3
BRANCH   1  15
ATOM     15  C   UNL     1       3.950   2.881  17.074  0.00  0.00    +0.000 C 
BRANCH  15  16
ATOM     16  C   UNL     1       4.921   3.987  16.667  0.00  0.00    +0.000 C 
BRANCH  16  17
ATOM     17  C   UNL     1       5.711   3.609  15.409  0.00  0.00    +0.000 C 
BRANCH  17  18
ATOM     18  C   UNL     1       6.914   4.526  15.161  0.00  0.00    +0.000 C 
BRANCH  18  19
ATOM     19  C   UNL     1       7.451   5.094  16.473  0.00  0.00    +0.000 C 
BRANCH  19  20
ATOM     20  N   UNL     1       7.467   6.554  16.400  0.00  0.00    +0.000 NA
ATOM     21  H   UNL     1       8.345   6.865  15.978  0.00  0.00    +0.000 HD
BRANCH  20  23
ATOM     22  C   UNL     1       7.769   6.213  18.788  0.00  0.00    +0.000 C 
ATOM     23  C   UNL     1       7.307   7.198  17.710  0.00  0.00    +0.000 C 
ATOM     24  C   UNL     1       8.110   8.496  17.824  0.00  0.00    +0.000 C 
ENDBRANCH  20  23
ENDBRANCH  19  20
ENDBRANCH  18  19
ENDBRANCH  17  18
ENDBRANCH  16  17
ENDBRANCH  15  16
ENDBRANCH   1  15
TORSDOF 9
ENDMDL
MODEL 7
REMARK VINA RESULT:      -6.1      2.523      6.308
REMARK  Name = 
REMARK  11 active torsions:
REMARK  status: ('A' for Active; 'I' for Inactive)
REMARK    1  A    between atoms: C_1  and  C_2
REMARK    2  A    between atoms: C_2  and  C_3
REMARK    3  A    between atoms: C_2  and  N_4
REMARK    4  A    between atoms: N_4  and  C_5
REMARK    5  A    between atoms: C_5  and  C_6
REMARK    6  A    between atoms: C_6  and  C_7
REMARK    7  A    between atoms: C_7  and  C_8
REMARK    8  A    between atoms: C_8  and  C_9
REMARK    9  A    between atoms: C_9  and  N_10
REMARK   10  A    between atoms: N_10  and  C_11
REMARK   11  A    between atoms: C_13  and  O_14
REMARK                            x       y       z     vdW  Elec       q    Type
REMARK                         _______ _______ _______ _____ _____    ______ ____
ROOT
ATOM      1  N   UNL     1       5.714   4.061  18.356  0.00  0.00    +0.000 N 
ATOM      2  H   UNL     1       5.809   3.392  19.129  0.00  0.00    +0.000 HD
ENDROOT
BRANCH   1   3
ATOM      3  C   UNL     1       4.570   4.867  18.643  0.00  0.00    +0.000 A 
ATOM      4  C   UNL     1       4.353   6.086  17.979  0.00  0.00    +0.000 A 
ATOM      5  C   UNL     1       3.204   6.822  18.218  0.00  0.00    +0.000 A 
ATOM      6  C   UNL     1       2.235   6.353  19.090  0.00  0.00    +0.000 A 
ATOM      7  C   UNL     1       2.410   5.117  19.730  0.00  0.00    +0.000 A 
ATOM      8  C   UNL     1       1.427   4.613  20.588  0.00  0.00    +0.000 A 
ATOM      9  C   UNL     1       1.610   3.381  21.203  0.00  0.00    +0.000 A 
ATOM     10  C   UNL     1       2.787   2.704  20.950  0.00  0.00    +0.000 A 
ATOM     11  N   UNL     1       3.767   3.165  20.139  0.00  0.00    +0.000 NA
ATOM     12  C   UNL     1       3.581   4.353  19.516  0.00  0.00    +0.000 A 
BRANCH   5  13
ATOM     13  O   UNL     1       2.984   8.017  17.599  0.00  0.00    +0.000 OA
ATOM     14  H   UNL     1       3.741   8.213  17.022  0.00  0.00    +0.000 HD
ENDBRANCH   5  13
ENDBRANCH   1   3
BRANCH   1  15
ATOM     15  C   UNL     1       6.940   4.773  18.031  0.00  0.00    +0.000 C 
BRANCH  15  16
ATOM     16  C   UNL     1       7.029   5.057  16.533  0.00  0.00    +0.000 C 
BRANCH  16  17
ATOM     17  C   UNL     1       6.492   3.885  15.704  0.00  0.00    +0.000 C 
BRANCH  17  18
ATOM     18  C   UNL     1       5.912   4.325  14.355  0.00  0.00    +0.000 C 
BRANCH  18  19
ATOM     19  C   UNL     1       6.906   4.077  13.222  0.00  0.00    +0.000 C 
BRANCH  19  20
ATOM     20  N   UNL     1       6.178   3.915  11.964  0.00  0.00    +0.000 NA
ATOM     21  H   UNL     1       5.643   4.764  11.767  0.00  0.00    +0.000 HD
BRANCH  20  23
ATOM     22  C   UNL     1       4.014   3.139  11.175  0.00  0.00    +0.000 C 
ATOM     23  C   UNL     1       5.268   2.762  11.969  0.00  0.00    +0.000 C 
ATOM     24  C   UNL     1       5.907   1.514  11.356  0.00  0.00    +0.000 C 
ENDBRANCH  20  23
ENDBRANCH  19  20
ENDBRANCH  18  19
ENDBRANCH  17  18
ENDBRANCH  16  17
ENDBRANCH  15  16
ENDBRANCH   1  15
TORSDOF 9
ENDMDL
MODEL 8
REMARK VINA RESULT:      -6.1      2.217      5.838
REMARK  Name = 
REMARK  11 active torsions:
REMARK  status: ('A' for Active; 'I' for Inactive)
REMARK    1  A    between atoms: C_1  and  C_2
REMARK    2  A    between atoms: C_2  and  C_3
REMARK    3  A    between atoms: C_2  and  N_4
REMARK    4  A    between atoms: N_4  and  C_5
REMARK    5  A    between atoms: C_5  and  C_6
REMARK    6  A    between atoms: C_6  and  C_7
REMARK    7  A    between atoms: C_7  and  C_8
REMARK    8  A    between atoms: C_8  and  C_9
REMARK    9  A    between atoms: C_9  and  N_10
REMARK   10  A    between atoms: N_10  and  C_11
REMARK   11  A    between atoms: C_13  and  O_14
REMARK                            x       y       z     vdW  Elec       q    Type
REMARK                         _______ _______ _______ _____ _____    ______ ____
ROOT
ATOM      1  N   UNL     1       5.931   4.220  18.921  0.00  0.00    +0.000 N 
ATOM      2  H   UNL     1       5.917   3.672  19.789  0.00  0.00    +0.000 HD
ENDROOT
BRANCH   1   3
ATOM      3  C   UNL     1       4.620   4.762  18.751  0.00  0.00    +0.000 A 
ATOM      4  C   UNL     1       4.426   6.124  18.470  0.00  0.00    +0.000 A 
ATOM      5  C   UNL     1       3.152   6.621  18.239  0.00  0.00    +0.000 A 
ATOM      6  C   UNL     1       2.054   5.776  18.250  0.00  0.00    +0.000 A 
ATOM      7  C   UNL     1       2.230   4.404  18.486  0.00  0.00    +0.000 A 
ATOM      8  C   UNL     1       1.137   3.532  18.467  0.00  0.00    +0.000 A 
ATOM      9  C   UNL     1       1.330   2.175  18.689  0.00  0.00    +0.000 A 
ATOM     10  C   UNL     1       2.617   1.740  18.941  0.00  0.00    +0.000 A 
ATOM     11  N   UNL     1       3.696   2.554  18.980  0.00  0.00    +0.000 NA
ATOM     12  C   UNL     1       3.517   3.875  18.739  0.00  0.00    +0.000 A 
BRANCH   5  13
ATOM     13  O   UNL     1       2.941   7.943  17.984  0.00  0.00    +0.000 OA
ATOM     14  H   UNL     1       3.315   8.156  17.113  0.00  0.00    +0.000 HD
ENDBRANCH   5  13
ENDBRANCH   1   3
BRANCH   1  15
ATOM     15  C   UNL     1       7.035   5.163  18.829  0.00  0.00    +0.000 C 
BRANCH  15  16
ATOM     16  C   UNL     1       7.638   5.167  17.426  0.00  0.00    +0.000 C 
BRANCH  16  17
ATOM     17  C   UNL     1       6.794   4.344  16.446  0.00  0.00    +0.000 C 
BRANCH  17  18
ATOM     18  C   UNL     1       6.165   5.195  15.338  0.00  0.00    +0.000 C 
BRANCH  18  19
ATOM     19  C   UNL     1       5.427   4.321  14.326  0.00  0.00    +0.000 C 
BRANCH  19  20
ATOM     20  N   UNL     1       6.351   3.329  13.777  0.00  0.00    +0.000 NA
ATOM     21  H   UNL     1       7.296   3.517  14.118  0.00  0.00    +0.000 HD
BRANCH  20  23
ATOM     22  C   UNL     1       4.917   3.396  11.816  0.00  0.00    +0.000 C 
ATOM     23  C   UNL     1       6.364   3.303  12.309  0.00  0.00    +0.000 C 
ATOM     24  C   UNL     1       7.183   4.450  11.713  0.00  0.00    +0.000 C 
ENDBRANCH  20  23
ENDBRANCH  19  20
ENDBRANCH  18  19
ENDBRANCH  17  18
ENDBRANCH  16  17
ENDBRANCH  15  16
ENDBRANCH   1  15
TORSDOF 9
ENDMDL
MODEL 9
REMARK VINA RESULT:      -6.1      2.504      6.088
REMARK  Name = 
REMARK  11 active torsions:
REMARK  status: ('A' for Active; 'I' for Inactive)
REMARK    1  A    between atoms: C_1  and  C_2
REMARK    2  A    between atoms: C_2  and  C_3
REMARK    3  A    between atoms: C_2  and  N_4
REMARK    4  A    between atoms: N_4  and  C_5
REMARK    5  A    between atoms: C_5  and  C_6
REMARK    6  A    between atoms: C_6  and  C_7
REMARK    7  A    between atoms: C_7  and  C_8
REMARK    8  A    between atoms: C_8  and  C_9
REMARK    9  A    between atoms: C_9  and  N_10
REMARK   10  A    between atoms: N_10  and  C_11
REMARK   11  A    between atoms: C_13  and  O_14
REMARK                            x       y       z     vdW  Elec       q    Type
REMARK                         _______ _______ _______ _____ _____    ______ ____
ROOT
ATOM      1  N   UNL     1       4.428   5.665  17.420  0.00  0.00    +0.000 N 
ATOM      2  H   UNL     1       4.267   4.884  16.773  0.00  0.00    +0.000 HD
ENDROOT
BRANCH   1   3
ATOM      3  C   UNL     1       3.440   5.564  18.447  0.00  0.00    +0.000 A 
ATOM      4  C   UNL     1       3.113   6.666  19.254  0.00  0.00    +0.000 A 
ATOM      5  C   UNL     1       2.103   6.570  20.199  0.00  0.00    +0.000 A 
ATOM      6  C   UNL     1       1.378   5.397  20.339  0.00  0.00    +0.000 A 
ATOM      7  C   UNL     1       1.659   4.299  19.514  0.00  0.00    +0.000 A 
ATOM      8  C   UNL     1       0.916   3.119  19.620  0.00  0.00    +0.000 A 
ATOM      9  C   UNL     1       1.197   2.046  18.786  0.00  0.00    +0.000 A 
ATOM     10  C   UNL     1       2.232   2.187  17.882  0.00  0.00    +0.000 A 
ATOM     11  N   UNL     1       2.983   3.305  17.759  0.00  0.00    +0.000 NA
ATOM     12  C   UNL     1       2.694   4.365  18.553  0.00  0.00    +0.000 A 
BRANCH   5  13
ATOM     13  O   UNL     1       1.784   7.622  21.005  0.00  0.00    +0.000 OA
ATOM     14  H   UNL     1       1.417   8.335  20.457  0.00  0.00    +0.000 HD
ENDBRANCH   5  13
ENDBRANCH   1   3
BRANCH   1  15
ATOM     15  C   UNL     1       5.808   5.797  17.863  0.00  0.00    +0.000 C 
BRANCH  15  16
ATOM     16  C   UNL     1       6.694   4.730  17.226  0.00  0.00    +0.000 C 
BRANCH  16  17
ATOM     17  C   UNL     1       5.981   4.022  16.068  0.00  0.00    +0.000 C 
BRANCH  17  18
ATOM     18  C   UNL     1       6.593   4.350  14.701  0.00  0.00    +0.000 C 
BRANCH  18  19
ATOM     19  C   UNL     1       5.685   3.879  13.566  0.00  0.00    +0.000 C 
BRANCH  19  20
ATOM     20  N   UNL     1       6.504   3.481  12.422  0.00  0.00    +0.000 NA
ATOM     21  H   UNL     1       6.976   4.303  12.038  0.00  0.00    +0.000 HD
BRANCH  20  23
ATOM     22  C   UNL     1       5.973   1.319  11.446  0.00  0.00    +0.000 C 
ATOM     23  C   UNL     1       5.730   2.829  11.358  0.00  0.00    +0.000 C 
ATOM     24  C   UNL     1       4.231   3.114  11.470  0.00  0.00    +0.000 C 
ENDBRANCH  20  23
ENDBRANCH  19  20
ENDBRANCH  18  19
ENDBRANCH  17  18
ENDBRANCH  16  17
ENDBRANCH  15  16
ENDBRANCH   1  15
TORSDOF 9
ENDMDL
