MODEL 1
REMARK VINA RESULT:      -7.4      0.000      0.000
REMARK  Name = 
REMARK  14 active torsions:
REMARK  status: ('A' for Active; 'I' for Inactive)
REMARK    1  A    between atoms: C_1  and  C_2
REMARK    2  A    between atoms: C_2  and  C_3
REMARK    3  A    between atoms: C_3  and  C_4
REMARK    4  A    between atoms: C_4  and  C_5
REMARK    5  A    between atoms: C_5  and  C_6
REMARK    6  A    between atoms: C_5  and  N_10
REMARK    7  A    between atoms: C_6  and  C_7
REMARK    8  A    between atoms: C_7  and  C_8
REMARK    9  A    between atoms: C_8  and  C_9
REMARK   10  A    between atoms: N_10  and  N_11
REMARK   11  A    between atoms: C_12  and  C_14
REMARK   12  A    between atoms: C_21  and  C_23
REMARK   13  A    between atoms: C_28  and  O_29
REMARK   14  A    between atoms: O_29  and  C_30
REMARK                            x       y       z     vdW  Elec       q    Type
REMARK                         _______ _______ _______ _____ _____    ______ ____
ROOT
ATOM      1  N   UNL     1       4.665   3.803  17.478  0.00  0.00    +0.000 N 
ATOM      2  C   UNL     1       4.107   2.618  18.057  0.00  0.00    +0.000 C 
ATOM      3  O   UNL     1       4.385   1.472  17.701  0.00  0.00    +0.000 OA
ENDROOT
BRANCH   2   4
ATOM      4  C   UNL     1       3.079   2.670  19.139  0.00  0.00    +0.000 A 
ATOM      5  C   UNL     1       3.485   2.629  20.477  0.00  0.00    +0.000 A 
ATOM      6  C   UNL     1       2.557   2.660  21.516  0.00  0.00    +0.000 A 
ATOM      7  C   UNL     1       1.211   2.820  21.231  0.00  0.00    +0.000 A 
ATOM      8  C   UNL     1       0.795   2.991  19.915  0.00  0.00    +0.000 A 
ATOM      9  C   UNL     1       1.722   2.954  18.859  0.00  0.00    +0.000 A 
BRANCH   9  10
ATOM     10  O   UNL     1       1.324   3.182  17.564  0.00  0.00    +0.000 OA
ATOM     11  C   UNL     1       0.952   4.529  17.249  0.00  0.00    +0.000 C 
ENDBRANCH   9  10
ENDBRANCH   2   4
BRANCH   1  12
ATOM     12  N   UNL     1       4.030   5.076  17.685  0.00  0.00    +0.000 N 
ATOM     13  C   UNL     1       4.073   5.860  18.832  0.00  0.00    +0.000 C 
ATOM     14  O   UNL     1       4.782   5.684  19.810  0.00  0.00    +0.000 OA
ATOM     15  H   UNL     1       3.732   5.543  16.840  0.00  0.00    +0.000 HD
BRANCH  13  16
ATOM     16  C   UNL     1       3.110   7.011  18.770  0.00  0.00    +0.000 A 
ATOM     17  C   UNL     1       3.262   7.907  17.690  0.00  0.00    +0.000 A 
ATOM     18  C   UNL     1       2.478   9.061  17.586  0.00  0.00    +0.000 A 
ATOM     19  C   UNL     1       1.505   9.324  18.542  0.00  0.00    +0.000 A 
ATOM     20  C   UNL     1       1.309   8.424  19.591  0.00  0.00    +0.000 A 
ATOM     21  C   UNL     1       2.106   7.264  19.711  0.00  0.00    +0.000 A 
ATOM     22 CL   UNL     1       1.820   6.246  21.065  0.00  0.00    +0.000 Cl
ENDBRANCH  13  16
ENDBRANCH   1  12
BRANCH   1  23
ATOM     23  C   UNL     1       5.707   3.781  16.379  0.00  0.00    +0.000 C 
BRANCH  23  24
ATOM     24  C   UNL     1       5.074   3.855  14.957  0.00  0.00    +0.000 C 
BRANCH  24  25
ATOM     25  C   UNL     1       5.951   3.951  13.712  0.00  0.00    +0.000 C 
BRANCH  25  27
ATOM     26  C   UNL     1       5.843   2.433  11.718  0.00  0.00    +0.000 C 
ATOM     27  C   UNL     1       5.201   3.610  12.431  0.00  0.00    +0.000 C 
ENDBRANCH  25  27
ENDBRANCH  24  25
ENDBRANCH  23  24
BRANCH  23  28
ATOM     28  C   UNL     1       6.815   4.851  16.579  0.00  0.00    +0.000 C 
BRANCH  28  29
ATOM     29  C   UNL     1       7.530   4.739  17.928  0.00  0.00    +0.000 C 
BRANCH  29  30
ATOM     30  C   UNL     1       7.829   6.095  18.565  0.00  0.00    +0.000 C 
ATOM     31  C   UNL     1       7.410   7.215  17.622  0.00  0.00    +0.000 C 
ENDBRANCH  29  30
ENDBRANCH  28  29
ENDBRANCH  23  28
ENDBRANCH   1  23
TORSDOF 11
ENDMDL
MODEL 2
REMARK VINA RESULT:      -7.3      0.853      1.768
REMARK  Name = 
REMARK  14 active torsions:
REMARK  status: ('A' for Active; 'I' for Inactive)
REMARK    1  A    between atoms: C_1  and  C_2
REMARK    2  A    between atoms: C_2  and  C_3
REMARK    3  A    between atoms: C_3  and  C_4
REMARK    4  A    between atoms: C_4  and  C_5
REMARK    5  A    between atoms: C_5  and  C_6
REMARK    6  A    between atoms: C_5  and  N_10
REMARK    7  A    between atoms: C_6  and  C_7
REMARK    8  A    between atoms: C_7  and  C_8
REMARK    9  A    between atoms: C_8  and  C_9
REMARK   10  A    between atoms: N_10  and  N_11
REMARK   11  A    between atoms: C_12  and  C_14
REMARK   12  A    between atoms: C_21  and  C_23
REMARK   13  A    between atoms: C_28  and  O_29
REMARK   14  A    between atoms: O_29  and  C_30
REMARK                            x       y       z     vdW  Elec       q    Type
REMARK                         _______ _______ _______ _____ _____    ______ ____
ROOT
ATOM      1  N   UNL     1       4.605   4.041  17.170  0.00  0.00    +0.000 N 
ATOM      2  C   UNL     1       4.072   2.836  17.732  0.00  0.00    +0.000 C 
ATOM      3  O   UNL     1       4.337   1.704  17.327  0.00  0.00    +0.000 OA
ENDROOT
BRANCH   2   4
ATOM      4  C   UNL     1       3.090   2.850  18.856  0.00  0.00    +0.000 A 
ATOM      5  C   UNL     1       1.720   2.878  18.573  0.00  0.00    +0.000 A 
ATOM      6  C   UNL     1       0.771   2.908  19.593  0.00  0.00    +0.000 A 
ATOM      7  C   UNL     1       1.179   2.821  20.914  0.00  0.00    +0.000 A 
ATOM      8  C   UNL     1       2.527   2.664  21.216  0.00  0.00    +0.000 A 
ATOM      9  C   UNL     1       3.493   2.640  20.195  0.00  0.00    +0.000 A 
BRANCH   9  10
ATOM     10  O   UNL     1       4.819   2.424  20.484  0.00  0.00    +0.000 OA
ATOM     11  C   UNL     1       5.153   1.114  20.956  0.00  0.00    +0.000 C 
ENDBRANCH   9  10
ENDBRANCH   2   4
BRANCH   1  12
ATOM     12  N   UNL     1       3.979   5.305  17.445  0.00  0.00    +0.000 N 
ATOM     13  C   UNL     1       3.955   5.985  18.657  0.00  0.00    +0.000 C 
ATOM     14  O   UNL     1       4.591   5.710  19.661  0.00  0.00    +0.000 OA
ATOM     15  H   UNL     1       3.746   5.850  16.627  0.00  0.00    +0.000 HD
BRANCH  13  16
ATOM     16  C   UNL     1       3.017   7.159  18.632  0.00  0.00    +0.000 A 
ATOM     17  C   UNL     1       3.185   8.082  17.577  0.00  0.00    +0.000 A 
ATOM     18  C   UNL     1       2.427   9.255  17.510  0.00  0.00    +0.000 A 
ATOM     19  C   UNL     1       1.463   9.512  18.476  0.00  0.00    +0.000 A 
ATOM     20  C   UNL     1       1.251   8.586  19.500  0.00  0.00    +0.000 A 
ATOM     21  C   UNL     1       2.023   7.407  19.584  0.00  0.00    +0.000 A 
ATOM     22 CL   UNL     1       1.718   6.357  20.909  0.00  0.00    +0.000 Cl
ENDBRANCH  13  16
ENDBRANCH   1  12
BRANCH   1  23
ATOM     23  C   UNL     1       5.601   4.058  16.029  0.00  0.00    +0.000 C 
BRANCH  23  24
ATOM     24  C   UNL     1       5.023   4.721  14.743  0.00  0.00    +0.000 C 
BRANCH  24  25
ATOM     25  C   UNL     1       5.068   3.998  13.401  0.00  0.00    +0.000 C 
BRANCH  25  27
ATOM     26  C   UNL     1       6.519   2.780  11.756  0.00  0.00    +0.000 C 
ATOM     27  C   UNL     1       6.486   3.801  12.880  0.00  0.00    +0.000 C 
ENDBRANCH  25  27
ENDBRANCH  24  25
ENDBRANCH  23  24
BRANCH  23  28
ATOM     28  C   UNL     1       6.970   4.672  16.435  0.00  0.00    +0.000 C 
BRANCH  28  29
ATOM     29  C   UNL     1       7.229   4.633  17.943  0.00  0.00    +0.000 C 
BRANCH  29  30
ATOM     30  C   UNL     1       7.759   5.954  18.496  0.00  0.00    +0.000 C 
ATOM     31  C   UNL     1       7.339   7.104  17.589  0.00  0.00    +0.000 C 
ENDBRANCH  29  30
ENDBRANCH  28  29
ENDBRANCH  23  28
ENDBRANCH   1  23
TORSDOF 11
ENDMDL
MODEL 3
REMARK VINA RESULT:      -7.3      1.042      3.466
REMARK  Name = 
REMARK  14 active torsions:
REMARK  status: ('A' for Active; 'I' for Inactive)
REMARK    1  A    between atoms: C_1  and  C_2
REMARK    2  A    between atoms: C_2  and  C_3
REMARK    3  A    between atoms: C_3  and  C_4
REMARK    4  A    between atoms: C_4  and  C_5
REMARK    5  A    between atoms: C_5  and  C_6
REMARK    6  A    between atoms: C_5  and  N_10
REMARK    7  A    between atoms: C_6  and  C_7
REMARK    8  A    between atoms: C_7  and  C_8
REMARK    9  A    between atoms: C_8  and  C_9
REMARK   10  A    between atoms: N_10  and  N_11
REMARK   11  A    between atoms: C_12  and  C_14
REMARK   12  A    between atoms: C_21  and  C_23
REMARK   13  A    between atoms: C_28  and  O_29
REMARK   14  A    between atoms: O_29  and  C_30
REMARK                            x       y       z     vdW  Elec       q    Type
REMARK                         _______ _______ _______ _____ _____    ______ ____
ROOT
ATOM      1  N   UNL     1       4.450   4.797  16.841  0.00  0.00    +0.000 N 
ATOM      2  C   UNL     1       4.009   3.489  17.225  0.00  0.00    +0.000 C 
ATOM      3  O   UNL     1       4.344   2.449  16.658  0.00  0.00    +0.000 OA
ENDROOT
BRANCH   2   4
ATOM      4  C   UNL     1       3.046   3.272  18.345  0.00  0.00    +0.000 A 
ATOM      5  C   UNL     1       1.672   3.277  18.082  0.00  0.00    +0.000 A 
ATOM      6  C   UNL     1       0.740   3.094  19.102  0.00  0.00    +0.000 A 
ATOM      7  C   UNL     1       1.173   2.816  20.388  0.00  0.00    +0.000 A 
ATOM      8  C   UNL     1       2.532   2.680  20.649  0.00  0.00    +0.000 A 
ATOM      9  C   UNL     1       3.482   2.870  19.629  0.00  0.00    +0.000 A 
BRANCH   9  10
ATOM     10  O   UNL     1       4.821   2.678  19.868  0.00  0.00    +0.000 OA
ATOM     11  C   UNL     1       5.158   1.537  20.666  0.00  0.00    +0.000 C 
ENDBRANCH   9  10
ENDBRANCH   2   4
BRANCH   1  12
ATOM     12  N   UNL     1       3.743   5.961  17.300  0.00  0.00    +0.000 N 
ATOM     13  C   UNL     1       3.723   6.478  18.590  0.00  0.00    +0.000 C 
ATOM     14  O   UNL     1       4.424   6.129  19.527  0.00  0.00    +0.000 OA
ATOM     15  H   UNL     1       3.434   6.585  16.569  0.00  0.00    +0.000 HD
BRANCH  13  16
ATOM     16  C   UNL     1       2.699   7.566  18.752  0.00  0.00    +0.000 A 
ATOM     17  C   UNL     1       2.723   8.604  17.796  0.00  0.00    +0.000 A 
ATOM     18  C   UNL     1       1.874   9.711  17.903  0.00  0.00    +0.000 A 
ATOM     19  C   UNL     1       0.964   9.785  18.950  0.00  0.00    +0.000 A 
ATOM     20  C   UNL     1       0.895   8.744  19.878  0.00  0.00    +0.000 A 
ATOM     21  C   UNL     1       1.759   7.630  19.785  0.00  0.00    +0.000 A 
ATOM     22 CL   UNL     1       1.629   6.427  21.004  0.00  0.00    +0.000 Cl
ENDBRANCH  13  16
ENDBRANCH   1  12
BRANCH   1  23
ATOM     23  C   UNL     1       5.424   5.048  15.709  0.00  0.00    +0.000 C 
BRANCH  23  24
ATOM     24  C   UNL     1       6.883   5.257  16.215  0.00  0.00    +0.000 C 
BRANCH  24  25
ATOM     25  C   UNL     1       7.365   4.608  17.509  0.00  0.00    +0.000 C 
BRANCH  25  27
ATOM     26  C   UNL     1       7.698   7.037  18.042  0.00  0.00    +0.000 C 
ATOM     27  C   UNL     1       7.681   5.623  18.599  0.00  0.00    +0.000 C 
ENDBRANCH  25  27
ENDBRANCH  24  25
ENDBRANCH  23  24
BRANCH  23  28
ATOM     28  C   UNL     1       5.345   3.966  14.596  0.00  0.00    +0.000 C 
BRANCH  28  29
ATOM     29  C   UNL     1       6.596   3.908  13.717  0.00  0.00    +0.000 C 
BRANCH  29  30
ATOM     30  C   UNL     1       6.310   3.432  12.294  0.00  0.00    +0.000 C 
ATOM     31  C   UNL     1       4.806   3.374  12.058  0.00  0.00    +0.000 C 
ENDBRANCH  29  30
ENDBRANCH  28  29
ENDBRANCH  23  28
ENDBRANCH   1  23
TORSDOF 11
ENDMDL
MODEL 4
REMARK VINA RESULT:      -6.8      1.250      3.534
REMARK  Name = 
REMARK  14 active torsions:
REMARK  status: ('A' for Active; 'I' for Inactive)
REMARK    1  A    between atoms: C_1  and  C_2
REMARK    2  A    between atoms: C_2  and  C_3
REMARK    3  A    between atoms: C_3  and  C_4
REMARK    4  A    between atoms: C_4  and  C_5
REMARK    5  A    between atoms: C_5  and  C_6
REMARK    6  A    between atoms: C_5  and  N_10
REMARK    7  A    between atoms: C_6  and  C_7
REMARK    8  A    between atoms: C_7  and  C_8
REMARK    9  A    between atoms: C_8  and  C_9
REMARK   10  A    between atoms: N_10  and  N_11
REMARK   11  A    between atoms: C_12  and  C_14
REMARK   12  A    between atoms: C_21  and  C_23
REMARK   13  A    between atoms: C_28  and  O_29
REMARK   14  A    between atoms: O_29  and  C_30
REMARK                            x       y       z     vdW  Elec       q    Type
REMARK                         _______ _______ _______ _____ _____    ______ ____
ROOT
ATOM      1  N   UNL     1       4.176   4.952  17.307  0.00  0.00    +0.000 N 
ATOM      2  C   UNL     1       3.939   3.621  17.783  0.00  0.00    +0.000 C 
ATOM      3  O   UNL     1       4.449   2.610  17.300  0.00  0.00    +0.000 OA
ENDROOT
BRANCH   2   4
ATOM      4  C   UNL     1       2.995   3.335  18.903  0.00  0.00    +0.000 A 
ATOM      5  C   UNL     1       1.617   3.340  18.660  0.00  0.00    +0.000 A 
ATOM      6  C   UNL     1       0.702   3.093  19.682  0.00  0.00    +0.000 A 
ATOM      7  C   UNL     1       1.157   2.750  20.945  0.00  0.00    +0.000 A 
ATOM      8  C   UNL     1       2.521   2.614  21.179  0.00  0.00    +0.000 A 
ATOM      9  C   UNL     1       3.453   2.868  20.157  0.00  0.00    +0.000 A 
BRANCH   9  10
ATOM     10  O   UNL     1       4.797   2.677  20.366  0.00  0.00    +0.000 OA
ATOM     11  C   UNL     1       5.183   1.373  20.819  0.00  0.00    +0.000 C 
ENDBRANCH   9  10
ENDBRANCH   2   4
BRANCH   1  12
ATOM     12  N   UNL     1       3.283   6.018  17.668  0.00  0.00    +0.000 N 
ATOM     13  C   UNL     1       3.601   7.360  17.836  0.00  0.00    +0.000 C 
ATOM     14  O   UNL     1       4.659   7.901  17.556  0.00  0.00    +0.000 OA
ATOM     15  H   UNL     1       2.302   5.806  17.553  0.00  0.00    +0.000 HD
BRANCH  13  16
ATOM     16  C   UNL     1       2.467   8.143  18.436  0.00  0.00    +0.000 A 
ATOM     17  C   UNL     1       2.037   9.283  17.722  0.00  0.00    +0.000 A 
ATOM     18  C   UNL     1       1.051  10.132  18.234  0.00  0.00    +0.000 A 
ATOM     19  C   UNL     1       0.453   9.842  19.454  0.00  0.00    +0.000 A 
ATOM     20  C   UNL     1       0.833   8.692  20.150  0.00  0.00    +0.000 A 
ATOM     21  C   UNL     1       1.838   7.837  19.647  0.00  0.00    +0.000 A 
ATOM     22 CL   UNL     1       2.268   6.476  20.603  0.00  0.00    +0.000 Cl
ENDBRANCH  13  16
ENDBRANCH   1  12
BRANCH   1  23
ATOM     23  C   UNL     1       5.127   5.273  16.173  0.00  0.00    +0.000 C 
BRANCH  23  24
ATOM     24  C   UNL     1       6.621   5.214  16.613  0.00  0.00    +0.000 C 
BRANCH  24  25
ATOM     25  C   UNL     1       7.341   6.463  17.113  0.00  0.00    +0.000 C 
BRANCH  25  27
ATOM     26  C   UNL     1       6.856   5.451  19.357  0.00  0.00    +0.000 C 
ATOM     27  C   UNL     1       7.793   6.345  18.563  0.00  0.00    +0.000 C 
ENDBRANCH  25  27
ENDBRANCH  24  25
ENDBRANCH  23  24
BRANCH  23  28
ATOM     28  C   UNL     1       4.861   4.415  14.904  0.00  0.00    +0.000 C 
BRANCH  28  29
ATOM     29  C   UNL     1       6.141   3.891  14.248  0.00  0.00    +0.000 C 
BRANCH  29  30
ATOM     30  C   UNL     1       5.960   3.541  12.772  0.00  0.00    +0.000 C 
ATOM     31  C   UNL     1       7.121   4.099  11.960  0.00  0.00    +0.000 C 
ENDBRANCH  29  30
ENDBRANCH  28  29
ENDBRANCH  23  28
ENDBRANCH   1  23
TORSDOF 11
ENDMDL
MODEL 5
REMARK VINA RESULT:      -6.7      1.351      2.280
REMARK  Name = 
REMARK  14 active torsions:
REMARK  status: ('A' for Active; 'I' for Inactive)
REMARK    1  A    between atoms: C_1  and  C_2
REMARK    2  A    between atoms: C_2  and  C_3
REMARK    3  A    between atoms: C_3  and  C_4
REMARK    4  A    between atoms: C_4  and  C_5
REMARK    5  A    between atoms: C_5  and  C_6
REMARK    6  A    between atoms: C_5  and  N_10
REMARK    7  A    between atoms: C_6  and  C_7
REMARK    8  A    between atoms: C_7  and  C_8
REMARK    9  A    between atoms: C_8  and  C_9
REMARK   10  A    between atoms: N_10  and  N_11
REMARK   11  A    between atoms: C_12  and  C_14
REMARK   12  A    between atoms: C_21  and  C_23
REMARK   13  A    between atoms: C_28  and  O_29
REMARK   14  A    between atoms: O_29  and  C_30
REMARK                            x       y       z     vdW  Elec       q    Type
REMARK                         _______ _______ _______ _____ _____    ______ ____
ROOT
ATOM      1  N   UNL     1       4.679   3.774  17.396  0.00  0.00    +0.000 N 
ATOM      2  C   UNL     1       4.066   2.601  17.946  0.00  0.00    +0.000 C 
ATOM      3  O   UNL     1       4.294   1.453  17.564  0.00  0.00    +0.000 OA
ENDROOT
BRANCH   2   4
ATOM      4  C   UNL     1       3.038   2.675  19.025  0.00  0.00    +0.000 A 
ATOM      5  C   UNL     1       1.681   2.645  18.687  0.00  0.00    +0.000 A 
ATOM      6  C   UNL     1       0.689   2.728  19.663  0.00  0.00    +0.000 A 
ATOM      7  C   UNL     1       1.044   2.752  21.002  0.00  0.00    +0.000 A 
ATOM      8  C   UNL     1       2.381   2.654  21.369  0.00  0.00    +0.000 A 
ATOM      9  C   UNL     1       3.390   2.578  20.392  0.00  0.00    +0.000 A 
BRANCH   9  10
ATOM     10  O   UNL     1       4.707   2.421  20.749  0.00  0.00    +0.000 OA
ATOM     11  C   UNL     1       5.102   1.095  21.119  0.00  0.00    +0.000 C 
ENDBRANCH   9  10
ENDBRANCH   2   4
BRANCH   1  12
ATOM     12  N   UNL     1       4.102   5.069  17.631  0.00  0.00    +0.000 N 
ATOM     13  C   UNL     1       4.112   5.790  18.818  0.00  0.00    +0.000 C 
ATOM     14  O   UNL     1       4.745   5.526  19.828  0.00  0.00    +0.000 OA
ATOM     15  H   UNL     1       3.884   5.593  16.795  0.00  0.00    +0.000 HD
BRANCH  13  16
ATOM     16  C   UNL     1       3.217   6.996  18.758  0.00  0.00    +0.000 A 
ATOM     17  C   UNL     1       2.392   7.228  19.879  0.00  0.00    +0.000 A 
ATOM     18  C   UNL     1       1.457   8.269  19.891  0.00  0.00    +0.000 A 
ATOM     19  C   UNL     1       1.352   9.117  18.796  0.00  0.00    +0.000 A 
ATOM     20  C   UNL     1       2.195   8.931  17.698  0.00  0.00    +0.000 A 
ATOM     21  C   UNL     1       3.131   7.873  17.671  0.00  0.00    +0.000 A 
ATOM     22 CL   UNL     1       4.086   7.699  16.254  0.00  0.00    +0.000 Cl
ENDBRANCH  13  16
ENDBRANCH   1  12
BRANCH   1  23
ATOM     23  C   UNL     1       5.724   3.730  16.300  0.00  0.00    +0.000 C 
BRANCH  23  24
ATOM     24  C   UNL     1       5.199   4.313  14.954  0.00  0.00    +0.000 C 
BRANCH  24  25
ATOM     25  C   UNL     1       6.119   4.443  13.744  0.00  0.00    +0.000 C 
BRANCH  25  27
ATOM     26  C   UNL     1       4.702   3.470  11.917  0.00  0.00    +0.000 C 
ATOM     27  C   UNL     1       5.960   3.299  12.752  0.00  0.00    +0.000 C 
ENDBRANCH  25  27
ENDBRANCH  24  25
ENDBRANCH  23  24
BRANCH  23  28
ATOM     28  C   UNL     1       7.072   4.375  16.727  0.00  0.00    +0.000 C 
BRANCH  28  29
ATOM     29  C   UNL     1       7.138   5.878  16.449  0.00  0.00    +0.000 C 
BRANCH  29  30
ATOM     30  C   UNL     1       7.286   6.719  17.716  0.00  0.00    +0.000 C 
ATOM     31  C   UNL     1       7.936   5.889  18.816  0.00  0.00    +0.000 C 
ENDBRANCH  29  30
ENDBRANCH  28  29
ENDBRANCH  23  28
ENDBRANCH   1  23
TORSDOF 11
ENDMDL
MODEL 6
REMARK VINA RESULT:      -6.5      1.419      2.343
REMARK  Name = 
REMARK  14 active torsions:
REMARK  status: ('A' for Active; 'I' for Inactive)
REMARK    1  A    between atoms: C_1  and  C_2
REMARK    2  A    between atoms: C_2  and  C_3
REMARK    3  A    between atoms: C_3  and  C_4
REMARK    4  A    between atoms: C_4  and  C_5
REMARK    5  A    between atoms: C_5  and  C_6
REMARK    6  A    between atoms: C_5  and  N_10
REMARK    7  A    between atoms: C_6  and  C_7
REMARK    8  A    between atoms: C_7  and  C_8
REMARK    9  A    between atoms: C_8  and  C_9
REMARK   10  A    between atoms: N_10  and  N_11
REMARK   11  A    between atoms: C_12  and  C_14
REMARK   12  A    between atoms: C_21  and  C_23
REMARK   13  A    between atoms: C_28  and  O_29
REMARK   14  A    between atoms: O_29  and  C_30
REMARK                            x       y       z     vdW  Elec       q    Type
REMARK                         _______ _______ _______ _____ _____    ______ ____
ROOT
ATOM      1  N   UNL     1       4.584   5.153  18.159  0.00  0.00    +0.000 N 
ATOM      2  C   UNL     1       4.231   3.793  18.438  0.00  0.00    +0.000 C 
ATOM      3  O   UNL     1       4.701   2.818  17.853  0.00  0.00    +0.000 OA
ENDROOT
BRANCH   2   4
ATOM      4  C   UNL     1       3.202   3.434  19.458  0.00  0.00    +0.000 A 
ATOM      5  C   UNL     1       1.845   3.549  19.138  0.00  0.00    +0.000 A 
ATOM      6  C   UNL     1       0.853   3.239  20.067  0.00  0.00    +0.000 A 
ATOM      7  C   UNL     1       1.206   2.724  21.303  0.00  0.00    +0.000 A 
ATOM      8  C   UNL     1       2.543   2.481  21.599  0.00  0.00    +0.000 A 
ATOM      9  C   UNL     1       3.552   2.797  20.672  0.00  0.00    +0.000 A 
BRANCH   9  10
ATOM     10  O   UNL     1       4.868   2.503  20.935  0.00  0.00    +0.000 OA
ATOM     11  C   UNL     1       5.195   1.111  21.019  0.00  0.00    +0.000 C 
ENDBRANCH   9  10
ENDBRANCH   2   4
BRANCH   1  12
ATOM     12  N   UNL     1       3.743   6.226  18.611  0.00  0.00    +0.000 N 
ATOM     13  C   UNL     1       2.498   6.586  18.110  0.00  0.00    +0.000 C 
ATOM     14  O   UNL     1       1.827   5.963  17.303  0.00  0.00    +0.000 OA
ATOM     15  H   UNL     1       3.975   6.591  19.524  0.00  0.00    +0.000 HD
BRANCH  13  16
ATOM     16  C   UNL     1       2.015   7.893  18.673  0.00  0.00    +0.000 A 
ATOM     17  C   UNL     1       2.098   9.018  17.823  0.00  0.00    +0.000 A 
ATOM     18  C   UNL     1       1.761  10.298  18.275  0.00  0.00    +0.000 A 
ATOM     19  C   UNL     1       1.303  10.474  19.574  0.00  0.00    +0.000 A 
ATOM     20  C   UNL     1       1.169   9.365  20.413  0.00  0.00    +0.000 A 
ATOM     21  C   UNL     1       1.522   8.072  19.969  0.00  0.00    +0.000 A 
ATOM     22 CL   UNL     1       1.368   6.782  21.094  0.00  0.00    +0.000 Cl
ENDBRANCH  13  16
ENDBRANCH   1  12
BRANCH   1  23
ATOM     23  C   UNL     1       5.623   5.547  17.129  0.00  0.00    +0.000 C 
BRANCH  23  24
ATOM     24  C   UNL     1       5.193   5.179  15.678  0.00  0.00    +0.000 C 
BRANCH  24  25
ATOM     25  C   UNL     1       5.935   4.105  14.888  0.00  0.00    +0.000 C 
BRANCH  25  27
ATOM     26  C   UNL     1       6.464   3.685  12.472  0.00  0.00    +0.000 C 
ATOM     27  C   UNL     1       5.359   3.891  13.494  0.00  0.00    +0.000 C 
ENDBRANCH  25  27
ENDBRANCH  24  25
ENDBRANCH  23  24
BRANCH  23  28
ATOM     28  C   UNL     1       6.053   7.036  17.248  0.00  0.00    +0.000 C 
BRANCH  28  29
ATOM     29  C   UNL     1       7.559   7.247  17.072  0.00  0.00    +0.000 C 
BRANCH  29  30
ATOM     30  C   UNL     1       8.239   7.804  18.322  0.00  0.00    +0.000 C 
ATOM     31  C   UNL     1       8.392   9.315  18.200  0.00  0.00    +0.000 C 
ENDBRANCH  29  30
ENDBRANCH  28  29
ENDBRANCH  23  28
ENDBRANCH   1  23
TORSDOF 11
ENDMDL
MODEL 7
REMARK VINA RESULT:      -6.5      1.121      1.450
REMARK  Name = 
REMARK  14 active torsions:
REMARK  status: ('A' for Active; 'I' for Inactive)
REMARK    1  A    between atoms: C_1  and  C_2
REMARK    2  A    between atoms: C_2  and  C_3
REMARK    3  A    between atoms: C_3  and  C_4
REMARK    4  A    between atoms: C_4  and  C_5
REMARK    5  A    between atoms: C_5  and  C_6
REMARK    6  A    between atoms: C_5  and  N_10
REMARK    7  A    between atoms: C_6  and  C_7
REMARK    8  A    between atoms: C_7  and  C_8
REMARK    9  A    between atoms: C_8  and  C_9
REMARK   10  A    between atoms: N_10  and  N_11
REMARK   11  A    between atoms: C_12  and  C_14
REMARK   12  A    between atoms: C_21  and  C_23
REMARK   13  A    between atoms: C_28  and  O_29
REMARK   14  A    between atoms: O_29  and  C_30
REMARK                            x       y       z     vdW  Elec       q    Type
REMARK                         _______ _______ _______ _____ _____    ______ ____
ROOT
ATOM      1  N   UNL     1       4.570   3.784  17.466  0.00  0.00    +0.000 N 
ATOM      2  C   UNL     1       4.032   2.579  18.024  0.00  0.00    +0.000 C 
ATOM      3  O   UNL     1       4.268   1.448  17.598  0.00  0.00    +0.000 OA
ENDROOT
BRANCH   2   4
ATOM      4  C   UNL     1       3.078   2.593  19.173  0.00  0.00    +0.000 A 
ATOM      5  C   UNL     1       3.571   2.489  20.478  0.00  0.00    +0.000 A 
ATOM      6  C   UNL     1       2.713   2.482  21.577  0.00  0.00    +0.000 A 
ATOM      7  C   UNL     1       1.353   2.668  21.388  0.00  0.00    +0.000 A 
ATOM      8  C   UNL     1       0.853   2.901  20.111  0.00  0.00    +0.000 A 
ATOM      9  C   UNL     1       1.709   2.902  18.995  0.00  0.00    +0.000 A 
BRANCH   9  10
ATOM     10  O   UNL     1       1.231   3.191  17.741  0.00  0.00    +0.000 OA
ATOM     11  C   UNL     1       0.995   4.576  17.462  0.00  0.00    +0.000 C 
ENDBRANCH   9  10
ENDBRANCH   2   4
BRANCH   1  12
ATOM     12  N   UNL     1       3.972   5.053  17.774  0.00  0.00    +0.000 N 
ATOM     13  C   UNL     1       4.086   5.771  18.958  0.00  0.00    +0.000 C 
ATOM     14  O   UNL     1       4.839   5.530  19.888  0.00  0.00    +0.000 OA
ATOM     15  H   UNL     1       3.640   5.571  16.972  0.00  0.00    +0.000 HD
BRANCH  13  16
ATOM     16  C   UNL     1       3.143   6.940  19.008  0.00  0.00    +0.000 A 
ATOM     17  C   UNL     1       2.358   7.070  20.174  0.00  0.00    +0.000 A 
ATOM     18  C   UNL     1       1.385   8.069  20.287  0.00  0.00    +0.000 A 
ATOM     19  C   UNL     1       1.199   8.975  19.251  0.00  0.00    +0.000 A 
ATOM     20  C   UNL     1       2.000   8.889  18.111  0.00  0.00    +0.000 A 
ATOM     21  C   UNL     1       2.975   7.875  17.982  0.00  0.00    +0.000 A 
ATOM     22 CL   UNL     1       3.874   7.825  16.518  0.00  0.00    +0.000 Cl
ENDBRANCH  13  16
ENDBRANCH   1  12
BRANCH   1  23
ATOM     23  C   UNL     1       5.538   3.800  16.301  0.00  0.00    +0.000 C 
BRANCH  23  24
ATOM     24  C   UNL     1       4.955   4.529  15.053  0.00  0.00    +0.000 C 
BRANCH  24  25
ATOM     25  C   UNL     1       5.146   3.957  13.651  0.00  0.00    +0.000 C 
BRANCH  25  27
ATOM     26  C   UNL     1       6.752   3.140  11.906  0.00  0.00    +0.000 C 
ATOM     27  C   UNL     1       6.602   3.648  13.330  0.00  0.00    +0.000 C 
ENDBRANCH  25  27
ENDBRANCH  24  25
ENDBRANCH  23  24
BRANCH  23  28
ATOM     28  C   UNL     1       6.940   4.346  16.691  0.00  0.00    +0.000 C 
BRANCH  28  29
ATOM     29  C   UNL     1       7.038   5.871  16.616  0.00  0.00    +0.000 C 
BRANCH  29  30
ATOM     30  C   UNL     1       7.527   6.507  17.917  0.00  0.00    +0.000 C 
ATOM     31  C   UNL     1       7.850   7.978  17.686  0.00  0.00    +0.000 C 
ENDBRANCH  29  30
ENDBRANCH  28  29
ENDBRANCH  23  28
ENDBRANCH   1  23
TORSDOF 11
ENDMDL
MODEL 8
REMARK VINA RESULT:      -6.5      1.429      3.700
REMARK  Name = 
REMARK  14 active torsions:
REMARK  status: ('A' for Active; 'I' for Inactive)
REMARK    1  A    between atoms: C_1  and  C_2
REMARK    2  A    between atoms: C_2  and  C_3
REMARK    3  A    between atoms: C_3  and  C_4
REMARK    4  A    between atoms: C_4  and  C_5
REMARK    5  A    between atoms: C_5  and  C_6
REMARK    6  A    between atoms: C_5  and  N_10
REMARK    7  A    between atoms: C_6  and  C_7
REMARK    8  A    between atoms: C_7  and  C_8
REMARK    9  A    between atoms: C_8  and  C_9
REMARK   10  A    between atoms: N_10  and  N_11
REMARK   11  A    between atoms: C_12  and  C_14
REMARK   12  A    between atoms: C_21  and  C_23
REMARK   13  A    between atoms: C_28  and  O_29
REMARK   14  A    between atoms: O_29  and  C_30
REMARK                            x       y       z     vdW  Elec       q    Type
REMARK                         _______ _______ _______ _____ _____    ______ ____
ROOT
ATOM      1  N   UNL     1       4.118   5.518  17.817  0.00  0.00    +0.000 N 
ATOM      2  C   UNL     1       3.814   4.140  18.066  0.00  0.00    +0.000 C 
ATOM      3  O   UNL     1       4.188   3.206  17.357  0.00  0.00    +0.000 OA
ENDROOT
BRANCH   2   4
ATOM      4  C   UNL     1       2.957   3.710  19.211  0.00  0.00    +0.000 A 
ATOM      5  C   UNL     1       1.568   3.846  19.121  0.00  0.00    +0.000 A 
ATOM      6  C   UNL     1       0.734   3.472  20.173  0.00  0.00    +0.000 A 
ATOM      7  C   UNL     1       1.275   2.874  21.300  0.00  0.00    +0.000 A 
ATOM      8  C   UNL     1       2.639   2.611  21.360  0.00  0.00    +0.000 A 
ATOM      9  C   UNL     1       3.491   2.991  20.307  0.00  0.00    +0.000 A 
BRANCH   9  10
ATOM     10  O   UNL     1       4.828   2.681  20.335  0.00  0.00    +0.000 OA
ATOM     11  C   UNL     1       5.160   1.380  20.834  0.00  0.00    +0.000 C 
ENDBRANCH   9  10
ENDBRANCH   2   4
BRANCH   1  12
ATOM     12  N   UNL     1       3.356   6.553  18.459  0.00  0.00    +0.000 N 
ATOM     13  C   UNL     1       2.112   7.040  18.079  0.00  0.00    +0.000 C 
ATOM     14  O   UNL     1       1.373   6.570  17.227  0.00  0.00    +0.000 OA
ATOM     15  H   UNL     1       3.648   6.772  19.401  0.00  0.00    +0.000 HD
BRANCH  13  16
ATOM     16  C   UNL     1       1.725   8.274  18.843  0.00  0.00    +0.000 A 
ATOM     17  C   UNL     1       1.727   9.490  18.125  0.00  0.00    +0.000 A 
ATOM     18  C   UNL     1       1.471  10.710  18.761  0.00  0.00    +0.000 A 
ATOM     19  C   UNL     1       1.177  10.735  20.118  0.00  0.00    +0.000 A 
ATOM     20  C   UNL     1       1.125   9.536  20.833  0.00  0.00    +0.000 A 
ATOM     21  C   UNL     1       1.397   8.302  20.203  0.00  0.00    +0.000 A 
ATOM     22 CL   UNL     1       1.356   6.890  21.181  0.00  0.00    +0.000 Cl
ENDBRANCH  13  16
ENDBRANCH   1  12
BRANCH   1  23
ATOM     23  C   UNL     1       4.982   5.983  16.663  0.00  0.00    +0.000 C 
BRANCH  23  24
ATOM     24  C   UNL     1       5.950   7.133  17.071  0.00  0.00    +0.000 C 
BRANCH  24  25
ATOM     25  C   UNL     1       7.458   6.905  17.134  0.00  0.00    +0.000 C 
BRANCH  25  27
ATOM     26  C   UNL     1       7.558   5.664  19.312  0.00  0.00    +0.000 C 
ATOM     27  C   UNL     1       7.998   6.908  18.558  0.00  0.00    +0.000 C 
ENDBRANCH  25  27
ENDBRANCH  24  25
ENDBRANCH  23  24
BRANCH  23  28
ATOM     28  C   UNL     1       5.731   4.814  15.963  0.00  0.00    +0.000 C 
BRANCH  28  29
ATOM     29  C   UNL     1       5.539   4.796  14.445  0.00  0.00    +0.000 C 
BRANCH  29  30
ATOM     30  C   UNL     1       6.369   3.720  13.747  0.00  0.00    +0.000 C 
ATOM     31  C   UNL     1       5.781   3.420  12.374  0.00  0.00    +0.000 C 
ENDBRANCH  29  30
ENDBRANCH  28  29
ENDBRANCH  23  28
ENDBRANCH   1  23
TORSDOF 11
ENDMDL
MODEL 9
REMARK VINA RESULT:      -6.5      1.948      4.059
REMARK  Name = 
REMARK  14 active torsions:
REMARK  status: ('A' for Active; 'I' for Inactive)
REMARK    1  A    between atoms: C_1  and  C_2
REMARK    2  A    between atoms: C_2  and  C_3
REMARK    3  A    between atoms: C_3  and  C_4
REMARK    4  A    between atoms: C_4  and  C_5
REMARK    5  A    between atoms: C_5  and  C_6
REMARK    6  A    between atoms: C_5  and  N_10
REMARK    7  A    between atoms: C_6  and  C_7
REMARK    8  A    between atoms: C_7  and  C_8
REMARK    9  A    between atoms: C_8  and  C_9
REMARK   10  A    between atoms: N_10  and  N_11
REMARK   11  A    between atoms: C_12  and  C_14
REMARK   12  A    between atoms: C_21  and  C_23
REMARK   13  A    between atoms: C_28  and  O_29
REMARK   14  A    between atoms: O_29  and  C_30
REMARK                            x       y       z     vdW  Elec       q    Type
REMARK                         _______ _______ _______ _____ _____    ______ ____
ROOT
ATOM      1  N   UNL     1       4.438   5.701  18.293  0.00  0.00    +0.000 N 
ATOM      2  C   UNL     1       4.106   4.320  18.103  0.00  0.00    +0.000 C 
ATOM      3  O   UNL     1       4.631   3.587  17.265  0.00  0.00    +0.000 OA
ENDROOT
BRANCH   2   4
ATOM      4  C   UNL     1       3.033   3.645  18.893  0.00  0.00    +0.000 A 
ATOM      5  C   UNL     1       1.729   3.605  18.389  0.00  0.00    +0.000 A 
ATOM      6  C   UNL     1       0.696   2.999  19.103  0.00  0.00    +0.000 A 
ATOM      7  C   UNL     1       0.974   2.346  20.293  0.00  0.00    +0.000 A 
ATOM      8  C   UNL     1       2.284   2.263  20.750  0.00  0.00    +0.000 A 
ATOM      9  C   UNL     1       3.332   2.877  20.042  0.00  0.00    +0.000 A 
BRANCH   9  10
ATOM     10  O   UNL     1       4.635   2.747  20.458  0.00  0.00    +0.000 OA
ATOM     11  C   UNL     1       5.054   1.420  20.801  0.00  0.00    +0.000 C 
ENDBRANCH   9  10
ENDBRANCH   2   4
BRANCH   1  12
ATOM     12  N   UNL     1       3.547   6.566  19.015  0.00  0.00    +0.000 N 
ATOM     13  C   UNL     1       2.432   7.229  18.516  0.00  0.00    +0.000 C 
ATOM     14  O   UNL     1       1.920   7.073  17.419  0.00  0.00    +0.000 OA
ATOM     15  H   UNL     1       3.603   6.489  20.020  0.00  0.00    +0.000 HD
BRANCH  13  16
ATOM     16  C   UNL     1       1.875   8.222  19.496  0.00  0.00    +0.000 A 
ATOM     17  C   UNL     1       1.600   7.744  20.795  0.00  0.00    +0.000 A 
ATOM     18  C   UNL     1       0.996   8.560  21.758  0.00  0.00    +0.000 A 
ATOM     19  C   UNL     1       0.686   9.878  21.451  0.00  0.00    +0.000 A 
ATOM     20  C   UNL     1       0.995  10.381  20.185  0.00  0.00    +0.000 A 
ATOM     21  C   UNL     1       1.590   9.560  19.202  0.00  0.00    +0.000 A 
ATOM     22 CL   UNL     1       1.884  10.259  17.661  0.00  0.00    +0.000 Cl
ENDBRANCH  13  16
ENDBRANCH   1  12
BRANCH   1  23
ATOM     23  C   UNL     1       5.520   6.412  17.506  0.00  0.00    +0.000 C 
BRANCH  23  24
ATOM     24  C   UNL     1       6.953   6.016  17.973  0.00  0.00    +0.000 C 
BRANCH  24  25
ATOM     25  C   UNL     1       7.961   7.080  18.397  0.00  0.00    +0.000 C 
BRANCH  25  27
ATOM     26  C   UNL     1       8.555   9.516  18.302  0.00  0.00    +0.000 C 
ATOM     27  C   UNL     1       7.814   8.380  17.617  0.00  0.00    +0.000 C 
ENDBRANCH  25  27
ENDBRANCH  24  25
ENDBRANCH  23  24
BRANCH  23  28
ATOM     28  C   UNL     1       5.345   6.257  15.970  0.00  0.00    +0.000 C 
BRANCH  28  29
ATOM     29  C   UNL     1       6.412   5.368  15.325  0.00  0.00    +0.000 C 
BRANCH  29  30
ATOM     30  C   UNL     1       6.144   5.082  13.849  0.00  0.00    +0.000 C 
ATOM     31  C   UNL     1       6.153   3.579  13.601  0.00  0.00    +0.000 C 
ENDBRANCH  29  30
ENDBRANCH  28  29
ENDBRANCH  23  28
ENDBRANCH   1  23
TORSDOF 11
ENDMDL
