MODEL 1
REMARK VINA RESULT:      -7.6      0.000      0.000
REMARK  Name = 
REMARK  8 active torsions:
REMARK  status: ('A' for Active; 'I' for Inactive)
REMARK    1  A    between atoms: C_1  and  N_2
REMARK    2  A    between atoms: C_7  and  N_8
REMARK    3  A    between atoms: C_9  and  O_11
REMARK    4  A    between atoms: O_11  and  C_12
REMARK    5  A    between atoms: C_12  and  C_13
REMARK    6  A    between atoms: N_18  and  C_19
REMARK    7  A    between atoms: C_19  and  C_20
REMARK    8  A    between atoms: C_24  and  C_25
REMARK                            x       y       z     vdW  Elec       q    Type
REMARK                         _______ _______ _______ _____ _____    ______ ____
ROOT
ATOM      1  C   UNL     1      -0.093  11.610  21.664  0.00  0.00    +0.000 C 
ATOM      2  N   UNL     1       0.421  10.504  20.891  0.00  0.00    +0.000 N 
ATOM      3  C   UNL     1       0.852   9.295  21.413  0.00  0.00    +0.000 A 
ATOM      4  O   UNL     1       0.772   8.877  22.556  0.00  0.00    +0.000 OA
ATOM      5  C   UNL     1       1.444   8.577  20.286  0.00  0.00    +0.000 A 
ATOM      6  C   UNL     1       1.937   7.283  20.235  0.00  0.00    +0.000 A 
ATOM      7  C   UNL     1       2.376   6.796  19.003  0.00  0.00    +0.000 A 
ATOM      8  C   UNL     1       2.334   7.649  17.884  0.00  0.00    +0.000 A 
ATOM      9  C   UNL     1       1.859   8.978  17.984  0.00  0.00    +0.000 A 
ATOM     10  C   UNL     1       1.387   9.446  19.195  0.00  0.00    +0.000 A 
ATOM     11  N   UNL     1       0.898  10.703  19.562  0.00  0.00    +0.000 N 
ENDROOT
BRANCH   7  12
ATOM     12  N   UNL     1       2.870   5.475  18.831  0.00  0.00    +0.000 N 
ATOM     13  C   UNL     1       4.153   5.066  19.077  0.00  0.00    +0.000 C 
ATOM     14  O   UNL     1       5.072   5.768  19.500  0.00  0.00    +0.000 OA
ATOM     15  H   UNL     1       2.276   4.770  18.419  0.00  0.00    +0.000 HD
BRANCH  13  16
ATOM     16  O   UNL     1       4.349   3.780  18.691  0.00  0.00    +0.000 OA
BRANCH  16  17
ATOM     17  C   UNL     1       3.429   3.360  17.659  0.00  0.00    +0.000 C 
BRANCH  17  18
ATOM     18  C   UNL     1       2.747   2.016  17.897  0.00  0.00    +0.000 C 
ATOM     19  F   UNL     1       3.684   1.083  18.220  0.00  0.00    +0.000 F 
ENDBRANCH  17  18
ENDBRANCH  16  17
ENDBRANCH  13  16
ENDBRANCH   7  12
BRANCH  11  20
ATOM     20  C   UNL     1       0.160  11.588  18.659  0.00  0.00    +0.000 C 
BRANCH  20  21
ATOM     21  C   UNL     1      -1.252  11.079  18.383  0.00  0.00    +0.000 A 
ATOM     22  C   UNL     1      -1.455  10.062  17.432  0.00  0.00    +0.000 A 
ATOM     23  C   UNL     1      -2.740   9.745  16.984  0.00  0.00    +0.000 A 
ATOM     24  C   UNL     1      -3.842  10.432  17.482  0.00  0.00    +0.000 A 
ATOM     25  C   UNL     1      -3.681  11.415  18.469  0.00  0.00    +0.000 A 
ATOM     26  C   UNL     1      -2.383  11.716  18.925  0.00  0.00    +0.000 A 
BRANCH  25  27
ATOM     27  C   UNL     1      -4.870  12.190  18.982  0.00  0.00    +0.000 C 
ATOM     28  F   UNL     1      -5.774  11.415  19.648  0.00  0.00    +0.000 F 
ATOM     29  F   UNL     1      -4.528  13.187  19.841  0.00  0.00    +0.000 F 
ATOM     30  F   UNL     1      -5.570  12.783  17.974  0.00  0.00    +0.000 F 
ENDBRANCH  25  27
ENDBRANCH  20  21
ENDBRANCH  11  20
TORSDOF 7
ENDMDL
MODEL 2
REMARK VINA RESULT:      -7.6      3.127      9.078
REMARK  Name = 
REMARK  8 active torsions:
REMARK  status: ('A' for Active; 'I' for Inactive)
REMARK    1  A    between atoms: C_1  and  N_2
REMARK    2  A    between atoms: C_7  and  N_8
REMARK    3  A    between atoms: C_9  and  O_11
REMARK    4  A    between atoms: O_11  and  C_12
REMARK    5  A    between atoms: C_12  and  C_13
REMARK    6  A    between atoms: N_18  and  C_19
REMARK    7  A    between atoms: C_19  and  C_20
REMARK    8  A    between atoms: C_24  and  C_25
REMARK                            x       y       z     vdW  Elec       q    Type
REMARK                         _______ _______ _______ _____ _____    ______ ____
ROOT
ATOM      1  C   UNL     1       2.969   1.728  19.672  0.00  0.00    +0.000 C 
ATOM      2  N   UNL     1       2.806   3.162  19.670  0.00  0.00    +0.000 N 
ATOM      3  C   UNL     1       2.410   3.924  20.757  0.00  0.00    +0.000 A 
ATOM      4  O   UNL     1       2.250   3.586  21.917  0.00  0.00    +0.000 OA
ATOM      5  C   UNL     1       2.216   5.274  20.232  0.00  0.00    +0.000 A 
ATOM      6  C   UNL     1       1.915   6.443  20.913  0.00  0.00    +0.000 A 
ATOM      7  C   UNL     1       1.866   7.633  20.186  0.00  0.00    +0.000 A 
ATOM      8  C   UNL     1       2.084   7.586  18.795  0.00  0.00    +0.000 A 
ATOM      9  C   UNL     1       2.351   6.367  18.129  0.00  0.00    +0.000 A 
ATOM     10  C   UNL     1       2.439   5.195  18.857  0.00  0.00    +0.000 A 
ATOM     11  N   UNL     1       2.661   3.877  18.445  0.00  0.00    +0.000 N 
ENDROOT
BRANCH   7  12
ATOM     12  N   UNL     1       1.598   8.891  20.788  0.00  0.00    +0.000 N 
ATOM     13  C   UNL     1       0.480   9.206  21.513  0.00  0.00    +0.000 C 
ATOM     14  O   UNL     1      -0.456   8.449  21.772  0.00  0.00    +0.000 OA
ATOM     15  H   UNL     1       2.223   9.667  20.621  0.00  0.00    +0.000 HD
BRANCH  13  16
ATOM     16  O   UNL     1       0.454  10.522  21.843  0.00  0.00    +0.000 OA
BRANCH  16  17
ATOM     17  C   UNL     1       0.325  11.385  20.691  0.00  0.00    +0.000 C 
BRANCH  17  18
ATOM     18  C   UNL     1      -0.858  11.082  19.775  0.00  0.00    +0.000 C 
ATOM     19  F   UNL     1      -0.405  10.518  18.622  0.00  0.00    +0.000 F 
ENDBRANCH  17  18
ENDBRANCH  16  17
ENDBRANCH  13  16
ENDBRANCH   7  12
BRANCH  11  20
ATOM     20  C   UNL     1       3.489   3.509  17.295  0.00  0.00    +0.000 C 
BRANCH  20  21
ATOM     21  C   UNL     1       4.644   4.484  17.082  0.00  0.00    +0.000 A 
ATOM     22  C   UNL     1       4.916   4.973  15.792  0.00  0.00    +0.000 A 
ATOM     23  C   UNL     1       6.099   5.667  15.524  0.00  0.00    +0.000 A 
ATOM     24  C   UNL     1       7.024   5.890  16.539  0.00  0.00    +0.000 A 
ATOM     25  C   UNL     1       6.759   5.462  17.848  0.00  0.00    +0.000 A 
ATOM     26  C   UNL     1       5.557   4.777  18.111  0.00  0.00    +0.000 A 
BRANCH  25  27
ATOM     27  C   UNL     1       7.777   5.667  18.943  0.00  0.00    +0.000 C 
ATOM     28  F   UNL     1       8.749   4.710  18.964  0.00  0.00    +0.000 F 
ATOM     29  F   UNL     1       8.429   6.858  18.852  0.00  0.00    +0.000 F 
ATOM     30  F   UNL     1       7.211   5.641  20.183  0.00  0.00    +0.000 F 
ENDBRANCH  25  27
ENDBRANCH  20  21
ENDBRANCH  11  20
TORSDOF 7
ENDMDL
MODEL 3
REMARK VINA RESULT:      -7.6      3.506      8.626
REMARK  Name = 
REMARK  8 active torsions:
REMARK  status: ('A' for Active; 'I' for Inactive)
REMARK    1  A    between atoms: C_1  and  N_2
REMARK    2  A    between atoms: C_7  and  N_8
REMARK    3  A    between atoms: C_9  and  O_11
REMARK    4  A    between atoms: O_11  and  C_12
REMARK    5  A    between atoms: C_12  and  C_13
REMARK    6  A    between atoms: N_18  and  C_19
REMARK    7  A    between atoms: C_19  and  C_20
REMARK    8  A    between atoms: C_24  and  C_25
REMARK                            x       y       z     vdW  Elec       q    Type
REMARK                         _______ _______ _______ _____ _____    ______ ____
ROOT
ATOM      1  C   UNL     1       6.884   4.865  15.890  0.00  0.00    +0.000 C 
ATOM      2  N   UNL     1       5.760   5.468  16.566  0.00  0.00    +0.000 N 
ATOM      3  C   UNL     1       5.041   6.558  16.106  0.00  0.00    +0.000 A 
ATOM      4  O   UNL     1       5.112   7.130  15.031  0.00  0.00    +0.000 OA
ATOM      5  C   UNL     1       4.135   6.911  17.197  0.00  0.00    +0.000 A 
ATOM      6  C   UNL     1       3.130   7.865  17.226  0.00  0.00    +0.000 A 
ATOM      7  C   UNL     1       2.339   7.951  18.372  0.00  0.00    +0.000 A 
ATOM      8  C   UNL     1       2.621   7.096  19.455  0.00  0.00    +0.000 A 
ATOM      9  C   UNL     1       3.681   6.161  19.403  0.00  0.00    +0.000 A 
ATOM     10  C   UNL     1       4.438   6.049  18.252  0.00  0.00    +0.000 A 
ATOM     11  N   UNL     1       5.538   5.239  17.956  0.00  0.00    +0.000 N 
ENDROOT
BRANCH   7  12
ATOM     12  N   UNL     1       1.263   8.870  18.496  0.00  0.00    +0.000 N 
ATOM     13  C   UNL     1       1.350  10.227  18.333  0.00  0.00    +0.000 C 
ATOM     14  O   UNL     1       2.364  10.859  18.037  0.00  0.00    +0.000 OA
ATOM     15  H   UNL     1       0.360   8.542  18.809  0.00  0.00    +0.000 HD
BRANCH  13  16
ATOM     16  O   UNL     1       0.182  10.843  18.646  0.00  0.00    +0.000 OA
BRANCH  16  17
ATOM     17  C   UNL     1       0.213  11.471  19.947  0.00  0.00    +0.000 C 
BRANCH  17  18
ATOM     18  C   UNL     1      -0.623  10.785  21.025  0.00  0.00    +0.000 C 
ATOM     19  F   UNL     1      -0.029   9.614  21.382  0.00  0.00    +0.000 F 
ENDBRANCH  17  18
ENDBRANCH  16  17
ENDBRANCH  13  16
ENDBRANCH   7  12
BRANCH  11  20
ATOM     20  C   UNL     1       5.735   3.896  18.504  0.00  0.00    +0.000 C 
BRANCH  20  21
ATOM     21  C   UNL     1       4.414   3.160  18.708  0.00  0.00    +0.000 A 
ATOM     22  C   UNL     1       3.698   2.687  17.593  0.00  0.00    +0.000 A 
ATOM     23  C   UNL     1       2.384   2.229  17.726  0.00  0.00    +0.000 A 
ATOM     24  C   UNL     1       1.768   2.230  18.973  0.00  0.00    +0.000 A 
ATOM     25  C   UNL     1       2.471   2.644  20.113  0.00  0.00    +0.000 A 
ATOM     26  C   UNL     1       3.799   3.089  19.971  0.00  0.00    +0.000 A 
BRANCH  25  27
ATOM     27  C   UNL     1       1.792   2.683  21.461  0.00  0.00    +0.000 C 
ATOM     28  F   UNL     1       1.979   1.548  22.194  0.00  0.00    +0.000 F 
ATOM     29  F   UNL     1       2.220   3.709  22.246  0.00  0.00    +0.000 F 
ATOM     30  F   UNL     1       0.441   2.830  21.352  0.00  0.00    +0.000 F 
ENDBRANCH  25  27
ENDBRANCH  20  21
ENDBRANCH  11  20
TORSDOF 7
ENDMDL
MODEL 4
REMARK VINA RESULT:      -7.5      3.749      9.204
REMARK  Name = 
REMARK  8 active torsions:
REMARK  status: ('A' for Active; 'I' for Inactive)
REMARK    1  A    between atoms: C_1  and  N_2
REMARK    2  A    between atoms: C_7  and  N_8
REMARK    3  A    between atoms: C_9  and  O_11
REMARK    4  A    between atoms: O_11  and  C_12
REMARK    5  A    between atoms: C_12  and  C_13
REMARK    6  A    between atoms: N_18  and  C_19
REMARK    7  A    between atoms: C_19  and  C_20
REMARK    8  A    between atoms: C_24  and  C_25
REMARK                            x       y       z     vdW  Elec       q    Type
REMARK                         _______ _______ _______ _____ _____    ______ ____
ROOT
ATOM      1  C   UNL     1       3.199   2.350  17.604  0.00  0.00    +0.000 C 
ATOM      2  N   UNL     1       3.016   3.629  18.250  0.00  0.00    +0.000 N 
ATOM      3  C   UNL     1       2.331   3.834  19.436  0.00  0.00    +0.000 A 
ATOM      4  O   UNL     1       1.874   3.015  20.214  0.00  0.00    +0.000 OA
ATOM      5  C   UNL     1       2.257   5.286  19.592  0.00  0.00    +0.000 A 
ATOM      6  C   UNL     1       1.764   6.028  20.653  0.00  0.00    +0.000 A 
ATOM      7  C   UNL     1       1.887   7.417  20.597  0.00  0.00    +0.000 A 
ATOM      8  C   UNL     1       2.469   7.999  19.454  0.00  0.00    +0.000 A 
ATOM      9  C   UNL     1       2.926   7.210  18.373  0.00  0.00    +0.000 A 
ATOM     10  C   UNL     1       2.840   5.832  18.447  0.00  0.00    +0.000 A 
ATOM     11  N   UNL     1       3.188   4.843  17.523  0.00  0.00    +0.000 N 
ENDROOT
BRANCH   7  12
ATOM     12  N   UNL     1       1.445   8.270  21.643  0.00  0.00    +0.000 N 
ATOM     13  C   UNL     1       0.515   9.267  21.519  0.00  0.00    +0.000 C 
ATOM     14  O   UNL     1      -0.095   9.568  20.492  0.00  0.00    +0.000 OA
ATOM     15  H   UNL     1       1.889   8.221  22.549  0.00  0.00    +0.000 HD
BRANCH  13  16
ATOM     16  O   UNL     1       0.404   9.991  22.662  0.00  0.00    +0.000 OA
BRANCH  16  17
ATOM     17  C   UNL     1      -0.970  10.224  23.044  0.00  0.00    +0.000 C 
BRANCH  17  18
ATOM     18  C   UNL     1      -1.415  11.684  23.029  0.00  0.00    +0.000 C 
ATOM     19  F   UNL     1      -2.774  11.744  23.070  0.00  0.00    +0.000 F 
ENDBRANCH  17  18
ENDBRANCH  16  17
ENDBRANCH  13  16
ENDBRANCH   7  12
BRANCH  11  20
ATOM     20  C   UNL     1       4.299   4.963  16.577  0.00  0.00    +0.000 C 
BRANCH  20  21
ATOM     21  C   UNL     1       5.617   5.282  17.276  0.00  0.00    +0.000 A 
ATOM     22  C   UNL     1       6.114   4.410  18.261  0.00  0.00    +0.000 A 
ATOM     23  C   UNL     1       7.180   4.789  19.083  0.00  0.00    +0.000 A 
ATOM     24  C   UNL     1       7.770   6.039  18.929  0.00  0.00    +0.000 A 
ATOM     25  C   UNL     1       7.333   6.911  17.922  0.00  0.00    +0.000 A 
ATOM     26  C   UNL     1       6.269   6.514  17.090  0.00  0.00    +0.000 A 
BRANCH  25  27
ATOM     27  C   UNL     1       7.945   8.284  17.779  0.00  0.00    +0.000 C 
ATOM     28  F   UNL     1       7.019   9.277  17.647  0.00  0.00    +0.000 F 
ATOM     29  F   UNL     1       8.721   8.637  18.839  0.00  0.00    +0.000 F 
ATOM     30  F   UNL     1       8.742   8.379  16.678  0.00  0.00    +0.000 F 
ENDBRANCH  25  27
ENDBRANCH  20  21
ENDBRANCH  11  20
TORSDOF 7
ENDMDL
MODEL 5
REMARK VINA RESULT:      -7.5      0.834      1.189
REMARK  Name = 
REMARK  8 active torsions:
REMARK  status: ('A' for Active; 'I' for Inactive)
REMARK    1  A    between atoms: C_1  and  N_2
REMARK    2  A    between atoms: C_7  and  N_8
REMARK    3  A    between atoms: C_9  and  O_11
REMARK    4  A    between atoms: O_11  and  C_12
REMARK    5  A    between atoms: C_12  and  C_13
REMARK    6  A    between atoms: N_18  and  C_19
REMARK    7  A    between atoms: C_19  and  C_20
REMARK    8  A    between atoms: C_24  and  C_25
REMARK                            x       y       z     vdW  Elec       q    Type
REMARK                         _______ _______ _______ _____ _____    ______ ____
ROOT
ATOM      1  C   UNL     1      -0.287  11.643  21.680  0.00  0.00    +0.000 C 
ATOM      2  N   UNL     1       0.267  10.524  20.954  0.00  0.00    +0.000 N 
ATOM      3  C   UNL     1       0.674   9.327  21.519  0.00  0.00    +0.000 A 
ATOM      4  O   UNL     1       0.539   8.930  22.664  0.00  0.00    +0.000 OA
ATOM      5  C   UNL     1       1.321   8.589  20.435  0.00  0.00    +0.000 A 
ATOM      6  C   UNL     1       1.818   7.296  20.433  0.00  0.00    +0.000 A 
ATOM      7  C   UNL     1       2.317   6.786  19.233  0.00  0.00    +0.000 A 
ATOM      8  C   UNL     1       2.327   7.618  18.097  0.00  0.00    +0.000 A 
ATOM      9  C   UNL     1       1.846   8.948  18.148  0.00  0.00    +0.000 A 
ATOM     10  C   UNL     1       1.315   9.437  19.327  0.00  0.00    +0.000 A 
ATOM     11  N   UNL     1       0.806  10.700  19.646  0.00  0.00    +0.000 N 
ENDROOT
BRANCH   7  12
ATOM     12  N   UNL     1       2.822   5.464  19.110  0.00  0.00    +0.000 N 
ATOM     13  C   UNL     1       4.140   5.103  19.190  0.00  0.00    +0.000 C 
ATOM     14  O   UNL     1       5.089   5.859  19.399  0.00  0.00    +0.000 OA
ATOM     15  H   UNL     1       2.194   4.712  18.862  0.00  0.00    +0.000 HD
BRANCH  13  16
ATOM     16  O   UNL     1       4.315   3.789  18.900  0.00  0.00    +0.000 OA
BRANCH  16  17
ATOM     17  C   UNL     1       3.861   3.444  17.573  0.00  0.00    +0.000 C 
BRANCH  17  18
ATOM     18  C   UNL     1       4.685   4.026  16.427  0.00  0.00    +0.000 C 
ATOM     19  F   UNL     1       6.010   3.887  16.707  0.00  0.00    +0.000 F 
ENDBRANCH  17  18
ENDBRANCH  16  17
ENDBRANCH  13  16
ENDBRANCH   7  12
BRANCH  11  20
ATOM     20  C   UNL     1       0.111  11.566  18.692  0.00  0.00    +0.000 C 
BRANCH  20  21
ATOM     21  C   UNL     1      -1.283  11.044  18.353  0.00  0.00    +0.000 A 
ATOM     22  C   UNL     1      -1.434  10.030  17.390  0.00  0.00    +0.000 A 
ATOM     23  C   UNL     1      -2.696   9.703  16.885  0.00  0.00    +0.000 A 
ATOM     24  C   UNL     1      -3.825  10.377  17.339  0.00  0.00    +0.000 A 
ATOM     25  C   UNL     1      -3.716  11.356  18.337  0.00  0.00    +0.000 A 
ATOM     26  C   UNL     1      -2.442  11.667  18.849  0.00  0.00    +0.000 A 
BRANCH  25  27
ATOM     27  C   UNL     1      -4.934  12.116  18.802  0.00  0.00    +0.000 C 
ATOM     28  F   UNL     1      -5.603  12.737  17.789  0.00  0.00    +0.000 F 
ATOM     29  F   UNL     1      -5.850  11.328  19.426  0.00  0.00    +0.000 F 
ATOM     30  F   UNL     1      -4.616  13.101  19.689  0.00  0.00    +0.000 F 
ENDBRANCH  25  27
ENDBRANCH  20  21
ENDBRANCH  11  20
TORSDOF 7
ENDMDL
MODEL 6
REMARK VINA RESULT:      -7.5      4.326      6.358
REMARK  Name = 
REMARK  8 active torsions:
REMARK  status: ('A' for Active; 'I' for Inactive)
REMARK    1  A    between atoms: C_1  and  N_2
REMARK    2  A    between atoms: C_7  and  N_8
REMARK    3  A    between atoms: C_9  and  O_11
REMARK    4  A    between atoms: O_11  and  C_12
REMARK    5  A    between atoms: C_12  and  C_13
REMARK    6  A    between atoms: N_18  and  C_19
REMARK    7  A    between atoms: C_19  and  C_20
REMARK    8  A    between atoms: C_24  and  C_25
REMARK                            x       y       z     vdW  Elec       q    Type
REMARK                         _______ _______ _______ _____ _____    ______ ____
ROOT
ATOM      1  C   UNL     1       0.799   2.993  19.675  0.00  0.00    +0.000 C 
ATOM      2  N   UNL     1       2.041   3.496  19.138  0.00  0.00    +0.000 N 
ATOM      3  C   UNL     1       2.606   3.111  17.933  0.00  0.00    +0.000 A 
ATOM      4  O   UNL     1       2.140   2.405  17.055  0.00  0.00    +0.000 OA
ATOM      5  C   UNL     1       3.924   3.742  17.906  0.00  0.00    +0.000 A 
ATOM      6  C   UNL     1       4.862   3.764  16.886  0.00  0.00    +0.000 A 
ATOM      7  C   UNL     1       6.022   4.516  17.077  0.00  0.00    +0.000 A 
ATOM      8  C   UNL     1       6.202   5.183  18.305  0.00  0.00    +0.000 A 
ATOM      9  C   UNL     1       5.238   5.105  19.338  0.00  0.00    +0.000 A 
ATOM     10  C   UNL     1       4.072   4.393  19.132  0.00  0.00    +0.000 A 
ATOM     11  N   UNL     1       2.991   4.142  19.983  0.00  0.00    +0.000 N 
ENDROOT
BRANCH   7  12
ATOM     12  N   UNL     1       7.034   4.633  16.087  0.00  0.00    +0.000 N 
ATOM     13  C   UNL     1       6.947   5.379  14.943  0.00  0.00    +0.000 C 
ATOM     14  O   UNL     1       5.992   6.077  14.601  0.00  0.00    +0.000 OA
ATOM     15  H   UNL     1       7.870   4.070  16.160  0.00  0.00    +0.000 HD
BRANCH  13  16
ATOM     16  O   UNL     1       8.021   5.182  14.136  0.00  0.00    +0.000 OA
BRANCH  16  17
ATOM     17  C   UNL     1       7.652   4.979  12.754  0.00  0.00    +0.000 C 
BRANCH  17  18
ATOM     18  C   UNL     1       6.822   3.730  12.474  0.00  0.00    +0.000 C 
ATOM     19  F   UNL     1       7.336   3.077  11.396  0.00  0.00    +0.000 F 
ENDBRANCH  17  18
ENDBRANCH  16  17
ENDBRANCH  13  16
ENDBRANCH   7  12
BRANCH  11  20
ATOM     20  C   UNL     1       2.523   5.076  21.007  0.00  0.00    +0.000 C 
BRANCH  20  21
ATOM     21  C   UNL     1       1.978   6.367  20.401  0.00  0.00    +0.000 A 
ATOM     22  C   UNL     1       2.467   6.818  19.162  0.00  0.00    +0.000 A 
ATOM     23  C   UNL     1       2.170   8.104  18.700  0.00  0.00    +0.000 A 
ATOM     24  C   UNL     1       1.377   8.954  19.462  0.00  0.00    +0.000 A 
ATOM     25  C   UNL     1       0.830   8.517  20.677  0.00  0.00    +0.000 A 
ATOM     26  C   UNL     1       1.122   7.215  21.127  0.00  0.00    +0.000 A 
BRANCH  25  27
ATOM     27  C   UNL     1       0.002   9.451  21.526  0.00  0.00    +0.000 C 
ATOM     28  F   UNL     1      -0.817  10.262  20.797  0.00  0.00    +0.000 F 
ATOM     29  F   UNL     1      -0.806   8.800  22.405  0.00  0.00    +0.000 F 
ATOM     30  F   UNL     1       0.775  10.289  22.273  0.00  0.00    +0.000 F 
ENDBRANCH  25  27
ENDBRANCH  20  21
ENDBRANCH  11  20
TORSDOF 7
ENDMDL
MODEL 7
REMARK VINA RESULT:      -7.4      3.726      9.342
REMARK  Name = 
REMARK  8 active torsions:
REMARK  status: ('A' for Active; 'I' for Inactive)
REMARK    1  A    between atoms: C_1  and  N_2
REMARK    2  A    between atoms: C_7  and  N_8
REMARK    3  A    between atoms: C_9  and  O_11
REMARK    4  A    between atoms: O_11  and  C_12
REMARK    5  A    between atoms: C_12  and  C_13
REMARK    6  A    between atoms: N_18  and  C_19
REMARK    7  A    between atoms: C_19  and  C_20
REMARK    8  A    between atoms: C_24  and  C_25
REMARK                            x       y       z     vdW  Elec       q    Type
REMARK                         _______ _______ _______ _____ _____    ______ ____
ROOT
ATOM      1  C   UNL     1       3.104   1.551  19.490  0.00  0.00    +0.000 C 
ATOM      2  N   UNL     1       2.931   2.983  19.561  0.00  0.00    +0.000 N 
ATOM      3  C   UNL     1       2.529   3.685  20.684  0.00  0.00    +0.000 A 
ATOM      4  O   UNL     1       2.370   3.288  21.826  0.00  0.00    +0.000 OA
ATOM      5  C   UNL     1       2.325   5.059  20.228  0.00  0.00    +0.000 A 
ATOM      6  C   UNL     1       2.016   6.190  20.967  0.00  0.00    +0.000 A 
ATOM      7  C   UNL     1       1.958   7.415  20.302  0.00  0.00    +0.000 A 
ATOM      8  C   UNL     1       2.178   7.440  18.911  0.00  0.00    +0.000 A 
ATOM      9  C   UNL     1       2.454   6.258  18.183  0.00  0.00    +0.000 A 
ATOM     10  C   UNL     1       2.551   5.052  18.851  0.00  0.00    +0.000 A 
ATOM     11  N   UNL     1       2.782   3.758  18.373  0.00  0.00    +0.000 N 
ENDROOT
BRANCH   7  12
ATOM     12  N   UNL     1       1.681   8.639  20.967  0.00  0.00    +0.000 N 
ATOM     13  C   UNL     1       0.480   8.989  21.524  0.00  0.00    +0.000 C 
ATOM     14  O   UNL     1      -0.537   8.296  21.553  0.00  0.00    +0.000 OA
ATOM     15  H   UNL     1       2.379   9.369  20.978  0.00  0.00    +0.000 HD
BRANCH  13  16
ATOM     16  O   UNL     1       0.491  10.272  21.967  0.00  0.00    +0.000 OA
BRANCH  16  17
ATOM     17  C   UNL     1      -0.837  10.807  22.161  0.00  0.00    +0.000 C 
BRANCH  17  18
ATOM     18  C   UNL     1      -0.900  12.161  22.863  0.00  0.00    +0.000 C 
ATOM     19  F   UNL     1       0.005  13.007  22.299  0.00  0.00    +0.000 F 
ENDBRANCH  17  18
ENDBRANCH  16  17
ENDBRANCH  13  16
ENDBRANCH   7  12
BRANCH  11  20
ATOM     20  C   UNL     1       3.613   3.454  17.207  0.00  0.00    +0.000 C 
BRANCH  20  21
ATOM     21  C   UNL     1       4.745   4.463  17.030  0.00  0.00    +0.000 A 
ATOM     22  C   UNL     1       5.043   4.961  15.749  0.00  0.00    +0.000 A 
ATOM     23  C   UNL     1       6.213   5.690  15.517  0.00  0.00    +0.000 A 
ATOM     24  C   UNL     1       7.098   5.939  16.560  0.00  0.00    +0.000 A 
ATOM     25  C   UNL     1       6.806   5.503  17.860  0.00  0.00    +0.000 A 
ATOM     26  C   UNL     1       5.617   4.782  18.086  0.00  0.00    +0.000 A 
BRANCH  25  27
ATOM     27  C   UNL     1       7.784   5.737  18.986  0.00  0.00    +0.000 C 
ATOM     28  F   UNL     1       8.781   4.807  19.039  0.00  0.00    +0.000 F 
ATOM     29  F   UNL     1       8.405   6.945  18.913  0.00  0.00    +0.000 F 
ATOM     30  F   UNL     1       7.180   5.696  20.207  0.00  0.00    +0.000 F 
ENDBRANCH  25  27
ENDBRANCH  20  21
ENDBRANCH  11  20
TORSDOF 7
ENDMDL
MODEL 8
REMARK VINA RESULT:      -7.4      3.344      9.219
REMARK  Name = 
REMARK  8 active torsions:
REMARK  status: ('A' for Active; 'I' for Inactive)
REMARK    1  A    between atoms: C_1  and  N_2
REMARK    2  A    between atoms: C_7  and  N_8
REMARK    3  A    between atoms: C_9  and  O_11
REMARK    4  A    between atoms: O_11  and  C_12
REMARK    5  A    between atoms: C_12  and  C_13
REMARK    6  A    between atoms: N_18  and  C_19
REMARK    7  A    between atoms: C_19  and  C_20
REMARK    8  A    between atoms: C_24  and  C_25
REMARK                            x       y       z     vdW  Elec       q    Type
REMARK                         _______ _______ _______ _____ _____    ______ ____
ROOT
ATOM      1  C   UNL     1       2.980   1.972  19.662  0.00  0.00    +0.000 C 
ATOM      2  N   UNL     1       2.807   3.401  19.553  0.00  0.00    +0.000 N 
ATOM      3  C   UNL     1       2.402   4.237  20.580  0.00  0.00    +0.000 A 
ATOM      4  O   UNL     1       2.241   3.985  21.761  0.00  0.00    +0.000 OA
ATOM      5  C   UNL     1       2.198   5.543  19.955  0.00  0.00    +0.000 A 
ATOM      6  C   UNL     1       1.887   6.757  20.547  0.00  0.00    +0.000 A 
ATOM      7  C   UNL     1       1.829   7.889  19.733  0.00  0.00    +0.000 A 
ATOM      8  C   UNL     1       2.051   7.741  18.351  0.00  0.00    +0.000 A 
ATOM      9  C   UNL     1       2.329   6.478  17.777  0.00  0.00    +0.000 A 
ATOM     10  C   UNL     1       2.425   5.364  18.590  0.00  0.00    +0.000 A 
ATOM     11  N   UNL     1       2.659   4.021  18.277  0.00  0.00    +0.000 N 
ENDROOT
BRANCH   7  12
ATOM     12  N   UNL     1       1.549   9.186  20.240  0.00  0.00    +0.000 N 
ATOM     13  C   UNL     1       0.460   9.530  20.994  0.00  0.00    +0.000 C 
ATOM     14  O   UNL     1      -0.435   8.771  21.366  0.00  0.00    +0.000 OA
ATOM     15  H   UNL     1       2.139   9.963  19.975  0.00  0.00    +0.000 HD
BRANCH  13  16
ATOM     16  O   UNL     1       0.406  10.869  21.212  0.00  0.00    +0.000 OA
BRANCH  16  17
ATOM     17  C   UNL     1       0.986  11.634  20.133  0.00  0.00    +0.000 C 
BRANCH  17  18
ATOM     18  C   UNL     1       0.023  12.561  19.396  0.00  0.00    +0.000 C 
ATOM     19  F   UNL     1       0.733  13.441  18.638  0.00  0.00    +0.000 F 
ENDBRANCH  17  18
ENDBRANCH  16  17
ENDBRANCH  13  16
ENDBRANCH   7  12
BRANCH  11  20
ATOM     20  C   UNL     1       3.492   3.575  17.160  0.00  0.00    +0.000 C 
BRANCH  20  21
ATOM     21  C   UNL     1       4.704   4.479  16.950  0.00  0.00    +0.000 A 
ATOM     22  C   UNL     1       5.083   4.849  15.647  0.00  0.00    +0.000 A 
ATOM     23  C   UNL     1       6.313   5.467  15.406  0.00  0.00    +0.000 A 
ATOM     24  C   UNL     1       7.179   5.732  16.462  0.00  0.00    +0.000 A 
ATOM     25  C   UNL     1       6.810   5.424  17.779  0.00  0.00    +0.000 A 
ATOM     26  C   UNL     1       5.562   4.815  18.012  0.00  0.00    +0.000 A 
BRANCH  25  27
ATOM     27  C   UNL     1       7.765   5.673  18.921  0.00  0.00    +0.000 C 
ATOM     28  F   UNL     1       8.398   6.878  18.844  0.00  0.00    +0.000 F 
ATOM     29  F   UNL     1       7.159   5.648  20.139  0.00  0.00    +0.000 F 
ATOM     30  F   UNL     1       8.758   4.741  18.974  0.00  0.00    +0.000 F 
ENDBRANCH  25  27
ENDBRANCH  20  21
ENDBRANCH  11  20
TORSDOF 7
ENDMDL
MODEL 9
REMARK VINA RESULT:      -7.4      1.127      1.291
REMARK  Name = 
REMARK  8 active torsions:
REMARK  status: ('A' for Active; 'I' for Inactive)
REMARK    1  A    between atoms: C_1  and  N_2
REMARK    2  A    between atoms: C_7  and  N_8
REMARK    3  A    between atoms: C_9  and  O_11
REMARK    4  A    between atoms: O_11  and  C_12
REMARK    5  A    between atoms: C_12  and  C_13
REMARK    6  A    between atoms: N_18  and  C_19
REMARK    7  A    between atoms: C_19  and  C_20
REMARK    8  A    between atoms: C_24  and  C_25
REMARK                            x       y       z     vdW  Elec       q    Type
REMARK                         _______ _______ _______ _____ _____    ______ ____
ROOT
ATOM      1  C   UNL     1      -0.281  11.362  21.709  0.00  0.00    +0.000 C 
ATOM      2  N   UNL     1       0.315  10.386  20.829  0.00  0.00    +0.000 N 
ATOM      3  C   UNL     1       0.820   9.157  21.222  0.00  0.00    +0.000 A 
ATOM      4  O   UNL     1       0.756   8.610  22.309  0.00  0.00    +0.000 OA
ATOM      5  C   UNL     1       1.471   8.610  20.033  0.00  0.00    +0.000 A 
ATOM      6  C   UNL     1       2.050   7.364  19.848  0.00  0.00    +0.000 A 
ATOM      7  C   UNL     1       2.535   7.047  18.579  0.00  0.00    +0.000 A 
ATOM      8  C   UNL     1       2.448   8.015  17.560  0.00  0.00    +0.000 A 
ATOM      9  C   UNL     1       1.884   9.291  17.797  0.00  0.00    +0.000 A 
ATOM     10  C   UNL     1       1.368   9.589  19.044  0.00  0.00    +0.000 A 
ATOM     11  N   UNL     1       0.792  10.763  19.538  0.00  0.00    +0.000 N 
ENDROOT
BRANCH   7  12
ATOM     12  N   UNL     1       3.118   5.789  18.271  0.00  0.00    +0.000 N 
ATOM     13  C   UNL     1       2.447   4.691  17.805  0.00  0.00    +0.000 C 
ATOM     14  O   UNL     1       1.242   4.625  17.562  0.00  0.00    +0.000 OA
ATOM     15  H   UNL     1       4.095   5.629  18.477  0.00  0.00    +0.000 HD
BRANCH  13  16
ATOM     16  O   UNL     1       3.257   3.604  17.734  0.00  0.00    +0.000 OA
BRANCH  16  17
ATOM     17  C   UNL     1       2.666   2.427  18.329  0.00  0.00    +0.000 C 
BRANCH  17  18
ATOM     18  C   UNL     1       2.593   2.431  19.853  0.00  0.00    +0.000 C 
ATOM     19  F   UNL     1       1.298   2.274  20.244  0.00  0.00    +0.000 F 
ENDBRANCH  17  18
ENDBRANCH  16  17
ENDBRANCH  13  16
ENDBRANCH   7  12
BRANCH  11  20
ATOM     20  C   UNL     1       0.006  11.693  18.725  0.00  0.00    +0.000 C 
BRANCH  20  21
ATOM     21  C   UNL     1      -1.395  11.160  18.436  0.00  0.00    +0.000 A 
ATOM     22  C   UNL     1      -1.582  10.196  17.429  0.00  0.00    +0.000 A 
ATOM     23  C   UNL     1      -2.864   9.869  16.978  0.00  0.00    +0.000 A 
ATOM     24  C   UNL     1      -3.978  10.494  17.530  0.00  0.00    +0.000 A 
ATOM     25  C   UNL     1      -3.831  11.420  18.571  0.00  0.00    +0.000 A 
ATOM     26  C   UNL     1      -2.536  11.731  19.029  0.00  0.00    +0.000 A 
BRANCH  25  27
ATOM     27  C   UNL     1      -5.034  12.129  19.144  0.00  0.00    +0.000 C 
ATOM     28  F   UNL     1      -5.359  11.712  20.402  0.00  0.00    +0.000 F 
ATOM     29  F   UNL     1      -4.871  13.477  19.229  0.00  0.00    +0.000 F 
ATOM     30  F   UNL     1      -6.153  11.930  18.392  0.00  0.00    +0.000 F 
ENDBRANCH  25  27
ENDBRANCH  20  21
ENDBRANCH  11  20
TORSDOF 7
ENDMDL
