MODEL 1
REMARK VINA RESULT:      -8.4      0.000      0.000
REMARK  Name = 
REMARK  8 active torsions:
REMARK  status: ('A' for Active; 'I' for Inactive)
REMARK    1  A    between atoms: C_2  and  O_3
REMARK    2  A    between atoms: C_2  and  C_4
REMARK    3  A    between atoms: C_4  and  C_5
REMARK    4  A    between atoms: C_8  and  C_9
REMARK    5  A    between atoms: C_12  and  C_13
REMARK    6  A    between atoms: C_19  and  C_20
REMARK    7  A    between atoms: C_20  and  C_21
REMARK    8  A    between atoms: C_21  and  C_22
REMARK                            x       y       z     vdW  Elec       q    Type
REMARK                         _______ _______ _______ _____ _____    ______ ____
ROOT
ATOM      1  C   UNL     1      -0.818  11.401  20.650  0.00  0.00    +0.000 A 
ATOM      2  C   UNL     1      -0.026  10.496  21.369  0.00  0.00    +0.000 A 
ATOM      3  C   UNL     1       0.837   9.621  20.701  0.00  0.00    +0.000 A 
ATOM      4  C   UNL     1       0.928   9.639  19.303  0.00  0.00    +0.000 A 
ATOM      5  C   UNL     1       0.136  10.527  18.573  0.00  0.00    +0.000 A 
ATOM      6  C   UNL     1      -0.726  11.401  19.247  0.00  0.00    +0.000 A 
ENDROOT
BRANCH   4   7
ATOM      7  C   UNL     1       1.824   8.649  18.648  0.00  0.00    +0.000 C 
ATOM      8  O   UNL     1       2.093   8.836  17.462  0.00  0.00    +0.000 OA
ATOM      9  N   UNL     1       2.216   7.575  19.418  0.00  0.00    +0.000 N 
ATOM     10  C   UNL     1       3.017   6.543  18.972  0.00  0.00    +0.000 A 
ATOM     11  N   UNL     1       3.109   5.377  19.580  0.00  0.00    +0.000 NA
ATOM     12  N   UNL     1       3.947   4.507  18.904  0.00  0.00    +0.000 NA
ATOM     13  C   UNL     1       4.513   5.080  17.860  0.00  0.00    +0.000 A 
ATOM     14  S   UNL     1       4.050   6.709  17.624  0.00  0.00    +0.000 S 
ATOM     15  H   UNL     1       1.752   7.383  20.296  0.00  0.00    +0.000 HD
BRANCH  13  16
ATOM     16  C   UNL     1       5.479   4.416  16.933  0.00  0.00    +0.000 C 
BRANCH  16  17
ATOM     17  C   UNL     1       4.989   4.383  15.482  0.00  0.00    +0.000 C 
BRANCH  17  18
ATOM     18  C   UNL     1       6.069   3.997  14.467  0.00  0.00    +0.000 C 
ATOM     19  C   UNL     1       5.523   3.646  13.085  0.00  0.00    +0.000 C 
ATOM     20  C   UNL     1       6.743   3.734  12.182  0.00  0.00    +0.000 C 
ATOM     21  C   UNL     1       7.660   4.777  12.820  0.00  0.00    +0.000 C 
ATOM     22  C   UNL     1       7.026   5.147  14.159  0.00  0.00    +0.000 C 
ENDBRANCH  17  18
ENDBRANCH  16  17
ENDBRANCH  13  16
ENDBRANCH   4   7
BRANCH   1  26
ATOM     23  C   UNL     1      -4.421  12.741  22.741  0.00  0.00    +0.000 C 
ATOM     24  C   UNL     1      -4.127  13.365  21.365  0.00  0.00    +0.000 C 
ATOM     25  C   UNL     1      -3.076  12.570  20.583  0.00  0.00    +0.000 C 
ATOM     26  C   UNL     1      -1.785  12.322  21.386  0.00  0.00    +0.000 C 
ATOM     27  C   UNL     1      -2.095  11.768  22.787  0.00  0.00    +0.000 C 
ATOM     28  C   UNL     1      -3.110  12.628  23.535  0.00  0.00    +0.000 C 
BRANCH  23  29
ATOM     29  C   UNL     1      -5.452  13.551  23.544  0.00  0.00    +0.000 C 
BRANCH  29  31
ATOM     30  O   UNL     1      -7.041  11.730  23.306  0.00  0.00    +0.000 OA
ATOM     31  C   UNL     1      -6.718  12.776  23.842  0.00  0.00    +0.000 C 
BRANCH  31  32
ATOM     32  O   UNL     1      -7.462  13.346  24.819  0.00  0.00    +0.000 OA
ATOM     33  H   UNL     1      -8.409  13.440  24.596  0.00  0.00    +0.000 HD
ENDBRANCH  31  32
ENDBRANCH  29  31
ENDBRANCH  23  29
ENDBRANCH   1  26
TORSDOF 8
ENDMDL
MODEL 2
REMARK VINA RESULT:      -8.2      3.576     12.728
REMARK  Name = 
REMARK  8 active torsions:
REMARK  status: ('A' for Active; 'I' for Inactive)
REMARK    1  A    between atoms: C_2  and  O_3
REMARK    2  A    between atoms: C_2  and  C_4
REMARK    3  A    between atoms: C_4  and  C_5
REMARK    4  A    between atoms: C_8  and  C_9
REMARK    5  A    between atoms: C_12  and  C_13
REMARK    6  A    between atoms: C_19  and  C_20
REMARK    7  A    between atoms: C_20  and  C_21
REMARK    8  A    between atoms: C_21  and  C_22
REMARK                            x       y       z     vdW  Elec       q    Type
REMARK                         _______ _______ _______ _____ _____    ______ ____
ROOT
ATOM      1  C   UNL     1       2.795   7.441  18.563  0.00  0.00    +0.000 A 
ATOM      2  C   UNL     1       2.230   7.361  19.842  0.00  0.00    +0.000 A 
ATOM      3  C   UNL     1       1.305   8.318  20.271  0.00  0.00    +0.000 A 
ATOM      4  C   UNL     1       0.922   9.368  19.427  0.00  0.00    +0.000 A 
ATOM      5  C   UNL     1       1.486   9.468  18.154  0.00  0.00    +0.000 A 
ATOM      6  C   UNL     1       2.411   8.507  17.729  0.00  0.00    +0.000 A 
ENDROOT
BRANCH   4   7
ATOM      7  C   UNL     1      -0.026  10.384  19.959  0.00  0.00    +0.000 C 
ATOM      8  O   UNL     1      -1.176  10.359  19.522  0.00  0.00    +0.000 OA
ATOM      9  N   UNL     1       0.494  11.301  20.845  0.00  0.00    +0.000 N 
ATOM     10  C   UNL     1      -0.223  12.332  21.416  0.00  0.00    +0.000 A 
ATOM     11  N   UNL     1       0.335  13.385  21.979  0.00  0.00    +0.000 NA
ATOM     12  N   UNL     1      -0.608  14.289  22.435  0.00  0.00    +0.000 NA
ATOM     13  C   UNL     1      -1.838  13.843  22.268  0.00  0.00    +0.000 A 
ATOM     14  S   UNL     1      -1.926  12.303  21.532  0.00  0.00    +0.000 S 
ATOM     15  H   UNL     1       1.496  11.390  20.957  0.00  0.00    +0.000 HD
BRANCH  13  16
ATOM     16  C   UNL     1      -3.079  14.573  22.668  0.00  0.00    +0.000 C 
BRANCH  16  17
ATOM     17  C   UNL     1      -4.294  14.200  21.812  0.00  0.00    +0.000 C 
BRANCH  17  18
ATOM     18  C   UNL     1      -5.326  13.332  22.538  0.00  0.00    +0.000 C 
ATOM     19  C   UNL     1      -5.918  13.984  23.785  0.00  0.00    +0.000 C 
ATOM     20  C   UNL     1      -7.172  13.169  24.058  0.00  0.00    +0.000 C 
ATOM     21  C   UNL     1      -7.645  12.663  22.696  0.00  0.00    +0.000 C 
ATOM     22  C   UNL     1      -6.567  13.060  21.690  0.00  0.00    +0.000 C 
ENDBRANCH  17  18
ENDBRANCH  16  17
ENDBRANCH  13  16
ENDBRANCH   4   7
BRANCH   1  26
ATOM     23  C   UNL     1       5.083   4.788  15.941  0.00  0.00    +0.000 C 
ATOM     24  C   UNL     1       4.199   4.132  17.016  0.00  0.00    +0.000 C 
ATOM     25  C   UNL     1       3.185   5.115  17.611  0.00  0.00    +0.000 C 
ATOM     26  C   UNL     1       3.833   6.417  18.120  0.00  0.00    +0.000 C 
ATOM     27  C   UNL     1       4.773   7.025  17.064  0.00  0.00    +0.000 C 
ATOM     28  C   UNL     1       5.790   6.012  16.546  0.00  0.00    +0.000 C 
BRANCH  23  29
ATOM     29  C   UNL     1       6.123   3.815  15.362  0.00  0.00    +0.000 C 
BRANCH  29  31
ATOM     30  O   UNL     1       7.268   5.179  13.711  0.00  0.00    +0.000 OA
ATOM     31  C   UNL     1       6.592   4.199  13.975  0.00  0.00    +0.000 C 
BRANCH  31  32
ATOM     32  O   UNL     1       6.216   3.305  13.030  0.00  0.00    +0.000 OA
ATOM     33  H   UNL     1       6.681   3.408  12.176  0.00  0.00    +0.000 HD
ENDBRANCH  31  32
ENDBRANCH  29  31
ENDBRANCH  23  29
ENDBRANCH   1  26
TORSDOF 8
ENDMDL
MODEL 3
REMARK VINA RESULT:      -8.2      3.670     12.850
REMARK  Name = 
REMARK  8 active torsions:
REMARK  status: ('A' for Active; 'I' for Inactive)
REMARK    1  A    between atoms: C_2  and  O_3
REMARK    2  A    between atoms: C_2  and  C_4
REMARK    3  A    between atoms: C_4  and  C_5
REMARK    4  A    between atoms: C_8  and  C_9
REMARK    5  A    between atoms: C_12  and  C_13
REMARK    6  A    between atoms: C_19  and  C_20
REMARK    7  A    between atoms: C_20  and  C_21
REMARK    8  A    between atoms: C_21  and  C_22
REMARK                            x       y       z     vdW  Elec       q    Type
REMARK                         _______ _______ _______ _____ _____    ______ ____
ROOT
ATOM      1  C   UNL     1       2.812   7.273  18.589  0.00  0.00    +0.000 A 
ATOM      2  C   UNL     1       2.327   7.222  19.902  0.00  0.00    +0.000 A 
ATOM      3  C   UNL     1       1.407   8.172  20.356  0.00  0.00    +0.000 A 
ATOM      4  C   UNL     1       0.949   9.186  19.505  0.00  0.00    +0.000 A 
ATOM      5  C   UNL     1       1.433   9.256  18.198  0.00  0.00    +0.000 A 
ATOM      6  C   UNL     1       2.354   8.303  17.747  0.00  0.00    +0.000 A 
ENDROOT
BRANCH   4   7
ATOM      7  C   UNL     1       0.011  10.197  20.062  0.00  0.00    +0.000 C 
ATOM      8  O   UNL     1       0.193  10.549  21.226  0.00  0.00    +0.000 OA
ATOM      9  N   UNL     1      -1.019  10.594  19.237  0.00  0.00    +0.000 N 
ATOM     10  C   UNL     1      -2.002  11.496  19.591  0.00  0.00    +0.000 A 
ATOM     11  N   UNL     1      -3.147  11.615  18.951  0.00  0.00    +0.000 NA
ATOM     12  N   UNL     1      -3.971  12.562  19.535  0.00  0.00    +0.000 NA
ATOM     13  C   UNL     1      -3.380  13.172  20.543  0.00  0.00    +0.000 A 
ATOM     14  S   UNL     1      -1.792  12.623  20.856  0.00  0.00    +0.000 S 
ATOM     15  H   UNL     1      -1.226  10.074  18.395  0.00  0.00    +0.000 HD
BRANCH  13  16
ATOM     16  C   UNL     1      -3.994  14.253  21.373  0.00  0.00    +0.000 C 
BRANCH  16  17
ATOM     17  C   UNL     1      -5.364  14.701  20.854  0.00  0.00    +0.000 C 
BRANCH  17  18
ATOM     18  C   UNL     1      -6.535  14.301  21.756  0.00  0.00    +0.000 C 
ATOM     19  C   UNL     1      -6.833  12.804  21.757  0.00  0.00    +0.000 C 
ATOM     20  C   UNL     1      -7.687  12.607  22.999  0.00  0.00    +0.000 C 
ATOM     21  C   UNL     1      -7.246  13.688  23.985  0.00  0.00    +0.000 C 
ATOM     22  C   UNL     1      -6.264  14.583  23.233  0.00  0.00    +0.000 C 
ENDBRANCH  17  18
ENDBRANCH  16  17
ENDBRANCH  13  16
ENDBRANCH   4   7
BRANCH   1  26
ATOM     23  C   UNL     1       5.100   4.702  15.887  0.00  0.00    +0.000 C 
ATOM     24  C   UNL     1       4.203   4.013  16.930  0.00  0.00    +0.000 C 
ATOM     25  C   UNL     1       3.192   4.981  17.554  0.00  0.00    +0.000 C 
ATOM     26  C   UNL     1       3.846   6.258  18.116  0.00  0.00    +0.000 C 
ATOM     27  C   UNL     1       4.798   6.897  17.090  0.00  0.00    +0.000 C 
ATOM     28  C   UNL     1       5.812   5.896  16.543  0.00  0.00    +0.000 C 
BRANCH  23  29
ATOM     29  C   UNL     1       6.137   3.743  15.280  0.00  0.00    +0.000 C 
BRANCH  29  31
ATOM     30  O   UNL     1       7.256   5.179  13.672  0.00  0.00    +0.000 OA
ATOM     31  C   UNL     1       6.613   4.170  13.907  0.00  0.00    +0.000 C 
BRANCH  31  32
ATOM     32  O   UNL     1       6.286   3.280  12.940  0.00  0.00    +0.000 OA
ATOM     33  H   UNL     1       6.870   2.498  12.905  0.00  0.00    +0.000 HD
ENDBRANCH  31  32
ENDBRANCH  29  31
ENDBRANCH  23  29
ENDBRANCH   1  26
TORSDOF 8
ENDMDL
MODEL 4
REMARK VINA RESULT:      -8.1      0.772      1.273
REMARK  Name = 
REMARK  8 active torsions:
REMARK  status: ('A' for Active; 'I' for Inactive)
REMARK    1  A    between atoms: C_2  and  O_3
REMARK    2  A    between atoms: C_2  and  C_4
REMARK    3  A    between atoms: C_4  and  C_5
REMARK    4  A    between atoms: C_8  and  C_9
REMARK    5  A    between atoms: C_12  and  C_13
REMARK    6  A    between atoms: C_19  and  C_20
REMARK    7  A    between atoms: C_20  and  C_21
REMARK    8  A    between atoms: C_21  and  C_22
REMARK                            x       y       z     vdW  Elec       q    Type
REMARK                         _______ _______ _______ _____ _____    ______ ____
ROOT
ATOM      1  C   UNL     1      -0.477  11.123  20.574  0.00  0.00    +0.000 A 
ATOM      2  C   UNL     1      -0.127  11.351  19.237  0.00  0.00    +0.000 A 
ATOM      3  C   UNL     1       0.722  10.467  18.564  0.00  0.00    +0.000 A 
ATOM      4  C   UNL     1       1.231   9.335  19.213  0.00  0.00    +0.000 A 
ATOM      5  C   UNL     1       0.901   9.100  20.549  0.00  0.00    +0.000 A 
ATOM      6  C   UNL     1       0.050   9.988  21.218  0.00  0.00    +0.000 A 
ENDROOT
BRANCH   4   7
ATOM      7  C   UNL     1       2.170   8.461  18.460  0.00  0.00    +0.000 C 
ATOM      8  O   UNL     1       2.528   8.848  17.349  0.00  0.00    +0.000 OA
ATOM      9  N   UNL     1       2.499   7.262  19.055  0.00  0.00    +0.000 N 
ATOM     10  C   UNL     1       3.328   6.311  18.495  0.00  0.00    +0.000 A 
ATOM     11  N   UNL     1       3.371   5.055  18.892  0.00  0.00    +0.000 NA
ATOM     12  N   UNL     1       4.254   4.303  18.137  0.00  0.00    +0.000 NA
ATOM     13  C   UNL     1       4.898   5.041  17.254  0.00  0.00    +0.000 A 
ATOM     14  S   UNL     1       4.460   6.694  17.275  0.00  0.00    +0.000 S 
ATOM     15  H   UNL     1       1.971   6.926  19.849  0.00  0.00    +0.000 HD
BRANCH  13  16
ATOM     16  C   UNL     1       5.928   4.534  16.298  0.00  0.00    +0.000 C 
BRANCH  16  17
ATOM     17  C   UNL     1       5.660   4.957  14.850  0.00  0.00    +0.000 C 
BRANCH  17  18
ATOM     18  C   UNL     1       5.998   3.882  13.813  0.00  0.00    +0.000 C 
ATOM     19  C   UNL     1       4.878   3.614  12.811  0.00  0.00    +0.000 C 
ATOM     20  C   UNL     1       5.577   2.882  11.676  0.00  0.00    +0.000 C 
ATOM     21  C   UNL     1       7.017   3.393  11.674  0.00  0.00    +0.000 C 
ATOM     22  C   UNL     1       7.160   4.284  12.906  0.00  0.00    +0.000 C 
ENDBRANCH  17  18
ENDBRANCH  16  17
ENDBRANCH  13  16
ENDBRANCH   4   7
BRANCH   1  26
ATOM     23  C   UNL     1      -3.940  12.712  22.726  0.00  0.00    +0.000 C 
ATOM     24  C   UNL     1      -3.651  13.285  21.327  0.00  0.00    +0.000 C 
ATOM     25  C   UNL     1      -2.669  12.414  20.537  0.00  0.00    +0.000 C 
ATOM     26  C   UNL     1      -1.370  12.114  21.311  0.00  0.00    +0.000 C 
ATOM     27  C   UNL     1      -1.670  11.613  22.735  0.00  0.00    +0.000 C 
ATOM     28  C   UNL     1      -2.614  12.546  23.487  0.00  0.00    +0.000 C 
BRANCH  23  29
ATOM     29  C   UNL     1      -4.901  13.598  23.535  0.00  0.00    +0.000 C 
BRANCH  29  31
ATOM     30  O   UNL     1      -7.154  14.068  22.760  0.00  0.00    +0.000 OA
ATOM     31  C   UNL     1      -6.360  13.295  23.267  0.00  0.00    +0.000 C 
BRANCH  31  32
ATOM     32  O   UNL     1      -6.703  12.031  23.612  0.00  0.00    +0.000 OA
ATOM     33  H   UNL     1      -6.091  11.347  23.279  0.00  0.00    +0.000 HD
ENDBRANCH  31  32
ENDBRANCH  29  31
ENDBRANCH  23  29
ENDBRANCH   1  26
TORSDOF 8
ENDMDL
MODEL 5
REMARK VINA RESULT:      -7.9      3.754     12.576
REMARK  Name = 
REMARK  8 active torsions:
REMARK  status: ('A' for Active; 'I' for Inactive)
REMARK    1  A    between atoms: C_2  and  O_3
REMARK    2  A    between atoms: C_2  and  C_4
REMARK    3  A    between atoms: C_4  and  C_5
REMARK    4  A    between atoms: C_8  and  C_9
REMARK    5  A    between atoms: C_12  and  C_13
REMARK    6  A    between atoms: C_19  and  C_20
REMARK    7  A    between atoms: C_20  and  C_21
REMARK    8  A    between atoms: C_21  and  C_22
REMARK                            x       y       z     vdW  Elec       q    Type
REMARK                         _______ _______ _______ _____ _____    ______ ____
ROOT
ATOM      1  C   UNL     1       2.747   7.362  18.671  0.00  0.00    +0.000 A 
ATOM      2  C   UNL     1       2.230   7.275  19.969  0.00  0.00    +0.000 A 
ATOM      3  C   UNL     1       1.303   8.217  20.429  0.00  0.00    +0.000 A 
ATOM      4  C   UNL     1       0.873   9.258  19.598  0.00  0.00    +0.000 A 
ATOM      5  C   UNL     1       1.389   9.365  18.305  0.00  0.00    +0.000 A 
ATOM      6  C   UNL     1       2.315   8.419  17.849  0.00  0.00    +0.000 A 
ENDROOT
BRANCH   4   7
ATOM      7  C   UNL     1      -0.074  10.258  20.162  0.00  0.00    +0.000 C 
ATOM      8  O   UNL     1       0.059  10.546  21.351  0.00  0.00    +0.000 OA
ATOM      9  N   UNL     1      -1.055  10.718  19.312  0.00  0.00    +0.000 N 
ATOM     10  C   UNL     1      -2.037  11.621  19.665  0.00  0.00    +0.000 A 
ATOM     11  N   UNL     1      -3.148  11.797  18.978  0.00  0.00    +0.000 NA
ATOM     12  N   UNL     1      -3.982  12.729  19.571  0.00  0.00    +0.000 NA
ATOM     13  C   UNL     1      -3.430  13.274  20.637  0.00  0.00    +0.000 A 
ATOM     14  S   UNL     1      -1.869  12.677  20.996  0.00  0.00    +0.000 S 
ATOM     15  H   UNL     1      -1.230  10.247  18.434  0.00  0.00    +0.000 HD
BRANCH  13  16
ATOM     16  C   UNL     1      -4.064  14.323  21.493  0.00  0.00    +0.000 C 
BRANCH  16  17
ATOM     17  C   UNL     1      -3.157  15.535  21.724  0.00  0.00    +0.000 C 
BRANCH  17  18
ATOM     18  C   UNL     1      -2.821  15.793  23.195  0.00  0.00    +0.000 C 
ATOM     19  C   UNL     1      -3.577  14.893  24.170  0.00  0.00    +0.000 C 
ATOM     20  C   UNL     1      -2.787  15.018  25.463  0.00  0.00    +0.000 C 
ATOM     21  C   UNL     1      -1.344  15.296  25.045  0.00  0.00    +0.000 C 
ATOM     22  C   UNL     1      -1.363  15.486  23.530  0.00  0.00    +0.000 C 
ENDBRANCH  17  18
ENDBRANCH  16  17
ENDBRANCH  13  16
ENDBRANCH   4   7
BRANCH   1  26
ATOM     23  C   UNL     1       5.027   4.793  15.961  0.00  0.00    +0.000 C 
ATOM     24  C   UNL     1       4.154   4.103  17.023  0.00  0.00    +0.000 C 
ATOM     25  C   UNL     1       3.140   5.065  17.652  0.00  0.00    +0.000 C 
ATOM     26  C   UNL     1       3.786   6.355  18.192  0.00  0.00    +0.000 C 
ATOM     27  C   UNL     1       4.716   6.996  17.147  0.00  0.00    +0.000 C 
ATOM     28  C   UNL     1       5.734   6.002  16.595  0.00  0.00    +0.000 C 
BRANCH  23  29
ATOM     29  C   UNL     1       6.068   3.841  15.348  0.00  0.00    +0.000 C 
BRANCH  29  31
ATOM     30  O   UNL     1       7.587   5.307  14.148  0.00  0.00    +0.000 OA
ATOM     31  C   UNL     1       6.756   4.415  14.128  0.00  0.00    +0.000 C 
BRANCH  31  32
ATOM     32  O   UNL     1       6.385   3.799  12.980  0.00  0.00    +0.000 OA
ATOM     33  H   UNL     1       7.040   3.871  12.259  0.00  0.00    +0.000 HD
ENDBRANCH  31  32
ENDBRANCH  29  31
ENDBRANCH  23  29
ENDBRANCH   1  26
TORSDOF 8
ENDMDL
MODEL 6
REMARK VINA RESULT:      -7.9      1.839      2.305
REMARK  Name = 
REMARK  8 active torsions:
REMARK  status: ('A' for Active; 'I' for Inactive)
REMARK    1  A    between atoms: C_2  and  O_3
REMARK    2  A    between atoms: C_2  and  C_4
REMARK    3  A    between atoms: C_4  and  C_5
REMARK    4  A    between atoms: C_8  and  C_9
REMARK    5  A    between atoms: C_12  and  C_13
REMARK    6  A    between atoms: C_19  and  C_20
REMARK    7  A    between atoms: C_20  and  C_21
REMARK    8  A    between atoms: C_21  and  C_22
REMARK                            x       y       z     vdW  Elec       q    Type
REMARK                         _______ _______ _______ _____ _____    ______ ____
ROOT
ATOM      1  C   UNL     1      -1.012  11.407  21.843  0.00  0.00    +0.000 A 
ATOM      2  C   UNL     1      -0.519  10.350  22.620  0.00  0.00    +0.000 A 
ATOM      3  C   UNL     1       0.276   9.355  22.042  0.00  0.00    +0.000 A 
ATOM      4  C   UNL     1       0.598   9.401  20.680  0.00  0.00    +0.000 A 
ATOM      5  C   UNL     1       0.104  10.441  19.891  0.00  0.00    +0.000 A 
ATOM      6  C   UNL     1      -0.691  11.435  20.474  0.00  0.00    +0.000 A 
ENDROOT
BRANCH   4   7
ATOM      7  C   UNL     1       1.403   8.285  20.114  0.00  0.00    +0.000 C 
ATOM      8  O   UNL     1       1.879   8.452  18.992  0.00  0.00    +0.000 OA
ATOM      9  N   UNL     1       1.484   7.141  20.876  0.00  0.00    +0.000 N 
ATOM     10  C   UNL     1       2.157   5.996  20.501  0.00  0.00    +0.000 A 
ATOM     11  N   UNL     1       1.956   4.817  21.054  0.00  0.00    +0.000 NA
ATOM     12  N   UNL     1       2.728   3.830  20.465  0.00  0.00    +0.000 NA
ATOM     13  C   UNL     1       3.536   4.321  19.547  0.00  0.00    +0.000 A 
ATOM     14  S   UNL     1       3.399   6.011  19.329  0.00  0.00    +0.000 S 
ATOM     15  H   UNL     1       0.865   7.010  21.666  0.00  0.00    +0.000 HD
BRANCH  13  16
ATOM     16  C   UNL     1       4.507   3.522  18.739  0.00  0.00    +0.000 C 
BRANCH  16  17
ATOM     17  C   UNL     1       5.803   4.280  18.438  0.00  0.00    +0.000 C 
BRANCH  17  18
ATOM     18  C   UNL     1       5.890   4.826  17.010  0.00  0.00    +0.000 C 
ATOM     19  C   UNL     1       7.257   4.638  16.357  0.00  0.00    +0.000 C 
ATOM     20  C   UNL     1       6.980   4.836  14.876  0.00  0.00    +0.000 C 
ATOM     21  C   UNL     1       5.535   4.387  14.658  0.00  0.00    +0.000 C 
ATOM     22  C   UNL     1       4.962   4.094  16.042  0.00  0.00    +0.000 C 
ENDBRANCH  17  18
ENDBRANCH  16  17
ENDBRANCH  13  16
ENDBRANCH   4   7
BRANCH   1  26
ATOM     23  C   UNL     1      -4.660  13.494  23.061  0.00  0.00    +0.000 C 
ATOM     24  C   UNL     1      -3.751  14.195  22.036  0.00  0.00    +0.000 C 
ATOM     25  C   UNL     1      -2.728  13.236  21.419  0.00  0.00    +0.000 C 
ATOM     26  C   UNL     1      -1.911  12.464  22.473  0.00  0.00    +0.000 C 
ATOM     27  C   UNL     1      -2.826  11.830  23.535  0.00  0.00    +0.000 C 
ATOM     28  C   UNL     1      -3.788  12.844  24.147  0.00  0.00    +0.000 C 
BRANCH  23  29
ATOM     29  C   UNL     1      -5.668  14.458  23.707  0.00  0.00    +0.000 C 
BRANCH  29  31
ATOM     30  O   UNL     1      -5.322  16.809  23.203  0.00  0.00    +0.000 OA
ATOM     31  C   UNL     1      -5.110  15.849  23.924  0.00  0.00    +0.000 C 
BRANCH  31  32
ATOM     32  O   UNL     1      -4.364  15.943  25.050  0.00  0.00    +0.000 OA
ATOM     33  H   UNL     1      -3.734  16.689  25.050  0.00  0.00    +0.000 HD
ENDBRANCH  31  32
ENDBRANCH  29  31
ENDBRANCH  23  29
ENDBRANCH   1  26
TORSDOF 8
ENDMDL
MODEL 7
REMARK VINA RESULT:      -7.9      3.540     12.551
REMARK  Name = 
REMARK  8 active torsions:
REMARK  status: ('A' for Active; 'I' for Inactive)
REMARK    1  A    between atoms: C_2  and  O_3
REMARK    2  A    between atoms: C_2  and  C_4
REMARK    3  A    between atoms: C_4  and  C_5
REMARK    4  A    between atoms: C_8  and  C_9
REMARK    5  A    between atoms: C_12  and  C_13
REMARK    6  A    between atoms: C_19  and  C_20
REMARK    7  A    between atoms: C_20  and  C_21
REMARK    8  A    between atoms: C_21  and  C_22
REMARK                            x       y       z     vdW  Elec       q    Type
REMARK                         _______ _______ _______ _____ _____    ______ ____
ROOT
ATOM      1  C   UNL     1       2.981   7.214  18.700  0.00  0.00    +0.000 A 
ATOM      2  C   UNL     1       2.609   8.309  17.909  0.00  0.00    +0.000 A 
ATOM      3  C   UNL     1       1.690   9.249  18.386  0.00  0.00    +0.000 A 
ATOM      4  C   UNL     1       1.131   9.117  19.663  0.00  0.00    +0.000 A 
ATOM      5  C   UNL     1       1.484   8.024  20.458  0.00  0.00    +0.000 A 
ATOM      6  C   UNL     1       2.405   7.086  19.977  0.00  0.00    +0.000 A 
ENDROOT
BRANCH   4   7
ATOM      7  C   UNL     1       0.120  10.120  20.092  0.00  0.00    +0.000 C 
ATOM      8  O   UNL     1      -1.005  10.024  19.607  0.00  0.00    +0.000 OA
ATOM      9  N   UNL     1       0.563  11.106  20.947  0.00  0.00    +0.000 N 
ATOM     10  C   UNL     1      -0.220  12.137  21.425  0.00  0.00    +0.000 A 
ATOM     11  N   UNL     1       0.270  13.242  21.951  0.00  0.00    +0.000 NA
ATOM     12  N   UNL     1      -0.728  14.131  22.311  0.00  0.00    +0.000 NA
ATOM     13  C   UNL     1      -1.930  13.625  22.116  0.00  0.00    +0.000 A 
ATOM     14  S   UNL     1      -1.924  12.044  21.466  0.00  0.00    +0.000 S 
ATOM     15  H   UNL     1       1.554  11.242  21.097  0.00  0.00    +0.000 HD
BRANCH  13  16
ATOM     16  C   UNL     1      -3.216  14.325  22.417  0.00  0.00    +0.000 C 
BRANCH  16  17
ATOM     17  C   UNL     1      -4.345  13.362  22.799  0.00  0.00    +0.000 C 
BRANCH  17  18
ATOM     18  C   UNL     1      -5.579  13.457  21.897  0.00  0.00    +0.000 C 
ATOM     19  C   UNL     1      -5.655  12.364  20.834  0.00  0.00    +0.000 C 
ATOM     20  C   UNL     1      -7.107  12.397  20.385  0.00  0.00    +0.000 C 
ATOM     21  C   UNL     1      -7.907  12.874  21.597  0.00  0.00    +0.000 C 
ATOM     22  C   UNL     1      -6.886  13.260  22.664  0.00  0.00    +0.000 C 
ENDBRANCH  17  18
ENDBRANCH  16  17
ENDBRANCH  13  16
ENDBRANCH   4   7
BRANCH   1  26
ATOM     23  C   UNL     1       5.096   4.683  15.825  0.00  0.00    +0.000 C 
ATOM     24  C   UNL     1       4.173   3.985  16.839  0.00  0.00    +0.000 C 
ATOM     25  C   UNL     1       3.224   4.969  17.530  0.00  0.00    +0.000 C 
ATOM     26  C   UNL     1       3.953   6.173  18.156  0.00  0.00    +0.000 C 
ATOM     27  C   UNL     1       4.929   6.818  17.156  0.00  0.00    +0.000 C 
ATOM     28  C   UNL     1       5.879   5.797  16.539  0.00  0.00    +0.000 C 
BRANCH  23  29
ATOM     29  C   UNL     1       6.073   3.706  15.151  0.00  0.00    +0.000 C 
BRANCH  29  31
ATOM     30  O   UNL     1       5.961   3.597  12.727  0.00  0.00    +0.000 OA
ATOM     31  C   UNL     1       6.429   4.102  13.733  0.00  0.00    +0.000 C 
BRANCH  31  32
ATOM     32  O   UNL     1       7.310   5.129  13.683  0.00  0.00    +0.000 OA
ATOM     33  H   UNL     1       8.227   4.879  13.911  0.00  0.00    +0.000 HD
ENDBRANCH  31  32
ENDBRANCH  29  31
ENDBRANCH  23  29
ENDBRANCH   1  26
TORSDOF 8
ENDMDL
MODEL 8
REMARK VINA RESULT:      -7.8      1.968      2.748
REMARK  Name = 
REMARK  8 active torsions:
REMARK  status: ('A' for Active; 'I' for Inactive)
REMARK    1  A    between atoms: C_2  and  O_3
REMARK    2  A    between atoms: C_2  and  C_4
REMARK    3  A    between atoms: C_4  and  C_5
REMARK    4  A    between atoms: C_8  and  C_9
REMARK    5  A    between atoms: C_12  and  C_13
REMARK    6  A    between atoms: C_19  and  C_20
REMARK    7  A    between atoms: C_20  and  C_21
REMARK    8  A    between atoms: C_21  and  C_22
REMARK                            x       y       z     vdW  Elec       q    Type
REMARK                         _______ _______ _______ _____ _____    ______ ____
ROOT
ATOM      1  C   UNL     1      -0.826  11.364  22.203  0.00  0.00    +0.000 A 
ATOM      2  C   UNL     1      -0.286  11.479  20.916  0.00  0.00    +0.000 A 
ATOM      3  C   UNL     1       0.416  10.414  20.343  0.00  0.00    +0.000 A 
ATOM      4  C   UNL     1       0.586   9.213  21.042  0.00  0.00    +0.000 A 
ATOM      5  C   UNL     1       0.063   9.088  22.331  0.00  0.00    +0.000 A 
ATOM      6  C   UNL     1      -0.640  10.156  22.900  0.00  0.00    +0.000 A 
ENDROOT
BRANCH   4   7
ATOM      7  C   UNL     1       1.387   8.136  20.401  0.00  0.00    +0.000 C 
ATOM      8  O   UNL     1       1.927   8.403  19.328  0.00  0.00    +0.000 OA
ATOM      9  N   UNL     1       1.393   6.915  21.040  0.00  0.00    +0.000 N 
ATOM     10  C   UNL     1       2.051   5.793  20.579  0.00  0.00    +0.000 A 
ATOM     11  N   UNL     1       1.786   4.570  20.992  0.00  0.00    +0.000 NA
ATOM     12  N   UNL     1       2.558   3.624  20.341  0.00  0.00    +0.000 NA
ATOM     13  C   UNL     1       3.429   4.181  19.521  0.00  0.00    +0.000 A 
ATOM     14  S   UNL     1       3.353   5.888  19.479  0.00  0.00    +0.000 S 
ATOM     15  H   UNL     1       0.729   6.724  21.779  0.00  0.00    +0.000 HD
BRANCH  13  16
ATOM     16  C   UNL     1       4.417   3.437  18.682  0.00  0.00    +0.000 C 
BRANCH  16  17
ATOM     17  C   UNL     1       5.714   4.218  18.450  0.00  0.00    +0.000 C 
BRANCH  17  18
ATOM     18  C   UNL     1       5.849   4.801  17.041  0.00  0.00    +0.000 C 
ATOM     19  C   UNL     1       7.217   4.573  16.404  0.00  0.00    +0.000 C 
ATOM     20  C   UNL     1       6.974   4.826  14.925  0.00  0.00    +0.000 C 
ATOM     21  C   UNL     1       5.515   4.448  14.671  0.00  0.00    +0.000 C 
ATOM     22  C   UNL     1       4.906   4.140  16.037  0.00  0.00    +0.000 C 
ENDBRANCH  17  18
ENDBRANCH  16  17
ENDBRANCH  13  16
ENDBRANCH   4   7
BRANCH   1  26
ATOM     23  C   UNL     1      -3.026  15.132  22.523  0.00  0.00    +0.000 C 
ATOM     24  C   UNL     1      -1.600  15.094  23.100  0.00  0.00    +0.000 C 
ATOM     25  C   UNL     1      -0.812  13.874  22.610  0.00  0.00    +0.000 C 
ATOM     26  C   UNL     1      -1.555  12.544  22.835  0.00  0.00    +0.000 C 
ATOM     27  C   UNL     1      -3.004  12.619  22.322  0.00  0.00    +0.000 C 
ATOM     28  C   UNL     1      -3.752  13.825  22.882  0.00  0.00    +0.000 C 
BRANCH  23  29
ATOM     29  C   UNL     1      -3.833  16.337  23.035  0.00  0.00    +0.000 C 
BRANCH  29  31
ATOM     30  O   UNL     1      -5.942  15.810  24.119  0.00  0.00    +0.000 OA
ATOM     31  C   UNL     1      -4.740  15.996  24.199  0.00  0.00    +0.000 C 
BRANCH  31  32
ATOM     32  O   UNL     1      -4.066  15.869  25.367  0.00  0.00    +0.000 OA
ATOM     33  H   UNL     1      -3.481  15.088  25.406  0.00  0.00    +0.000 HD
ENDBRANCH  31  32
ENDBRANCH  29  31
ENDBRANCH  23  29
ENDBRANCH   1  26
TORSDOF 8
ENDMDL
MODEL 9
REMARK VINA RESULT:      -7.8      2.705      3.763
REMARK  Name = 
REMARK  8 active torsions:
REMARK  status: ('A' for Active; 'I' for Inactive)
REMARK    1  A    between atoms: C_2  and  O_3
REMARK    2  A    between atoms: C_2  and  C_4
REMARK    3  A    between atoms: C_4  and  C_5
REMARK    4  A    between atoms: C_8  and  C_9
REMARK    5  A    between atoms: C_12  and  C_13
REMARK    6  A    between atoms: C_19  and  C_20
REMARK    7  A    between atoms: C_20  and  C_21
REMARK    8  A    between atoms: C_21  and  C_22
REMARK                            x       y       z     vdW  Elec       q    Type
REMARK                         _______ _______ _______ _____ _____    ______ ____
ROOT
ATOM      1  C   UNL     1      -1.643  11.812  22.177  0.00  0.00    +0.000 A 
ATOM      2  C   UNL     1      -1.063  10.868  23.035  0.00  0.00    +0.000 A 
ATOM      3  C   UNL     1      -0.174   9.910  22.539  0.00  0.00    +0.000 A 
ATOM      4  C   UNL     1       0.157   9.880  21.179  0.00  0.00    +0.000 A 
ATOM      5  C   UNL     1      -0.422  10.806  20.310  0.00  0.00    +0.000 A 
ATOM      6  C   UNL     1      -1.311  11.765  20.811  0.00  0.00    +0.000 A 
ENDROOT
BRANCH   4   7
ATOM      7  C   UNL     1       1.068   8.804  20.703  0.00  0.00    +0.000 C 
ATOM      8  O   UNL     1       1.444   7.981  21.535  0.00  0.00    +0.000 OA
ATOM      9  N   UNL     1       1.456   8.872  19.383  0.00  0.00    +0.000 N 
ATOM     10  C   UNL     1       2.320   7.984  18.774  0.00  0.00    +0.000 A 
ATOM     11  N   UNL     1       2.945   8.234  17.642  0.00  0.00    +0.000 NA
ATOM     12  N   UNL     1       3.783   7.196  17.272  0.00  0.00    +0.000 NA
ATOM     13  C   UNL     1       3.693   6.174  18.100  0.00  0.00    +0.000 A 
ATOM     14  S   UNL     1       2.597   6.416  19.389  0.00  0.00    +0.000 S 
ATOM     15  H   UNL     1       1.291   9.713  18.846  0.00  0.00    +0.000 HD
BRANCH  13  16
ATOM     16  C   UNL     1       4.455   4.895  17.973  0.00  0.00    +0.000 C 
BRANCH  16  17
ATOM     17  C   UNL     1       3.788   3.892  17.027  0.00  0.00    +0.000 C 
BRANCH  17  18
ATOM     18  C   UNL     1       2.859   2.896  17.726  0.00  0.00    +0.000 C 
ATOM     19  C   UNL     1       3.208   2.647  19.191  0.00  0.00    +0.000 C 
ATOM     20  C   UNL     1       1.948   2.012  19.759  0.00  0.00    +0.000 C 
ATOM     21  C   UNL     1       0.790   2.576  18.938  0.00  0.00    +0.000 C 
ATOM     22  C   UNL     1       1.417   3.395  17.813  0.00  0.00    +0.000 C 
ENDBRANCH  17  18
ENDBRANCH  16  17
ENDBRANCH  13  16
ENDBRANCH   4   7
BRANCH   1  26
ATOM     23  C   UNL     1      -5.477  13.616  23.268  0.00  0.00    +0.000 C 
ATOM     24  C   UNL     1      -4.662  14.302  22.158  0.00  0.00    +0.000 C 
ATOM     25  C   UNL     1      -3.549  13.399  21.615  0.00  0.00    +0.000 C 
ATOM     26  C   UNL     1      -2.642  12.827  22.721  0.00  0.00    +0.000 C 
ATOM     27  C   UNL     1      -3.470  12.210  23.861  0.00  0.00    +0.000 C 
ATOM     28  C   UNL     1      -4.527  13.173  24.392  0.00  0.00    +0.000 C 
BRANCH  23  29
ATOM     29  C   UNL     1      -6.575  14.529  23.838  0.00  0.00    +0.000 C 
BRANCH  29  31
ATOM     30  O   UNL     1      -6.635  16.797  22.974  0.00  0.00    +0.000 OA
ATOM     31  C   UNL     1      -6.213  15.998  23.792  0.00  0.00    +0.000 C 
BRANCH  31  32
ATOM     32  O   UNL     1      -5.385  16.364  24.800  0.00  0.00    +0.000 OA
ATOM     33  H   UNL     1      -5.345  15.723  25.535  0.00  0.00    +0.000 HD
ENDBRANCH  31  32
ENDBRANCH  29  31
ENDBRANCH  23  29
ENDBRANCH   1  26
TORSDOF 8
ENDMDL
