MODEL 1
REMARK VINA RESULT:      -8.5      0.000      0.000
REMARK  Name = 
REMARK  8 active torsions:
REMARK  status: ('A' for Active; 'I' for Inactive)
REMARK    1  A    between atoms: C_1  and  C_2
REMARK    2  A    between atoms: C_2  and  C_3
REMARK    3  A    between atoms: C_2  and  O_4
REMARK    4  A    between atoms: O_4  and  C_5
REMARK    5  A    between atoms: C_5  and  C_6
REMARK    6  A    between atoms: C_6  and  C_7
REMARK    7  A    between atoms: C_7  and  N_8
REMARK    8  A    between atoms: C_18  and  C_19
REMARK                            x       y       z     vdW  Elec       q    Type
REMARK                         _______ _______ _______ _____ _____    ______ ____
ROOT
ATOM      1  N   UNL     1       4.615   4.119  16.986  0.00  0.00    +0.000 N 
ATOM      2  C   UNL     1       4.011   3.047  17.629  0.00  0.00    +0.000 A 
ATOM      3  O   UNL     1       4.340   1.878  17.450  0.00  0.00    +0.000 OA
ATOM      4  C   UNL     1       2.904   3.343  18.579  0.00  0.00    +0.000 A 
ATOM      5  C   UNL     1       2.351   2.272  19.301  0.00  0.00    +0.000 A 
ATOM      6  C   UNL     1       1.318   2.497  20.206  0.00  0.00    +0.000 A 
ATOM      7  C   UNL     1       0.784   3.773  20.330  0.00  0.00    +0.000 A 
ATOM      8  C   UNL     1       1.298   4.833  19.576  0.00  0.00    +0.000 A 
ATOM      9  C   UNL     1       2.413   4.646  18.757  0.00  0.00    +0.000 A 
ATOM     10  N   UNL     1       3.110   5.693  18.100  0.00  0.00    +0.000 N 
ATOM     11  C   UNL     1       3.038   7.088  18.112  0.00  0.00    +0.000 A 
ATOM     12  N   UNL     1       3.932   7.549  17.247  0.00  0.00    +0.000 NA
ATOM     13  N   UNL     1       4.625   6.509  16.715  0.00  0.00    +0.000 NA
ATOM     14  C   UNL     1       4.158   5.402  17.241  0.00  0.00    +0.000 A 
ENDROOT
BRANCH  11  15
ATOM     15  C   UNL     1       2.159   7.993  18.849  0.00  0.00    +0.000 A 
ATOM     16  C   UNL     1       1.942   7.916  20.232  0.00  0.00    +0.000 A 
ATOM     17  C   UNL     1       0.985   8.726  20.849  0.00  0.00    +0.000 A 
ATOM     18  C   UNL     1       0.331   9.723  20.126  0.00  0.00    +0.000 A 
ATOM     19  C   UNL     1       0.650   9.913  18.785  0.00  0.00    +0.000 A 
ATOM     20  C   UNL     1       1.547   9.055  18.153  0.00  0.00    +0.000 A 
ENDBRANCH  11  15
BRANCH   1  21
ATOM     21  C   UNL     1       5.749   3.880  16.091  0.00  0.00    +0.000 C 
BRANCH  21  22
ATOM     22  C   UNL     1       5.362   4.058  14.622  0.00  0.00    +0.000 C 
BRANCH  22  23
ATOM     23  C   UNL     1       6.579   4.023  13.709  0.00  0.00    +0.000 C 
BRANCH  23  24
ATOM     24  O   UNL     1       6.139   3.929  12.359  0.00  0.00    +0.000 OA
BRANCH  24  26
ATOM     25  C   UNL     1       4.189   3.203  11.212  0.00  0.00    +0.000 C 
ATOM     26  C   UNL     1       5.371   2.757  12.068  0.00  0.00    +0.000 C 
ATOM     27  C   UNL     1       6.201   1.721  11.316  0.00  0.00    +0.000 C 
ENDBRANCH  24  26
ENDBRANCH  23  24
ENDBRANCH  22  23
ENDBRANCH  21  22
ENDBRANCH   1  21
TORSDOF 6
ENDMDL
MODEL 2
REMARK VINA RESULT:      -8.2      2.072      3.165
REMARK  Name = 
REMARK  8 active torsions:
REMARK  status: ('A' for Active; 'I' for Inactive)
REMARK    1  A    between atoms: C_1  and  C_2
REMARK    2  A    between atoms: C_2  and  C_3
REMARK    3  A    between atoms: C_2  and  O_4
REMARK    4  A    between atoms: O_4  and  C_5
REMARK    5  A    between atoms: C_5  and  C_6
REMARK    6  A    between atoms: C_6  and  C_7
REMARK    7  A    between atoms: C_7  and  N_8
REMARK    8  A    between atoms: C_18  and  C_19
REMARK                            x       y       z     vdW  Elec       q    Type
REMARK                         _______ _______ _______ _____ _____    ______ ____
ROOT
ATOM      1  N   UNL     1       4.057   4.283  17.118  0.00  0.00    +0.000 N 
ATOM      2  C   UNL     1       3.652   3.173  17.849  0.00  0.00    +0.000 A 
ATOM      3  O   UNL     1       3.984   2.024  17.574  0.00  0.00    +0.000 OA
ATOM      4  C   UNL     1       2.765   3.403  19.022  0.00  0.00    +0.000 A 
ATOM      5  C   UNL     1       2.427   2.296  19.818  0.00  0.00    +0.000 A 
ATOM      6  C   UNL     1       1.606   2.457  20.930  0.00  0.00    +0.000 A 
ATOM      7  C   UNL     1       1.058   3.705  21.198  0.00  0.00    +0.000 A 
ATOM      8  C   UNL     1       1.351   4.800  20.379  0.00  0.00    +0.000 A 
ATOM      9  C   UNL     1       2.269   4.678  19.334  0.00  0.00    +0.000 A 
ATOM     10  N   UNL     1       2.763   5.766  18.569  0.00  0.00    +0.000 N 
ATOM     11  C   UNL     1       2.636   7.156  18.632  0.00  0.00    +0.000 A 
ATOM     12  N   UNL     1       3.301   7.673  17.607  0.00  0.00    +0.000 NA
ATOM     13  N   UNL     1       3.907   6.674  16.912  0.00  0.00    +0.000 NA
ATOM     14  C   UNL     1       3.612   5.539  17.498  0.00  0.00    +0.000 A 
ENDROOT
BRANCH  11  15
ATOM     15  C   UNL     1       1.899   8.008  19.564  0.00  0.00    +0.000 A 
ATOM     16  C   UNL     1       1.883   7.814  20.952  0.00  0.00    +0.000 A 
ATOM     17  C   UNL     1       1.050   8.581  21.769  0.00  0.00    +0.000 A 
ATOM     18  C   UNL     1       0.326   9.648  21.236  0.00  0.00    +0.000 A 
ATOM     19  C   UNL     1       0.452   9.949  19.884  0.00  0.00    +0.000 A 
ATOM     20  C   UNL     1       1.223   9.136  19.057  0.00  0.00    +0.000 A 
ENDBRANCH  11  15
BRANCH   1  21
ATOM     21  C   UNL     1       4.980   4.111  15.994  0.00  0.00    +0.000 C 
BRANCH  21  22
ATOM     22  C   UNL     1       6.427   4.400  16.398  0.00  0.00    +0.000 C 
BRANCH  22  23
ATOM     23  C   UNL     1       6.982   5.617  15.672  0.00  0.00    +0.000 C 
BRANCH  23  24
ATOM     24  O   UNL     1       7.920   6.271  16.522  0.00  0.00    +0.000 OA
BRANCH  24  26
ATOM     25  C   UNL     1       7.842   6.236  18.895  0.00  0.00    +0.000 C 
ATOM     26  C   UNL     1       7.334   6.942  17.641  0.00  0.00    +0.000 C 
ATOM     27  C   UNL     1       7.725   8.416  17.674  0.00  0.00    +0.000 C 
ENDBRANCH  24  26
ENDBRANCH  23  24
ENDBRANCH  22  23
ENDBRANCH  21  22
ENDBRANCH   1  21
TORSDOF 6
ENDMDL
MODEL 3
REMARK VINA RESULT:      -8.1      2.090      3.180
REMARK  Name = 
REMARK  8 active torsions:
REMARK  status: ('A' for Active; 'I' for Inactive)
REMARK    1  A    between atoms: C_1  and  C_2
REMARK    2  A    between atoms: C_2  and  C_3
REMARK    3  A    between atoms: C_2  and  O_4
REMARK    4  A    between atoms: O_4  and  C_5
REMARK    5  A    between atoms: C_5  and  C_6
REMARK    6  A    between atoms: C_6  and  C_7
REMARK    7  A    between atoms: C_7  and  N_8
REMARK    8  A    between atoms: C_18  and  C_19
REMARK                            x       y       z     vdW  Elec       q    Type
REMARK                         _______ _______ _______ _____ _____    ______ ____
ROOT
ATOM      1  N   UNL     1       4.094   4.621  16.935  0.00  0.00    +0.000 N 
ATOM      2  C   UNL     1       3.694   3.458  17.580  0.00  0.00    +0.000 A 
ATOM      3  O   UNL     1       4.050   2.335  17.233  0.00  0.00    +0.000 OA
ATOM      4  C   UNL     1       2.783   3.592  18.749  0.00  0.00    +0.000 A 
ATOM      5  C   UNL     1       2.449   2.428  19.461  0.00  0.00    +0.000 A 
ATOM      6  C   UNL     1       1.606   2.500  20.565  0.00  0.00    +0.000 A 
ATOM      7  C   UNL     1       1.033   3.718  20.908  0.00  0.00    +0.000 A 
ATOM      8  C   UNL     1       1.323   4.871  20.172  0.00  0.00    +0.000 A 
ATOM      9  C   UNL     1       2.261   4.836  19.139  0.00  0.00    +0.000 A 
ATOM     10  N   UNL     1       2.751   5.981  18.460  0.00  0.00    +0.000 N 
ATOM     11  C   UNL     1       2.601   7.361  18.616  0.00  0.00    +0.000 A 
ATOM     12  N   UNL     1       3.276   7.958  17.641  0.00  0.00    +0.000 NA
ATOM     13  N   UNL     1       3.909   7.018  16.891  0.00  0.00    +0.000 NA
ATOM     14  C   UNL     1       3.622   5.841  17.392  0.00  0.00    +0.000 A 
ENDROOT
BRANCH  11  15
ATOM     15  C   UNL     1       1.833   8.135  19.591  0.00  0.00    +0.000 A 
ATOM     16  C   UNL     1       1.812   7.858  20.965  0.00  0.00    +0.000 A 
ATOM     17  C   UNL     1       0.952   8.553  21.818  0.00  0.00    +0.000 A 
ATOM     18  C   UNL     1       0.203   9.629  21.343  0.00  0.00    +0.000 A 
ATOM     19  C   UNL     1       0.331  10.014  20.012  0.00  0.00    +0.000 A 
ATOM     20  C   UNL     1       1.131   9.273  19.146  0.00  0.00    +0.000 A 
ENDBRANCH  11  15
BRANCH   1  21
ATOM     21  C   UNL     1       5.040   4.541  15.819  0.00  0.00    +0.000 C 
BRANCH  21  22
ATOM     22  C   UNL     1       6.326   3.815  16.216  0.00  0.00    +0.000 C 
BRANCH  22  23
ATOM     23  C   UNL     1       7.434   4.790  16.585  0.00  0.00    +0.000 C 
BRANCH  23  24
ATOM     24  O   UNL     1       7.883   4.498  17.904  0.00  0.00    +0.000 OA
BRANCH  24  26
ATOM     25  C   UNL     1       7.710   6.861  18.080  0.00  0.00    +0.000 C 
ATOM     26  C   UNL     1       7.653   5.545  18.851  0.00  0.00    +0.000 C 
ATOM     27  C   UNL     1       6.295   5.394  19.530  0.00  0.00    +0.000 C 
ENDBRANCH  24  26
ENDBRANCH  23  24
ENDBRANCH  22  23
ENDBRANCH  21  22
ENDBRANCH   1  21
TORSDOF 6
ENDMDL
MODEL 4
REMARK VINA RESULT:      -7.9      1.052      1.123
REMARK  Name = 
REMARK  8 active torsions:
REMARK  status: ('A' for Active; 'I' for Inactive)
REMARK    1  A    between atoms: C_1  and  C_2
REMARK    2  A    between atoms: C_2  and  C_3
REMARK    3  A    between atoms: C_2  and  O_4
REMARK    4  A    between atoms: O_4  and  C_5
REMARK    5  A    between atoms: C_5  and  C_6
REMARK    6  A    between atoms: C_6  and  C_7
REMARK    7  A    between atoms: C_7  and  N_8
REMARK    8  A    between atoms: C_18  and  C_19
REMARK                            x       y       z     vdW  Elec       q    Type
REMARK                         _______ _______ _______ _____ _____    ______ ____
ROOT
ATOM      1  N   UNL     1       5.159   4.675  17.898  0.00  0.00    +0.000 N 
ATOM      2  C   UNL     1       4.703   3.665  18.735  0.00  0.00    +0.000 A 
ATOM      3  O   UNL     1       5.243   2.567  18.826  0.00  0.00    +0.000 OA
ATOM      4  C   UNL     1       3.492   3.939  19.556  0.00  0.00    +0.000 A 
ATOM      5  C   UNL     1       3.080   2.956  20.470  0.00  0.00    +0.000 A 
ATOM      6  C   UNL     1       1.958   3.165  21.266  0.00  0.00    +0.000 A 
ATOM      7  C   UNL     1       1.202   4.317  21.090  0.00  0.00    +0.000 A 
ATOM      8  C   UNL     1       1.580   5.276  20.145  0.00  0.00    +0.000 A 
ATOM      9  C   UNL     1       2.769   5.136  19.428  0.00  0.00    +0.000 A 
ATOM     10  N   UNL     1       3.322   6.136  18.587  0.00  0.00    +0.000 N 
ATOM     11  C   UNL     1       3.007   7.465  18.294  0.00  0.00    +0.000 A 
ATOM     12  N   UNL     1       3.870   7.897  17.383  0.00  0.00    +0.000 NA
ATOM     13  N   UNL     1       4.773   6.917  17.117  0.00  0.00    +0.000 NA
ATOM     14  C   UNL     1       4.467   5.875  17.852  0.00  0.00    +0.000 A 
ENDROOT
BRANCH  11  15
ATOM     15  C   UNL     1       1.929   8.323  18.784  0.00  0.00    +0.000 A 
ATOM     16  C   UNL     1       1.602   8.467  20.139  0.00  0.00    +0.000 A 
ATOM     17  C   UNL     1       0.475   9.196  20.526  0.00  0.00    +0.000 A 
ATOM     18  C   UNL     1      -0.263   9.909  19.582  0.00  0.00    +0.000 A 
ATOM     19  C   UNL     1       0.142   9.899  18.251  0.00  0.00    +0.000 A 
ATOM     20  C   UNL     1       1.220   9.112  17.856  0.00  0.00    +0.000 A 
ENDBRANCH  11  15
BRANCH   1  21
ATOM     21  C   UNL     1       6.383   4.473  17.119  0.00  0.00    +0.000 C 
BRANCH  21  22
ATOM     22  C   UNL     1       6.118   3.677  15.840  0.00  0.00    +0.000 C 
BRANCH  22  23
ATOM     23  C   UNL     1       6.261   4.543  14.597  0.00  0.00    +0.000 C 
BRANCH  23  24
ATOM     24  O   UNL     1       5.252   4.176  13.663  0.00  0.00    +0.000 OA
BRANCH  24  26
ATOM     25  C   UNL     1       4.587   3.279  11.567  0.00  0.00    +0.000 C 
ATOM     26  C   UNL     1       5.709   3.336  12.599  0.00  0.00    +0.000 C 
ATOM     27  C   UNL     1       6.980   3.888  11.960  0.00  0.00    +0.000 C 
ENDBRANCH  24  26
ENDBRANCH  23  24
ENDBRANCH  22  23
ENDBRANCH  21  22
ENDBRANCH   1  21
TORSDOF 6
ENDMDL
MODEL 5
REMARK VINA RESULT:      -7.8      1.118      1.533
REMARK  Name = 
REMARK  8 active torsions:
REMARK  status: ('A' for Active; 'I' for Inactive)
REMARK    1  A    between atoms: C_1  and  C_2
REMARK    2  A    between atoms: C_2  and  C_3
REMARK    3  A    between atoms: C_2  and  O_4
REMARK    4  A    between atoms: O_4  and  C_5
REMARK    5  A    between atoms: C_5  and  C_6
REMARK    6  A    between atoms: C_6  and  C_7
REMARK    7  A    between atoms: C_7  and  N_8
REMARK    8  A    between atoms: C_18  and  C_19
REMARK                            x       y       z     vdW  Elec       q    Type
REMARK                         _______ _______ _______ _____ _____    ______ ____
ROOT
ATOM      1  N   UNL     1       4.154   4.280  17.117  0.00  0.00    +0.000 N 
ATOM      2  C   UNL     1       3.704   3.175  17.827  0.00  0.00    +0.000 A 
ATOM      3  O   UNL     1       4.037   2.023  17.568  0.00  0.00    +0.000 OA
ATOM      4  C   UNL     1       2.764   3.414  18.957  0.00  0.00    +0.000 A 
ATOM      5  C   UNL     1       2.378   2.310  19.736  0.00  0.00    +0.000 A 
ATOM      6  C   UNL     1       1.506   2.481  20.807  0.00  0.00    +0.000 A 
ATOM      7  C   UNL     1       0.959   3.734  21.049  0.00  0.00    +0.000 A 
ATOM      8  C   UNL     1       1.302   4.825  20.245  0.00  0.00    +0.000 A 
ATOM      9  C   UNL     1       2.267   4.694  19.245  0.00  0.00    +0.000 A 
ATOM     10  N   UNL     1       2.808   5.777  18.505  0.00  0.00    +0.000 N 
ATOM     11  C   UNL     1       2.692   7.168  18.562  0.00  0.00    +0.000 A 
ATOM     12  N   UNL     1       3.410   7.678  17.570  0.00  0.00    +0.000 NA
ATOM     13  N   UNL     1       4.038   6.673  16.905  0.00  0.00    +0.000 NA
ATOM     14  C   UNL     1       3.704   5.541  17.476  0.00  0.00    +0.000 A 
ENDROOT
BRANCH  11  15
ATOM     15  C   UNL     1       1.920   8.028  19.459  0.00  0.00    +0.000 A 
ATOM     16  C   UNL     1       1.830   7.830  20.843  0.00  0.00    +0.000 A 
ATOM     17  C   UNL     1       0.967   8.607  21.619  0.00  0.00    +0.000 A 
ATOM     18  C   UNL     1       0.286   9.685  21.054  0.00  0.00    +0.000 A 
ATOM     19  C   UNL     1       0.485   9.988  19.711  0.00  0.00    +0.000 A 
ATOM     20  C   UNL     1       1.287   9.167  18.922  0.00  0.00    +0.000 A 
ENDBRANCH  11  15
BRANCH   1  21
ATOM     21  C   UNL     1       5.128   4.099  16.038  0.00  0.00    +0.000 C 
BRANCH  21  22
ATOM     22  C   UNL     1       6.564   4.277  16.533  0.00  0.00    +0.000 C 
BRANCH  22  23
ATOM     23  C   UNL     1       7.335   5.277  15.683  0.00  0.00    +0.000 C 
BRANCH  23  24
ATOM     24  O   UNL     1       6.717   5.364  14.403  0.00  0.00    +0.000 OA
BRANCH  24  26
ATOM     25  C   UNL     1       6.421   3.788  12.651  0.00  0.00    +0.000 C 
ATOM     26  C   UNL     1       7.426   4.693  13.358  0.00  0.00    +0.000 C 
ATOM     27  C   UNL     1       8.027   5.685  12.366  0.00  0.00    +0.000 C 
ENDBRANCH  24  26
ENDBRANCH  23  24
ENDBRANCH  22  23
ENDBRANCH  21  22
ENDBRANCH   1  21
TORSDOF 6
ENDMDL
MODEL 6
REMARK VINA RESULT:      -7.6      2.012      3.210
REMARK  Name = 
REMARK  8 active torsions:
REMARK  status: ('A' for Active; 'I' for Inactive)
REMARK    1  A    between atoms: C_1  and  C_2
REMARK    2  A    between atoms: C_2  and  C_3
REMARK    3  A    between atoms: C_2  and  O_4
REMARK    4  A    between atoms: O_4  and  C_5
REMARK    5  A    between atoms: C_5  and  C_6
REMARK    6  A    between atoms: C_6  and  C_7
REMARK    7  A    between atoms: C_7  and  N_8
REMARK    8  A    between atoms: C_18  and  C_19
REMARK                            x       y       z     vdW  Elec       q    Type
REMARK                         _______ _______ _______ _____ _____    ______ ____
ROOT
ATOM      1  N   UNL     1       4.141   4.301  17.033  0.00  0.00    +0.000 N 
ATOM      2  C   UNL     1       3.685   3.194  17.737  0.00  0.00    +0.000 A 
ATOM      3  O   UNL     1       4.008   2.041  17.467  0.00  0.00    +0.000 OA
ATOM      4  C   UNL     1       2.752   3.431  18.873  0.00  0.00    +0.000 A 
ATOM      5  C   UNL     1       2.360   2.324  19.644  0.00  0.00    +0.000 A 
ATOM      6  C   UNL     1       1.494   2.493  20.720  0.00  0.00    +0.000 A 
ATOM      7  C   UNL     1       0.958   3.748  20.975  0.00  0.00    +0.000 A 
ATOM      8  C   UNL     1       1.306   4.844  20.178  0.00  0.00    +0.000 A 
ATOM      9  C   UNL     1       2.266   4.713  19.173  0.00  0.00    +0.000 A 
ATOM     10  N   UNL     1       2.812   5.798  18.440  0.00  0.00    +0.000 N 
ATOM     11  C   UNL     1       2.708   7.189  18.508  0.00  0.00    +0.000 A 
ATOM     12  N   UNL     1       3.426   7.701  17.517  0.00  0.00    +0.000 NA
ATOM     13  N   UNL     1       4.043   6.697  16.841  0.00  0.00    +0.000 NA
ATOM     14  C   UNL     1       3.703   5.562  17.405  0.00  0.00    +0.000 A 
ENDROOT
BRANCH  11  15
ATOM     15  C   UNL     1       1.946   8.047  19.415  0.00  0.00    +0.000 A 
ATOM     16  C   UNL     1       1.221   9.172  18.999  0.00  0.00    +0.000 A 
ATOM     17  C   UNL     1       0.629  10.024  19.934  0.00  0.00    +0.000 A 
ATOM     18  C   UNL     1       0.629   9.693  21.289  0.00  0.00    +0.000 A 
ATOM     19  C   UNL     1       1.213   8.499  21.700  0.00  0.00    +0.000 A 
ATOM     20  C   UNL     1       1.868   7.690  20.776  0.00  0.00    +0.000 A 
ENDBRANCH  11  15
BRANCH   1  21
ATOM     21  C   UNL     1       5.109   4.121  15.949  0.00  0.00    +0.000 C 
BRANCH  21  22
ATOM     22  C   UNL     1       6.550   4.161  16.461  0.00  0.00    +0.000 C 
BRANCH  22  23
ATOM     23  C   UNL     1       7.355   5.266  15.795  0.00  0.00    +0.000 C 
BRANCH  23  24
ATOM     24  O   UNL     1       7.021   6.509  16.404  0.00  0.00    +0.000 OA
BRANCH  24  26
ATOM     25  C   UNL     1       7.777   8.354  17.695  0.00  0.00    +0.000 C 
ATOM     26  C   UNL     1       7.807   6.835  17.554  0.00  0.00    +0.000 C 
ATOM     27  C   UNL     1       7.249   6.180  18.814  0.00  0.00    +0.000 C 
ENDBRANCH  24  26
ENDBRANCH  23  24
ENDBRANCH  22  23
ENDBRANCH  21  22
ENDBRANCH   1  21
TORSDOF 6
ENDMDL
MODEL 7
REMARK VINA RESULT:      -7.6      0.786      1.434
REMARK  Name = 
REMARK  8 active torsions:
REMARK  status: ('A' for Active; 'I' for Inactive)
REMARK    1  A    between atoms: C_1  and  C_2
REMARK    2  A    between atoms: C_2  and  C_3
REMARK    3  A    between atoms: C_2  and  O_4
REMARK    4  A    between atoms: O_4  and  C_5
REMARK    5  A    between atoms: C_5  and  C_6
REMARK    6  A    between atoms: C_6  and  C_7
REMARK    7  A    between atoms: C_7  and  N_8
REMARK    8  A    between atoms: C_18  and  C_19
REMARK                            x       y       z     vdW  Elec       q    Type
REMARK                         _______ _______ _______ _____ _____    ______ ____
ROOT
ATOM      1  N   UNL     1       4.340   3.893  17.099  0.00  0.00    +0.000 N 
ATOM      2  C   UNL     1       3.768   2.863  17.836  0.00  0.00    +0.000 A 
ATOM      3  O   UNL     1       4.052   1.680  17.677  0.00  0.00    +0.000 OA
ATOM      4  C   UNL     1       2.757   3.228  18.866  0.00  0.00    +0.000 A 
ATOM      5  C   UNL     1       2.244   2.201  19.676  0.00  0.00    +0.000 A 
ATOM      6  C   UNL     1       1.302   2.490  20.658  0.00  0.00    +0.000 A 
ATOM      7  C   UNL     1       0.812   3.784  20.776  0.00  0.00    +0.000 A 
ATOM      8  C   UNL     1       1.284   4.800  19.937  0.00  0.00    +0.000 A 
ATOM      9  C   UNL     1       2.317   4.550  19.032  0.00  0.00    +0.000 A 
ATOM     10  N   UNL     1       2.979   5.550  18.275  0.00  0.00    +0.000 N 
ATOM     11  C   UNL     1       2.943   6.946  18.236  0.00  0.00    +0.000 A 
ATOM     12  N   UNL     1       3.768   7.349  17.278  0.00  0.00    +0.000 NA
ATOM     13  N   UNL     1       4.385   6.269  16.731  0.00  0.00    +0.000 NA
ATOM     14  C   UNL     1       3.939   5.197  17.341  0.00  0.00    +0.000 A 
ENDROOT
BRANCH  11  15
ATOM     15  C   UNL     1       2.154   7.904  19.010  0.00  0.00    +0.000 A 
ATOM     16  C   UNL     1       1.505   9.013  18.450  0.00  0.00    +0.000 A 
ATOM     17  C   UNL     1       0.884   9.961  19.265  0.00  0.00    +0.000 A 
ATOM     18  C   UNL     1       0.775   9.748  20.639  0.00  0.00    +0.000 A 
ATOM     19  C   UNL     1       1.280   8.575  21.189  0.00  0.00    +0.000 A 
ATOM     20  C   UNL     1       1.966   7.667  20.387  0.00  0.00    +0.000 A 
ENDBRANCH  11  15
BRANCH   1  21
ATOM     21  C   UNL     1       5.385   3.587  16.119  0.00  0.00    +0.000 C 
BRANCH  21  22
ATOM     22  C   UNL     1       6.639   4.433  16.343  0.00  0.00    +0.000 C 
BRANCH  22  23
ATOM     23  C   UNL     1       7.278   4.854  15.028  0.00  0.00    +0.000 C 
BRANCH  23  24
ATOM     24  O   UNL     1       6.319   4.714  13.985  0.00  0.00    +0.000 OA
BRANCH  24  26
ATOM     25  C   UNL     1       5.541   3.269  12.268  0.00  0.00    +0.000 C 
ATOM     26  C   UNL     1       6.771   3.945  12.867  0.00  0.00    +0.000 C 
ATOM     27  C   UNL     1       7.445   4.828  11.820  0.00  0.00    +0.000 C 
ENDBRANCH  24  26
ENDBRANCH  23  24
ENDBRANCH  22  23
ENDBRANCH  21  22
ENDBRANCH   1  21
TORSDOF 6
ENDMDL
MODEL 8
REMARK VINA RESULT:      -7.5      2.148      3.468
REMARK  Name = 
REMARK  8 active torsions:
REMARK  status: ('A' for Active; 'I' for Inactive)
REMARK    1  A    between atoms: C_1  and  C_2
REMARK    2  A    between atoms: C_2  and  C_3
REMARK    3  A    between atoms: C_2  and  O_4
REMARK    4  A    between atoms: O_4  and  C_5
REMARK    5  A    between atoms: C_5  and  C_6
REMARK    6  A    between atoms: C_6  and  C_7
REMARK    7  A    between atoms: C_7  and  N_8
REMARK    8  A    between atoms: C_18  and  C_19
REMARK                            x       y       z     vdW  Elec       q    Type
REMARK                         _______ _______ _______ _____ _____    ______ ____
ROOT
ATOM      1  N   UNL     1       4.124   4.951  17.011  0.00  0.00    +0.000 N 
ATOM      2  C   UNL     1       3.762   3.754  17.615  0.00  0.00    +0.000 A 
ATOM      3  O   UNL     1       4.175   2.658  17.247  0.00  0.00    +0.000 OA
ATOM      4  C   UNL     1       2.819   3.816  18.766  0.00  0.00    +0.000 A 
ATOM      5  C   UNL     1       2.522   2.619  19.438  0.00  0.00    +0.000 A 
ATOM      6  C   UNL     1       1.651   2.623  20.523  0.00  0.00    +0.000 A 
ATOM      7  C   UNL     1       1.017   3.805  20.885  0.00  0.00    +0.000 A 
ATOM      8  C   UNL     1       1.272   4.989  20.186  0.00  0.00    +0.000 A 
ATOM      9  C   UNL     1       2.234   5.024  19.176  0.00  0.00    +0.000 A 
ATOM     10  N   UNL     1       2.687   6.208  18.539  0.00  0.00    +0.000 N 
ATOM     11  C   UNL     1       2.472   7.575  18.728  0.00  0.00    +0.000 A 
ATOM     12  N   UNL     1       3.141   8.227  17.786  0.00  0.00    +0.000 NA
ATOM     13  N   UNL     1       3.833   7.338  17.027  0.00  0.00    +0.000 NA
ATOM     14  C   UNL     1       3.588   6.136  17.489  0.00  0.00    +0.000 A 
ENDROOT
BRANCH  11  15
ATOM     15  C   UNL     1       1.649   8.288  19.705  0.00  0.00    +0.000 A 
ATOM     16  C   UNL     1       0.670   9.230  19.360  0.00  0.00    +0.000 A 
ATOM     17  C   UNL     1       0.016   9.971  20.347  0.00  0.00    +0.000 A 
ATOM     18  C   UNL     1       0.224   9.688  21.697  0.00  0.00    +0.000 A 
ATOM     19  C   UNL     1       1.079   8.649  22.052  0.00  0.00    +0.000 A 
ATOM     20  C   UNL     1       1.787   7.962  21.069  0.00  0.00    +0.000 A 
ENDBRANCH  11  15
BRANCH   1  21
ATOM     21  C   UNL     1       5.097   4.944  15.917  0.00  0.00    +0.000 C 
BRANCH  21  22
ATOM     22  C   UNL     1       6.214   3.926  16.156  0.00  0.00    +0.000 C 
BRANCH  22  23
ATOM     23  C   UNL     1       7.438   4.571  16.789  0.00  0.00    +0.000 C 
BRANCH  23  24
ATOM     24  O   UNL     1       7.334   4.465  18.205  0.00  0.00    +0.000 OA
BRANCH  24  26
ATOM     25  C   UNL     1       8.225   5.671  20.047  0.00  0.00    +0.000 C 
ATOM     26  C   UNL     1       7.236   5.719  18.886  0.00  0.00    +0.000 C 
ATOM     27  C   UNL     1       7.571   6.884  17.959  0.00  0.00    +0.000 C 
ENDBRANCH  24  26
ENDBRANCH  23  24
ENDBRANCH  22  23
ENDBRANCH  21  22
ENDBRANCH   1  21
TORSDOF 6
ENDMDL
MODEL 9
REMARK VINA RESULT:      -7.5      0.691      1.247
REMARK  Name = 
REMARK  8 active torsions:
REMARK  status: ('A' for Active; 'I' for Inactive)
REMARK    1  A    between atoms: C_1  and  C_2
REMARK    2  A    between atoms: C_2  and  C_3
REMARK    3  A    between atoms: C_2  and  O_4
REMARK    4  A    between atoms: O_4  and  C_5
REMARK    5  A    between atoms: C_5  and  C_6
REMARK    6  A    between atoms: C_6  and  C_7
REMARK    7  A    between atoms: C_7  and  N_8
REMARK    8  A    between atoms: C_18  and  C_19
REMARK                            x       y       z     vdW  Elec       q    Type
REMARK                         _______ _______ _______ _____ _____    ______ ____
ROOT
ATOM      1  N   UNL     1       4.560   4.327  17.257  0.00  0.00    +0.000 N 
ATOM      2  C   UNL     1       4.001   3.219  17.881  0.00  0.00    +0.000 A 
ATOM      3  O   UNL     1       4.376   2.068  17.678  0.00  0.00    +0.000 OA
ATOM      4  C   UNL     1       2.886   3.453  18.839  0.00  0.00    +0.000 A 
ATOM      5  C   UNL     1       2.379   2.346  19.541  0.00  0.00    +0.000 A 
ATOM      6  C   UNL     1       1.341   2.512  20.453  0.00  0.00    +0.000 A 
ATOM      7  C   UNL     1       0.757   3.763  20.603  0.00  0.00    +0.000 A 
ATOM      8  C   UNL     1       1.226   4.857  19.869  0.00  0.00    +0.000 A 
ATOM      9  C   UNL     1       2.344   4.731  19.044  0.00  0.00    +0.000 A 
ATOM     10  N   UNL     1       2.997   5.817  18.406  0.00  0.00    +0.000 N 
ATOM     11  C   UNL     1       2.869   7.208  18.445  0.00  0.00    +0.000 A 
ATOM     12  N   UNL     1       3.741   7.722  17.587  0.00  0.00    +0.000 NA
ATOM     13  N   UNL     1       4.474   6.720  17.034  0.00  0.00    +0.000 NA
ATOM     14  C   UNL     1       4.053   5.586  17.539  0.00  0.00    +0.000 A 
ENDROOT
BRANCH  11  15
ATOM     15  C   UNL     1       1.956   8.063  19.203  0.00  0.00    +0.000 A 
ATOM     16  C   UNL     1       1.162   9.062  18.623  0.00  0.00    +0.000 A 
ATOM     17  C   UNL     1       0.415   9.931  19.422  0.00  0.00    +0.000 A 
ATOM     18  C   UNL     1       0.336   9.731  20.800  0.00  0.00    +0.000 A 
ATOM     19  C   UNL     1       0.997   8.648  21.371  0.00  0.00    +0.000 A 
ATOM     20  C   UNL     1       1.802   7.828  20.584  0.00  0.00    +0.000 A 
ENDBRANCH  11  15
BRANCH   1  21
ATOM     21  C   UNL     1       5.700   4.151  16.355  0.00  0.00    +0.000 C 
BRANCH  21  22
ATOM     22  C   UNL     1       5.375   4.610  14.933  0.00  0.00    +0.000 C 
BRANCH  22  23
ATOM     23  C   UNL     1       6.525   4.333  13.975  0.00  0.00    +0.000 C 
BRANCH  23  24
ATOM     24  O   UNL     1       6.260   3.122  13.276  0.00  0.00    +0.000 OA
BRANCH  24  26
ATOM     25  C   UNL     1       7.334   4.391  11.579  0.00  0.00    +0.000 C 
ATOM     26  C   UNL     1       6.398   3.217  11.855  0.00  0.00    +0.000 C 
ATOM     27  C   UNL     1       6.977   1.935  11.264  0.00  0.00    +0.000 C 
ENDBRANCH  24  26
ENDBRANCH  23  24
ENDBRANCH  22  23
ENDBRANCH  21  22
ENDBRANCH   1  21
TORSDOF 6
ENDMDL
