MODEL 1
REMARK VINA RESULT:      -6.9      0.000      0.000
REMARK  Name = 
REMARK  4 active torsions:
REMARK  status: ('A' for Active; 'I' for Inactive)
REMARK    1  A    between atoms: N_1  and  C_2
REMARK    2  A    between atoms: C_5  and  N_6
REMARK    3  A    between atoms: N_6  and  S_7
REMARK    4  A    between atoms: S_7  and  C_10
REMARK                            x       y       z     vdW  Elec       q    Type
REMARK                         _______ _______ _______ _____ _____    ______ ____
ROOT
ATOM      1  N   UNL     1       4.474   6.118  17.979  0.00  0.00    +0.000 N 
ATOM      2  H   UNL     1       4.454   7.136  17.960  0.00  0.00    +0.000 HD
ENDROOT
BRANCH   1   6
ATOM      3  C   UNL     1       1.316   3.979  19.781  0.00  0.00    +0.000 A 
ATOM      4  C   UNL     1       1.539   3.880  18.405  0.00  0.00    +0.000 A 
ATOM      5  C   UNL     1       2.562   4.609  17.790  0.00  0.00    +0.000 A 
ATOM      6  C   UNL     1       3.393   5.415  18.564  0.00  0.00    +0.000 A 
ATOM      7  C   UNL     1       3.222   5.477  19.943  0.00  0.00    +0.000 A 
ATOM      8  C   UNL     1       2.198   4.747  20.549  0.00  0.00    +0.000 A 
BRANCH   3   9
ATOM      9  N   UNL     1       0.391   3.140  20.410  0.00  0.00    +0.000 N 
ATOM     10  H   UNL     1      -0.570   3.459  20.343  0.00  0.00    +0.000 HD
ATOM     11  H   UNL     1       0.643   2.884  21.360  0.00  0.00    +0.000 HD
ENDBRANCH   3   9
ENDBRANCH   1   6
BRANCH   1  12
ATOM     12  S   UNL     1       6.007   5.438  17.958  0.00  0.00    +0.000 S 
ATOM     13  O   UNL     1       6.931   6.529  18.187  0.00  0.00    +0.000 OA
ATOM     14  O   UNL     1       6.034   4.251  18.784  0.00  0.00    +0.000 OA
BRANCH  12  15
ATOM     15  C   UNL     1       6.177   4.947  16.256  0.00  0.00    +0.000 A 
ATOM     16  C   UNL     1       7.295   5.363  15.526  0.00  0.00    +0.000 A 
ATOM     17  C   UNL     1       7.436   4.960  14.196  0.00  0.00    +0.000 A 
ATOM     18  C   UNL     1       6.468   4.141  13.612  0.00  0.00    +0.000 A 
ATOM     19 CL   UNL     1       6.644   3.648  11.973  0.00  0.00    +0.000 Cl
ATOM     20  C   UNL     1       5.360   3.716  14.347  0.00  0.00    +0.000 A 
ATOM     21  C   UNL     1       5.214   4.113  15.678  0.00  0.00    +0.000 A 
ENDBRANCH  12  15
ENDBRANCH   1  12
TORSDOF 4
ENDMDL
MODEL 2
REMARK VINA RESULT:      -6.9      0.212      1.149
REMARK  Name = 
REMARK  4 active torsions:
REMARK  status: ('A' for Active; 'I' for Inactive)
REMARK    1  A    between atoms: N_1  and  C_2
REMARK    2  A    between atoms: C_5  and  N_6
REMARK    3  A    between atoms: N_6  and  S_7
REMARK    4  A    between atoms: S_7  and  C_10
REMARK                            x       y       z     vdW  Elec       q    Type
REMARK                         _______ _______ _______ _____ _____    ______ ____
ROOT
ATOM      1  N   UNL     1       4.596   6.074  18.136  0.00  0.00    +0.000 N 
ATOM      2  H   UNL     1       4.617   7.090  18.191  0.00  0.00    +0.000 HD
ENDROOT
BRANCH   1   6
ATOM      3  C   UNL     1       1.290   3.949  19.671  0.00  0.00    +0.000 A 
ATOM      4  C   UNL     1       1.613   3.867  18.313  0.00  0.00    +0.000 A 
ATOM      5  C   UNL     1       2.686   4.592  17.786  0.00  0.00    +0.000 A 
ATOM      6  C   UNL     1       3.467   5.376  18.631  0.00  0.00    +0.000 A 
ATOM      7  C   UNL     1       3.197   5.421  19.994  0.00  0.00    +0.000 A 
ATOM      8  C   UNL     1       2.122   4.695  20.512  0.00  0.00    +0.000 A 
BRANCH   3   9
ATOM      9  N   UNL     1       0.312   3.113  20.218  0.00  0.00    +0.000 N 
ATOM     10  H   UNL     1       0.391   2.986  21.222  0.00  0.00    +0.000 HD
ATOM     11  H   UNL     1       0.201   2.231  19.729  0.00  0.00    +0.000 HD
ENDBRANCH   3   9
ENDBRANCH   1   6
BRANCH   1  12
ATOM     12  S   UNL     1       6.101   5.334  18.120  0.00  0.00    +0.000 S 
ATOM     13  O   UNL     1       7.067   6.388  18.350  0.00  0.00    +0.000 OA
ATOM     14  O   UNL     1       6.079   4.147  18.946  0.00  0.00    +0.000 OA
BRANCH  12  15
ATOM     15  C   UNL     1       6.256   4.836  16.418  0.00  0.00    +0.000 A 
ATOM     16  C   UNL     1       5.427   3.826  15.916  0.00  0.00    +0.000 A 
ATOM     17  C   UNL     1       5.537   3.451  14.575  0.00  0.00    +0.000 A 
ATOM     18  C   UNL     1       6.463   4.089  13.749  0.00  0.00    +0.000 A 
ATOM     19 CL   UNL     1       6.597   3.623  12.099  0.00  0.00    +0.000 Cl
ATOM     20  C   UNL     1       7.279   5.105  14.249  0.00  0.00    +0.000 A 
ATOM     21  C   UNL     1       7.173   5.487  15.588  0.00  0.00    +0.000 A 
ENDBRANCH  12  15
ENDBRANCH   1  12
TORSDOF 4
ENDMDL
MODEL 3
REMARK VINA RESULT:      -6.8      3.804      6.245
REMARK  Name = 
REMARK  4 active torsions:
REMARK  status: ('A' for Active; 'I' for Inactive)
REMARK    1  A    between atoms: N_1  and  C_2
REMARK    2  A    between atoms: C_5  and  N_6
REMARK    3  A    between atoms: N_6  and  S_7
REMARK    4  A    between atoms: S_7  and  C_10
REMARK                            x       y       z     vdW  Elec       q    Type
REMARK                         _______ _______ _______ _____ _____    ______ ____
ROOT
ATOM      1  N   UNL     1       4.331   2.839  18.084  0.00  0.00    +0.000 N 
ATOM      2  H   UNL     1       4.708   2.129  18.709  0.00  0.00    +0.000 HD
ENDROOT
BRANCH   1   6
ATOM      3  C   UNL     1       6.737   6.152  17.070  0.00  0.00    +0.000 A 
ATOM      4  C   UNL     1       6.609   5.756  18.405  0.00  0.00    +0.000 A 
ATOM      5  C   UNL     1       5.788   4.680  18.757  0.00  0.00    +0.000 A 
ATOM      6  C   UNL     1       5.120   3.970  17.763  0.00  0.00    +0.000 A 
ATOM      7  C   UNL     1       5.286   4.313  16.426  0.00  0.00    +0.000 A 
ATOM      8  C   UNL     1       6.105   5.390  16.082  0.00  0.00    +0.000 A 
BRANCH   3   9
ATOM      9  N   UNL     1       7.668   7.131  16.709  0.00  0.00    +0.000 N 
ATOM     10  H   UNL     1       8.401   6.797  16.092  0.00  0.00    +0.000 HD
ATOM     11  H   UNL     1       8.039   7.659  17.492  0.00  0.00    +0.000 HD
ENDBRANCH   3   9
ENDBRANCH   1   6
BRANCH   1  12
ATOM     12  S   UNL     1       2.657   2.949  18.066  0.00  0.00    +0.000 S 
ATOM     13  O   UNL     1       2.281   3.103  16.676  0.00  0.00    +0.000 OA
ATOM     14  O   UNL     1       2.082   1.904  18.884  0.00  0.00    +0.000 OA
BRANCH  12  15
ATOM     15  C   UNL     1       2.376   4.514  18.866  0.00  0.00    +0.000 A 
ATOM     16  C   UNL     1       2.413   5.692  18.113  0.00  0.00    +0.000 A 
ATOM     17  C   UNL     1       2.172   6.917  18.741  0.00  0.00    +0.000 A 
ATOM     18  C   UNL     1       1.888   6.953  20.107  0.00  0.00    +0.000 A 
ATOM     19 CL   UNL     1       1.594   8.463  20.876  0.00  0.00    +0.000 Cl
ATOM     20  C   UNL     1       1.838   5.775  20.853  0.00  0.00    +0.000 A 
ATOM     21  C   UNL     1       2.076   4.547  20.232  0.00  0.00    +0.000 A 
ENDBRANCH  12  15
ENDBRANCH   1  12
TORSDOF 4
ENDMDL
MODEL 4
REMARK VINA RESULT:      -6.8      3.802      6.298
REMARK  Name = 
REMARK  4 active torsions:
REMARK  status: ('A' for Active; 'I' for Inactive)
REMARK    1  A    between atoms: N_1  and  C_2
REMARK    2  A    between atoms: C_5  and  N_6
REMARK    3  A    between atoms: N_6  and  S_7
REMARK    4  A    between atoms: S_7  and  C_10
REMARK                            x       y       z     vdW  Elec       q    Type
REMARK                         _______ _______ _______ _____ _____    ______ ____
ROOT
ATOM      1  N   UNL     1       4.314   2.853  18.153  0.00  0.00    +0.000 N 
ATOM      2  H   UNL     1       4.672   2.176  18.824  0.00  0.00    +0.000 HD
ENDROOT
BRANCH   1   6
ATOM      3  C   UNL     1       6.738   6.127  17.057  0.00  0.00    +0.000 A 
ATOM      4  C   UNL     1       6.616   5.758  18.400  0.00  0.00    +0.000 A 
ATOM      5  C   UNL     1       5.790   4.695  18.779  0.00  0.00    +0.000 A 
ATOM      6  C   UNL     1       5.110   3.971  17.804  0.00  0.00    +0.000 A 
ATOM      7  C   UNL     1       5.268   4.287  16.459  0.00  0.00    +0.000 A 
ATOM      8  C   UNL     1       6.093   5.350  16.088  0.00  0.00    +0.000 A 
BRANCH   3   9
ATOM      9  N   UNL     1       7.674   7.090  16.670  0.00  0.00    +0.000 N 
ATOM     10  H   UNL     1       7.335   7.736  15.963  0.00  0.00    +0.000 HD
ATOM     11  H   UNL     1       8.586   6.712  16.436  0.00  0.00    +0.000 HD
ENDBRANCH   3   9
ENDBRANCH   1   6
BRANCH   1  12
ATOM     12  S   UNL     1       2.642   2.953  18.071  0.00  0.00    +0.000 S 
ATOM     13  O   UNL     1       2.318   3.112  16.669  0.00  0.00    +0.000 OA
ATOM     14  O   UNL     1       2.043   1.900  18.862  0.00  0.00    +0.000 OA
BRANCH  12  15
ATOM     15  C   UNL     1       2.320   4.511  18.869  0.00  0.00    +0.000 A 
ATOM     16  C   UNL     1       2.057   4.542  20.243  0.00  0.00    +0.000 A 
ATOM     17  C   UNL     1       1.824   5.769  20.870  0.00  0.00    +0.000 A 
ATOM     18  C   UNL     1       1.865   6.948  20.126  0.00  0.00    +0.000 A 
ATOM     19 CL   UNL     1       1.575   8.456  20.901  0.00  0.00    +0.000 Cl
ATOM     20  C   UNL     1       2.141   6.915  18.758  0.00  0.00    +0.000 A 
ATOM     21  C   UNL     1       2.377   5.693  18.125  0.00  0.00    +0.000 A 
ENDBRANCH  12  15
ENDBRANCH   1  12
TORSDOF 4
ENDMDL
MODEL 5
REMARK VINA RESULT:      -6.8      0.179      1.149
REMARK  Name = 
REMARK  4 active torsions:
REMARK  status: ('A' for Active; 'I' for Inactive)
REMARK    1  A    between atoms: N_1  and  C_2
REMARK    2  A    between atoms: C_5  and  N_6
REMARK    3  A    between atoms: N_6  and  S_7
REMARK    4  A    between atoms: S_7  and  C_10
REMARK                            x       y       z     vdW  Elec       q    Type
REMARK                         _______ _______ _______ _____ _____    ______ ____
ROOT
ATOM      1  N   UNL     1       4.566   6.073  18.013  0.00  0.00    +0.000 N 
ATOM      2  H   UNL     1       4.490   7.088  18.028  0.00  0.00    +0.000 HD
ENDROOT
BRANCH   1   6
ATOM      3  C   UNL     1       1.443   3.789  19.694  0.00  0.00    +0.000 A 
ATOM      4  C   UNL     1       2.217   4.627  20.501  0.00  0.00    +0.000 A 
ATOM      5  C   UNL     1       3.277   5.364  19.962  0.00  0.00    +0.000 A 
ATOM      6  C   UNL     1       3.539   5.292  18.597  0.00  0.00    +0.000 A 
ATOM      7  C   UNL     1       2.740   4.510  17.770  0.00  0.00    +0.000 A 
ATOM      8  C   UNL     1       1.685   3.776  18.316  0.00  0.00    +0.000 A 
BRANCH   3   9
ATOM      9  N   UNL     1       0.299   3.170  20.207  0.00  0.00    +0.000 N 
ATOM     10  H   UNL     1      -0.196   2.592  19.535  0.00  0.00    +0.000 HD
ATOM     11  H   UNL     1      -0.325   3.799  20.704  0.00  0.00    +0.000 HD
ENDBRANCH   3   9
ENDBRANCH   1   6
BRANCH   1  12
ATOM     12  S   UNL     1       6.134   5.481  17.941  0.00  0.00    +0.000 S 
ATOM     13  O   UNL     1       7.002   6.630  18.095  0.00  0.00    +0.000 OA
ATOM     14  O   UNL     1       6.267   4.323  18.797  0.00  0.00    +0.000 OA
BRANCH  12  15
ATOM     15  C   UNL     1       6.256   4.949  16.247  0.00  0.00    +0.000 A 
ATOM     16  C   UNL     1       7.248   5.491  15.422  0.00  0.00    +0.000 A 
ATOM     17  C   UNL     1       7.354   5.057  14.099  0.00  0.00    +0.000 A 
ATOM     18  C   UNL     1       6.479   4.083  13.615  0.00  0.00    +0.000 A 
ATOM     19 CL   UNL     1       6.612   3.553  11.984  0.00  0.00    +0.000 Cl
ATOM     20  C   UNL     1       5.499   3.534  14.444  0.00  0.00    +0.000 A 
ATOM     21  C   UNL     1       5.389   3.962  15.768  0.00  0.00    +0.000 A 
ENDBRANCH  12  15
ENDBRANCH   1  12
TORSDOF 4
ENDMDL
MODEL 6
REMARK VINA RESULT:      -6.7      3.806      6.132
REMARK  Name = 
REMARK  4 active torsions:
REMARK  status: ('A' for Active; 'I' for Inactive)
REMARK    1  A    between atoms: N_1  and  C_2
REMARK    2  A    between atoms: C_5  and  N_6
REMARK    3  A    between atoms: N_6  and  S_7
REMARK    4  A    between atoms: S_7  and  C_10
REMARK                            x       y       z     vdW  Elec       q    Type
REMARK                         _______ _______ _______ _____ _____    ______ ____
ROOT
ATOM      1  N   UNL     1       4.320   2.871  18.138  0.00  0.00    +0.000 N 
ATOM      2  H   UNL     1       4.640   2.188  18.822  0.00  0.00    +0.000 HD
ENDROOT
BRANCH   1   6
ATOM      3  C   UNL     1       6.780   6.161  17.178  0.00  0.00    +0.000 A 
ATOM      4  C   UNL     1       6.078   5.488  16.173  0.00  0.00    +0.000 A 
ATOM      5  C   UNL     1       5.285   4.376  16.474  0.00  0.00    +0.000 A 
ATOM      6  C   UNL     1       5.163   3.956  17.796  0.00  0.00    +0.000 A 
ATOM      7  C   UNL     1       5.806   4.652  18.814  0.00  0.00    +0.000 A 
ATOM      8  C   UNL     1       6.597   5.760  18.505  0.00  0.00    +0.000 A 
BRANCH   3   9
ATOM      9  N   UNL     1       7.451   7.354  16.895  0.00  0.00    +0.000 N 
ATOM     10  H   UNL     1       8.131   7.279  16.145  0.00  0.00    +0.000 HD
ATOM     11  H   UNL     1       7.834   7.818  17.712  0.00  0.00    +0.000 HD
ENDBRANCH   3   9
ENDBRANCH   1   6
BRANCH   1  12
ATOM     12  S   UNL     1       2.654   3.031  18.022  0.00  0.00    +0.000 S 
ATOM     13  O   UNL     1       2.368   3.234  16.618  0.00  0.00    +0.000 OA
ATOM     14  O   UNL     1       2.002   1.980  18.773  0.00  0.00    +0.000 OA
BRANCH  12  15
ATOM     15  C   UNL     1       2.367   4.579  18.851  0.00  0.00    +0.000 A 
ATOM     16  C   UNL     1       2.448   5.775  18.129  0.00  0.00    +0.000 A 
ATOM     17  C   UNL     1       2.203   6.987  18.778  0.00  0.00    +0.000 A 
ATOM     18  C   UNL     1       1.872   6.995  20.134  0.00  0.00    +0.000 A 
ATOM     19 CL   UNL     1       1.573   8.491  20.930  0.00  0.00    +0.000 Cl
ATOM     20  C   UNL     1       1.779   5.800  20.849  0.00  0.00    +0.000 A 
ATOM     21  C   UNL     1       2.021   4.584  20.206  0.00  0.00    +0.000 A 
ENDBRANCH  12  15
ENDBRANCH   1  12
TORSDOF 4
ENDMDL
MODEL 7
REMARK VINA RESULT:      -6.7      1.938      2.346
REMARK  Name = 
REMARK  4 active torsions:
REMARK  status: ('A' for Active; 'I' for Inactive)
REMARK    1  A    between atoms: N_1  and  C_2
REMARK    2  A    between atoms: C_5  and  N_6
REMARK    3  A    between atoms: N_6  and  S_7
REMARK    4  A    between atoms: S_7  and  C_10
REMARK                            x       y       z     vdW  Elec       q    Type
REMARK                         _______ _______ _______ _____ _____    ______ ____
ROOT
ATOM      1  N   UNL     1       5.454   3.526  19.520  0.00  0.00    +0.000 N 
ATOM      2  H   UNL     1       6.251   2.896  19.449  0.00  0.00    +0.000 HD
ENDROOT
BRANCH   1   6
ATOM      3  C   UNL     1       1.550   2.077  18.847  0.00  0.00    +0.000 A 
ATOM      4  C   UNL     1       1.937   2.494  20.124  0.00  0.00    +0.000 A 
ATOM      5  C   UNL     1       3.238   2.946  20.367  0.00  0.00    +0.000 A 
ATOM      6  C   UNL     1       4.149   3.017  19.316  0.00  0.00    +0.000 A 
ATOM      7  C   UNL     1       3.762   2.663  18.029  0.00  0.00    +0.000 A 
ATOM      8  C   UNL     1       2.461   2.211  17.794  0.00  0.00    +0.000 A 
BRANCH   3   9
ATOM      9  N   UNL     1       0.214   1.766  18.578  0.00  0.00    +0.000 N 
ATOM     10  H   UNL     1      -0.430   2.035  19.315  0.00  0.00    +0.000 HD
ATOM     11  H   UNL     1       0.064   0.811  18.270  0.00  0.00    +0.000 HD
ENDBRANCH   3   9
ENDBRANCH   1   6
BRANCH   1  12
ATOM     12  S   UNL     1       5.791   5.135  19.188  0.00  0.00    +0.000 S 
ATOM     13  O   UNL     1       4.548   5.852  19.382  0.00  0.00    +0.000 OA
ATOM     14  O   UNL     1       7.000   5.539  19.870  0.00  0.00    +0.000 OA
BRANCH  12  15
ATOM     15  C   UNL     1       6.113   5.098  17.439  0.00  0.00    +0.000 A 
ATOM     16  C   UNL     1       7.284   4.495  16.965  0.00  0.00    +0.000 A 
ATOM     17  C   UNL     1       7.525   4.450  15.589  0.00  0.00    +0.000 A 
ATOM     18  C   UNL     1       6.596   4.996  14.703  0.00  0.00    +0.000 A 
ATOM     19 CL   UNL     1       6.898   4.940  13.010  0.00  0.00    +0.000 Cl
ATOM     20  C   UNL     1       5.422   5.584  15.178  0.00  0.00    +0.000 A 
ATOM     21  C   UNL     1       5.174   5.631  16.551  0.00  0.00    +0.000 A 
ENDBRANCH  12  15
ENDBRANCH   1  12
TORSDOF 4
ENDMDL
MODEL 8
REMARK VINA RESULT:      -6.7      2.135      2.900
REMARK  Name = 
REMARK  4 active torsions:
REMARK  status: ('A' for Active; 'I' for Inactive)
REMARK    1  A    between atoms: N_1  and  C_2
REMARK    2  A    between atoms: C_5  and  N_6
REMARK    3  A    between atoms: N_6  and  S_7
REMARK    4  A    between atoms: S_7  and  C_10
REMARK                            x       y       z     vdW  Elec       q    Type
REMARK                         _______ _______ _______ _____ _____    ______ ____
ROOT
ATOM      1  N   UNL     1       3.359   4.684  18.812  0.00  0.00    +0.000 N 
ATOM      2  H   UNL     1       2.887   4.048  18.171  0.00  0.00    +0.000 HD
ENDROOT
BRANCH   1   6
ATOM      3  C   UNL     1       1.759   8.548  19.358  0.00  0.00    +0.000 A 
ATOM      4  C   UNL     1       2.351   8.196  18.142  0.00  0.00    +0.000 A 
ATOM      5  C   UNL     1       2.914   6.928  17.959  0.00  0.00    +0.000 A 
ATOM      6  C   UNL     1       2.851   5.993  18.989  0.00  0.00    +0.000 A 
ATOM      7  C   UNL     1       2.212   6.309  20.183  0.00  0.00    +0.000 A 
ATOM      8  C   UNL     1       1.654   7.576  20.358  0.00  0.00    +0.000 A 
BRANCH   3   9
ATOM      9  N   UNL     1       1.071   9.759  19.486  0.00  0.00    +0.000 N 
ATOM     10  H   UNL     1       1.633  10.579  19.280  0.00  0.00    +0.000 HD
ATOM     11  H   UNL     1       0.560   9.855  20.358  0.00  0.00    +0.000 HD
ENDBRANCH   3   9
ENDBRANCH   1   6
BRANCH   1  12
ATOM     12  S   UNL     1       4.992   4.378  19.038  0.00  0.00    +0.000 S 
ATOM     13  O   UNL     1       5.524   5.532  19.730  0.00  0.00    +0.000 OA
ATOM     14  O   UNL     1       5.179   3.042  19.560  0.00  0.00    +0.000 OA
BRANCH  12  15
ATOM     15  C   UNL     1       5.616   4.426  17.372  0.00  0.00    +0.000 A 
ATOM     16  C   UNL     1       4.750   4.173  16.302  0.00  0.00    +0.000 A 
ATOM     17  C   UNL     1       5.239   4.231  14.994  0.00  0.00    +0.000 A 
ATOM     18  C   UNL     1       6.579   4.548  14.767  0.00  0.00    +0.000 A 
ATOM     19 CL   UNL     1       7.177   4.616  13.155  0.00  0.00    +0.000 Cl
ATOM     20  C   UNL     1       7.437   4.813  15.835  0.00  0.00    +0.000 A 
ATOM     21  C   UNL     1       6.956   4.759  17.145  0.00  0.00    +0.000 A 
ENDBRANCH  12  15
ENDBRANCH   1  12
TORSDOF 4
ENDMDL
MODEL 9
REMARK VINA RESULT:      -6.7      3.791      6.170
REMARK  Name = 
REMARK  4 active torsions:
REMARK  status: ('A' for Active; 'I' for Inactive)
REMARK    1  A    between atoms: N_1  and  C_2
REMARK    2  A    between atoms: C_5  and  N_6
REMARK    3  A    between atoms: N_6  and  S_7
REMARK    4  A    between atoms: S_7  and  C_10
REMARK                            x       y       z     vdW  Elec       q    Type
REMARK                         _______ _______ _______ _____ _____    ______ ____
ROOT
ATOM      1  N   UNL     1       4.301   2.893  18.200  0.00  0.00    +0.000 N 
ATOM      2  H   UNL     1       4.597   2.235  18.919  0.00  0.00    +0.000 HD
ENDROOT
BRANCH   1   6
ATOM      3  C   UNL     1       6.807   6.133  17.191  0.00  0.00    +0.000 A 
ATOM      4  C   UNL     1       6.109   5.444  16.195  0.00  0.00    +0.000 A 
ATOM      5  C   UNL     1       5.301   4.348  16.513  0.00  0.00    +0.000 A 
ATOM      6  C   UNL     1       5.159   3.961  17.843  0.00  0.00    +0.000 A 
ATOM      7  C   UNL     1       5.798   4.673  18.851  0.00  0.00    +0.000 A 
ATOM      8  C   UNL     1       6.604   5.766  18.526  0.00  0.00    +0.000 A 
BRANCH   3   9
ATOM      9  N   UNL     1       7.493   7.313  16.888  0.00  0.00    +0.000 N 
ATOM     10  H   UNL     1       8.493   7.189  16.762  0.00  0.00    +0.000 HD
ATOM     11  H   UNL     1       7.279   8.088  17.507  0.00  0.00    +0.000 HD
ENDBRANCH   3   9
ENDBRANCH   1   6
BRANCH   1  12
ATOM     12  S   UNL     1       2.641   3.054  18.029  0.00  0.00    +0.000 S 
ATOM     13  O   UNL     1       2.401   3.241  16.613  0.00  0.00    +0.000 OA
ATOM     14  O   UNL     1       1.962   2.014  18.770  0.00  0.00    +0.000 OA
BRANCH  12  15
ATOM     15  C   UNL     1       2.330   4.613  18.829  0.00  0.00    +0.000 A 
ATOM     16  C   UNL     1       2.031   4.641  20.195  0.00  0.00    +0.000 A 
ATOM     17  C   UNL     1       1.807   5.868  20.825  0.00  0.00    +0.000 A 
ATOM     18  C   UNL     1       1.893   7.051  20.090  0.00  0.00    +0.000 A 
ATOM     19 CL   UNL     1       1.615   8.559  20.869  0.00  0.00    +0.000 Cl
ATOM     20  C   UNL     1       2.206   7.022  18.730  0.00  0.00    +0.000 A 
ATOM     21  C   UNL     1       2.433   5.799  18.095  0.00  0.00    +0.000 A 
ENDBRANCH  12  15
ENDBRANCH   1  12
TORSDOF 4
ENDMDL
