MODEL 1
REMARK VINA RESULT:      -8.7      0.000      0.000
REMARK  Name = 
REMARK  7 active torsions:
REMARK  status: ('A' for Active; 'I' for Inactive)
REMARK    1  A    between atoms: C_1  and  C_2
REMARK    2  A    between atoms: C_2  and  N_3
REMARK    3  A    between atoms: C_7  and  C_8
REMARK    4  A    between atoms: C_8  and  O_9
REMARK    5  A    between atoms: O_9  and  C_10
REMARK    6  A    between atoms: C_15  and  C_16
REMARK    7  A    between atoms: N_25  and  C_26
REMARK                            x       y       z     vdW  Elec       q    Type
REMARK                         _______ _______ _______ _____ _____    ______ ____
ROOT
ATOM      1  N   UNL     1      -1.910  12.675  22.140  0.00  0.00    +0.000 N 
ATOM      2  C   UNL     1      -1.118  11.515  22.027  0.00  0.00    +0.000 A 
ATOM      3  N   UNL     1      -0.792  10.770  23.116  0.00  0.00    +0.000 NA
ATOM      4  C   UNL     1      -0.029   9.658  22.932  0.00  0.00    +0.000 A 
ATOM      5  C   UNL     1       0.506   9.265  21.711  0.00  0.00    +0.000 A 
ATOM      6  C   UNL     1       0.182  10.046  20.609  0.00  0.00    +0.000 A 
ATOM      7  C   UNL     1      -0.653  11.153  20.777  0.00  0.00    +0.000 A 
ATOM      8  C   UNL     1      -1.016  11.919  19.590  0.00  0.00    +0.000 C 
ATOM      9  O   UNL     1      -0.115  12.221  18.810  0.00  0.00    +0.000 OA
ATOM     10  N   UNL     1      -2.372  11.975  19.285  0.00  0.00    +0.000 N 
ATOM     11  C   UNL     1      -2.686  11.695  17.895  0.00  0.00    +0.000 C 
ATOM     12  C   UNL     1      -3.417  12.334  20.216  0.00  0.00    +0.000 A 
ATOM     13  C   UNL     1      -4.744  12.394  19.751  0.00  0.00    +0.000 A 
ATOM     14  C   UNL     1      -5.778  12.839  20.567  0.00  0.00    +0.000 A 
ATOM     15  C   UNL     1      -5.444  13.233  21.847  0.00  0.00    +0.000 A 
ATOM     16 CL   UNL     1      -6.648  13.804  22.924  0.00  0.00    +0.000 Cl
ATOM     17  N   UNL     1      -4.197  13.202  22.343  0.00  0.00    +0.000 NA
ATOM     18  C   UNL     1      -3.187  12.745  21.561  0.00  0.00    +0.000 A 
ENDROOT
BRANCH   1  20
ATOM     19  C   UNL     1      -0.670  14.602  22.999  0.00  0.00    +0.000 C 
ATOM     20  C   UNL     1      -1.661  13.484  23.338  0.00  0.00    +0.000 C 
ENDBRANCH   1  20
BRANCH   5  21
ATOM     21  C   UNL     1       1.388   8.060  21.566  0.00  0.00    +0.000 C 
BRANCH  21  22
ATOM     22  O   UNL     1       1.696   7.862  20.185  0.00  0.00    +0.000 OA
BRANCH  22  23
ATOM     23  C   UNL     1       2.225   6.639  19.868  0.00  0.00    +0.000 A 
ATOM     24  C   UNL     1       3.097   6.606  18.790  0.00  0.00    +0.000 A 
ATOM     25  C   UNL     1       3.663   5.393  18.401  0.00  0.00    +0.000 A 
ATOM     26  N   UNL     1       3.362   4.193  19.038  0.00  0.00    +0.000 N 
ATOM     27  O   UNL     1       3.918   3.135  18.636  0.00  0.00    +0.000 OA
ATOM     28  C   UNL     1       2.464   4.219  20.082  0.00  0.00    +0.000 A 
ATOM     29  C   UNL     1       1.902   5.446  20.504  0.00  0.00    +0.000 A 
BRANCH  28  30
ATOM     30  C   UNL     1       2.064   2.942  20.739  0.00  0.00    +0.000 C 
ATOM     31  F   UNL     1       1.586   1.932  19.976  0.00  0.00    +0.000 F 
ATOM     32  F   UNL     1       3.109   2.408  21.444  0.00  0.00    +0.000 F 
ATOM     33  F   UNL     1       1.100   3.170  21.684  0.00  0.00    +0.000 F 
ENDBRANCH  28  30
ENDBRANCH  22  23
ENDBRANCH  21  22
ENDBRANCH   5  21
TORSDOF 5
ENDMDL
MODEL 2
REMARK VINA RESULT:      -8.6      2.325      3.827
REMARK  Name = 
REMARK  7 active torsions:
REMARK  status: ('A' for Active; 'I' for Inactive)
REMARK    1  A    between atoms: C_1  and  C_2
REMARK    2  A    between atoms: C_2  and  N_3
REMARK    3  A    between atoms: C_7  and  C_8
REMARK    4  A    between atoms: C_8  and  O_9
REMARK    5  A    between atoms: O_9  and  C_10
REMARK    6  A    between atoms: C_15  and  C_16
REMARK    7  A    between atoms: N_25  and  C_26
REMARK                            x       y       z     vdW  Elec       q    Type
REMARK                         _______ _______ _______ _____ _____    ______ ____
ROOT
ATOM      1  N   UNL     1      -1.112  10.884  19.314  0.00  0.00    +0.000 N 
ATOM      2  C   UNL     1       0.043  10.112  19.080  0.00  0.00    +0.000 A 
ATOM      3  N   UNL     1       0.789  10.275  17.956  0.00  0.00    +0.000 NA
ATOM      4  C   UNL     1       1.896   9.499  17.798  0.00  0.00    +0.000 A 
ATOM      5  C   UNL     1       2.282   8.492  18.675  0.00  0.00    +0.000 A 
ATOM      6  C   UNL     1       1.499   8.321  19.809  0.00  0.00    +0.000 A 
ATOM      7  C   UNL     1       0.398   9.155  20.013  0.00  0.00    +0.000 A 
ATOM      8  C   UNL     1      -0.370   8.984  21.241  0.00  0.00    +0.000 C 
ATOM      9  O   UNL     1      -0.679   7.838  21.563  0.00  0.00    +0.000 OA
ATOM     10  N   UNL     1      -0.418  10.081  22.095  0.00  0.00    +0.000 N 
ATOM     11  C   UNL     1      -0.142   9.771  23.486  0.00  0.00    +0.000 C 
ATOM     12  C   UNL     1      -0.768  11.425  21.697  0.00  0.00    +0.000 A 
ATOM     13  C   UNL     1      -0.822  12.429  22.684  0.00  0.00    +0.000 A 
ATOM     14  C   UNL     1      -1.258  13.715  22.385  0.00  0.00    +0.000 A 
ATOM     15  C   UNL     1      -1.650  13.961  21.085  0.00  0.00    +0.000 A 
ATOM     16 CL   UNL     1      -2.210  15.512  20.623  0.00  0.00    +0.000 Cl
ATOM     17  N   UNL     1      -1.624  13.044  20.105  0.00  0.00    +0.000 NA
ATOM     18  C   UNL     1      -1.177  11.793  20.383  0.00  0.00    +0.000 A 
ENDROOT
BRANCH   1  20
ATOM     19  C   UNL     1      -2.746   9.939  17.757  0.00  0.00    +0.000 C 
ATOM     20  C   UNL     1      -1.918  11.175  18.124  0.00  0.00    +0.000 C 
ENDBRANCH   1  20
BRANCH   5  21
ATOM     21  C   UNL     1       3.481   7.624  18.430  0.00  0.00    +0.000 C 
BRANCH  21  22
ATOM     22  O   UNL     1       3.209   6.736  17.344  0.00  0.00    +0.000 OA
BRANCH  22  23
ATOM     23  C   UNL     1       3.187   5.404  17.663  0.00  0.00    +0.000 A 
ATOM     24  C   UNL     1       4.211   4.629  17.139  0.00  0.00    +0.000 A 
ATOM     25  C   UNL     1       4.245   3.262  17.411  0.00  0.00    +0.000 A 
ATOM     26  N   UNL     1       3.265   2.629  18.169  0.00  0.00    +0.000 N 
ATOM     27  O   UNL     1       3.366   1.389  18.379  0.00  0.00    +0.000 OA
ATOM     28  C   UNL     1       2.226   3.390  18.654  0.00  0.00    +0.000 A 
ATOM     29  C   UNL     1       2.192   4.783  18.409  0.00  0.00    +0.000 A 
BRANCH  28  30
ATOM     30  C   UNL     1       1.122   2.732  19.408  0.00  0.00    +0.000 C 
ATOM     31  F   UNL     1       0.298   1.879  18.757  0.00  0.00    +0.000 F 
ATOM     32  F   UNL     1       1.613   2.027  20.474  0.00  0.00    +0.000 F 
ATOM     33  F   UNL     1       0.300   3.670  19.973  0.00  0.00    +0.000 F 
ENDBRANCH  28  30
ENDBRANCH  22  23
ENDBRANCH  21  22
ENDBRANCH   5  21
TORSDOF 5
ENDMDL
MODEL 3
REMARK VINA RESULT:      -8.4      1.943      2.386
REMARK  Name = 
REMARK  7 active torsions:
REMARK  status: ('A' for Active; 'I' for Inactive)
REMARK    1  A    between atoms: C_1  and  C_2
REMARK    2  A    between atoms: C_2  and  N_3
REMARK    3  A    between atoms: C_7  and  C_8
REMARK    4  A    between atoms: C_8  and  O_9
REMARK    5  A    between atoms: O_9  and  C_10
REMARK    6  A    between atoms: C_15  and  C_16
REMARK    7  A    between atoms: N_25  and  C_26
REMARK                            x       y       z     vdW  Elec       q    Type
REMARK                         _______ _______ _______ _____ _____    ______ ____
ROOT
ATOM      1  N   UNL     1      -1.667  12.749  22.174  0.00  0.00    +0.000 N 
ATOM      2  C   UNL     1      -0.918  11.577  21.956  0.00  0.00    +0.000 A 
ATOM      3  N   UNL     1      -0.425  10.848  22.992  0.00  0.00    +0.000 NA
ATOM      4  C   UNL     1       0.286   9.722  22.708  0.00  0.00    +0.000 A 
ATOM      5  C   UNL     1       0.608   9.299  21.425  0.00  0.00    +0.000 A 
ATOM      6  C   UNL     1       0.116  10.063  20.375  0.00  0.00    +0.000 A 
ATOM      7  C   UNL     1      -0.668  11.184  20.654  0.00  0.00    +0.000 A 
ATOM      8  C   UNL     1      -1.214  11.933  19.528  0.00  0.00    +0.000 C 
ATOM      9  O   UNL     1      -0.450  12.207  18.604  0.00  0.00    +0.000 OA
ATOM     10  N   UNL     1      -2.601  12.002  19.448  0.00  0.00    +0.000 N 
ATOM     11  C   UNL     1      -3.142  11.701  18.135  0.00  0.00    +0.000 C 
ATOM     12  C   UNL     1      -3.474  12.393  20.531  0.00  0.00    +0.000 A 
ATOM     13  C   UNL     1      -4.859  12.463  20.289  0.00  0.00    +0.000 A 
ATOM     14  C   UNL     1      -5.740  12.937  21.254  0.00  0.00    +0.000 A 
ATOM     15  C   UNL     1      -5.196  13.351  22.454  0.00  0.00    +0.000 A 
ATOM     16 CL   UNL     1      -6.200  13.959  23.701  0.00  0.00    +0.000 Cl
ATOM     17  N   UNL     1      -3.885  13.311  22.739  0.00  0.00    +0.000 NA
ATOM     18  C   UNL     1      -3.022  12.826  21.810  0.00  0.00    +0.000 A 
ENDROOT
BRANCH   1  20
ATOM     19  C   UNL     1      -0.462  14.796  22.759  0.00  0.00    +0.000 C 
ATOM     20  C   UNL     1      -1.217  13.577  23.297  0.00  0.00    +0.000 C 
ENDBRANCH   1  20
BRANCH   5  21
ATOM     21  C   UNL     1       1.442   8.079  21.162  0.00  0.00    +0.000 C 
BRANCH  21  22
ATOM     22  O   UNL     1       1.776   8.024  19.774  0.00  0.00    +0.000 OA
BRANCH  22  23
ATOM     23  C   UNL     1       2.398   6.876  19.362  0.00  0.00    +0.000 A 
ATOM     24  C   UNL     1       2.226   5.760  20.168  0.00  0.00    +0.000 A 
ATOM     25  C   UNL     1       2.841   4.558  19.818  0.00  0.00    +0.000 A 
ATOM     26  N   UNL     1       3.657   4.439  18.697  0.00  0.00    +0.000 N 
ATOM     27  O   UNL     1       4.174   3.318  18.439  0.00  0.00    +0.000 OA
ATOM     28  C   UNL     1       3.862   5.557  17.920  0.00  0.00    +0.000 A 
ATOM     29  C   UNL     1       3.223   6.775  18.247  0.00  0.00    +0.000 A 
BRANCH  28  30
ATOM     30  C   UNL     1       4.786   5.481  16.753  0.00  0.00    +0.000 C 
ATOM     31  F   UNL     1       4.876   6.541  15.916  0.00  0.00    +0.000 F 
ATOM     32  F   UNL     1       6.068   5.226  17.162  0.00  0.00    +0.000 F 
ATOM     33  F   UNL     1       4.467   4.415  15.956  0.00  0.00    +0.000 F 
ENDBRANCH  28  30
ENDBRANCH  22  23
ENDBRANCH  21  22
ENDBRANCH   5  21
TORSDOF 5
ENDMDL
MODEL 4
REMARK VINA RESULT:      -8.3      2.154      3.701
REMARK  Name = 
REMARK  7 active torsions:
REMARK  status: ('A' for Active; 'I' for Inactive)
REMARK    1  A    between atoms: C_1  and  C_2
REMARK    2  A    between atoms: C_2  and  N_3
REMARK    3  A    between atoms: C_7  and  C_8
REMARK    4  A    between atoms: C_8  and  O_9
REMARK    5  A    between atoms: O_9  and  C_10
REMARK    6  A    between atoms: C_15  and  C_16
REMARK    7  A    between atoms: N_25  and  C_26
REMARK                            x       y       z     vdW  Elec       q    Type
REMARK                         _______ _______ _______ _____ _____    ______ ____
ROOT
ATOM      1  N   UNL     1      -1.241  11.017  19.427  0.00  0.00    +0.000 N 
ATOM      2  C   UNL     1      -0.082  10.279  19.118  0.00  0.00    +0.000 A 
ATOM      3  N   UNL     1       0.634  10.523  17.989  0.00  0.00    +0.000 NA
ATOM      4  C   UNL     1       1.747   9.775  17.757  0.00  0.00    +0.000 A 
ATOM      5  C   UNL     1       2.169   8.723  18.561  0.00  0.00    +0.000 A 
ATOM      6  C   UNL     1       1.417   8.471  19.701  0.00  0.00    +0.000 A 
ATOM      7  C   UNL     1       0.310   9.274  19.982  0.00  0.00    +0.000 A 
ATOM      8  C   UNL     1      -0.424   9.015  21.215  0.00  0.00    +0.000 C 
ATOM      9  O   UNL     1      -0.709   7.847  21.473  0.00  0.00    +0.000 OA
ATOM     10  N   UNL     1      -0.467  10.057  22.136  0.00  0.00    +0.000 N 
ATOM     11  C   UNL     1      -0.151   9.668  23.499  0.00  0.00    +0.000 C 
ATOM     12  C   UNL     1      -0.846  11.418  21.830  0.00  0.00    +0.000 A 
ATOM     13  C   UNL     1      -0.889  12.358  22.877  0.00  0.00    +0.000 A 
ATOM     14  C   UNL     1      -1.350  13.653  22.669  0.00  0.00    +0.000 A 
ATOM     15  C   UNL     1      -1.779  13.972  21.396  0.00  0.00    +0.000 A 
ATOM     16 CL   UNL     1      -2.372  15.539  21.045  0.00  0.00    +0.000 Cl
ATOM     17  N   UNL     1      -1.765  13.117  20.361  0.00  0.00    +0.000 NA
ATOM     18  C   UNL     1      -1.292  11.858  20.551  0.00  0.00    +0.000 A 
ENDROOT
BRANCH   1  20
ATOM     19  C   UNL     1      -3.012  10.195  17.952  0.00  0.00    +0.000 C 
ATOM     20  C   UNL     1      -2.081  11.368  18.277  0.00  0.00    +0.000 C 
ENDBRANCH   1  20
BRANCH   5  21
ATOM     21  C   UNL     1       3.374   7.891  18.234  0.00  0.00    +0.000 C 
BRANCH  21  22
ATOM     22  O   UNL     1       2.951   6.645  17.675  0.00  0.00    +0.000 OA
BRANCH  22  23
ATOM     23  C   UNL     1       3.332   5.528  18.369  0.00  0.00    +0.000 A 
ATOM     24  C   UNL     1       4.616   5.061  18.128  0.00  0.00    +0.000 A 
ATOM     25  C   UNL     1       5.067   3.920  18.790  0.00  0.00    +0.000 A 
ATOM     26  N   UNL     1       4.262   3.202  19.669  0.00  0.00    +0.000 N 
ATOM     27  O   UNL     1       4.741   2.182  20.236  0.00  0.00    +0.000 OA
ATOM     28  C   UNL     1       2.974   3.640  19.876  0.00  0.00    +0.000 A 
ATOM     29  C   UNL     1       2.511   4.812  19.233  0.00  0.00    +0.000 A 
BRANCH  28  30
ATOM     30  C   UNL     1       2.062   2.854  20.755  0.00  0.00    +0.000 C 
ATOM     31  F   UNL     1       0.910   3.422  21.182  0.00  0.00    +0.000 F 
ATOM     32  F   UNL     1       1.693   1.682  20.151  0.00  0.00    +0.000 F 
ATOM     33  F   UNL     1       2.715   2.458  21.892  0.00  0.00    +0.000 F 
ENDBRANCH  28  30
ENDBRANCH  22  23
ENDBRANCH  21  22
ENDBRANCH   5  21
TORSDOF 5
ENDMDL
MODEL 5
REMARK VINA RESULT:      -8.3      2.449      3.882
REMARK  Name = 
REMARK  7 active torsions:
REMARK  status: ('A' for Active; 'I' for Inactive)
REMARK    1  A    between atoms: C_1  and  C_2
REMARK    2  A    between atoms: C_2  and  N_3
REMARK    3  A    between atoms: C_7  and  C_8
REMARK    4  A    between atoms: C_8  and  O_9
REMARK    5  A    between atoms: O_9  and  C_10
REMARK    6  A    between atoms: C_15  and  C_16
REMARK    7  A    between atoms: N_25  and  C_26
REMARK                            x       y       z     vdW  Elec       q    Type
REMARK                         _______ _______ _______ _____ _____    ______ ____
ROOT
ATOM      1  N   UNL     1      -0.921  10.928  19.284  0.00  0.00    +0.000 N 
ATOM      2  C   UNL     1       0.175  10.061  19.111  0.00  0.00    +0.000 A 
ATOM      3  N   UNL     1       0.960  10.121  18.003  0.00  0.00    +0.000 NA
ATOM      4  C   UNL     1       2.006   9.256  17.906  0.00  0.00    +0.000 A 
ATOM      5  C   UNL     1       2.290   8.259  18.830  0.00  0.00    +0.000 A 
ATOM      6  C   UNL     1       1.469   8.194  19.948  0.00  0.00    +0.000 A 
ATOM      7  C   UNL     1       0.432   9.118  20.090  0.00  0.00    +0.000 A 
ATOM      8  C   UNL     1      -0.377   9.056  21.302  0.00  0.00    +0.000 C 
ATOM      9  O   UNL     1      -0.783   7.951  21.658  0.00  0.00    +0.000 OA
ATOM     10  N   UNL     1      -0.361  10.186  22.111  0.00  0.00    +0.000 N 
ATOM     11  C   UNL     1      -0.143   9.912  23.521  0.00  0.00    +0.000 C 
ATOM     12  C   UNL     1      -0.594  11.537  21.654  0.00  0.00    +0.000 A 
ATOM     13  C   UNL     1      -0.594  12.580  22.599  0.00  0.00    +0.000 A 
ATOM     14  C   UNL     1      -0.920  13.882  22.241  0.00  0.00    +0.000 A 
ATOM     15  C   UNL     1      -1.260  14.106  20.921  0.00  0.00    +0.000 A 
ATOM     16 CL   UNL     1      -1.686  15.676  20.386  0.00  0.00    +0.000 Cl
ATOM     17  N   UNL     1      -1.282  13.151  19.978  0.00  0.00    +0.000 NA
ATOM     18  C   UNL     1      -0.941  11.882  20.315  0.00  0.00    +0.000 A 
ENDROOT
BRANCH   1  20
ATOM     19  C   UNL     1      -2.635  10.081  17.758  0.00  0.00    +0.000 C 
ATOM     20  C   UNL     1      -1.673  11.233  18.062  0.00  0.00    +0.000 C 
ENDBRANCH   1  20
BRANCH   5  21
ATOM     21  C   UNL     1       3.424   7.292  18.652  0.00  0.00    +0.000 C 
BRANCH  21  22
ATOM     22  O   UNL     1       3.061   6.313  17.675  0.00  0.00    +0.000 OA
BRANCH  22  23
ATOM     23  C   UNL     1       2.756   5.073  18.168  0.00  0.00    +0.000 A 
ATOM     24  C   UNL     1       2.455   4.095  17.231  0.00  0.00    +0.000 A 
ATOM     25  C   UNL     1       2.121   2.811  17.661  0.00  0.00    +0.000 A 
ATOM     26  N   UNL     1       2.046   2.474  19.009  0.00  0.00    +0.000 N 
ATOM     27  O   UNL     1       1.744   1.290  19.323  0.00  0.00    +0.000 OA
ATOM     28  C   UNL     1       2.304   3.455  19.940  0.00  0.00    +0.000 A 
ATOM     29  C   UNL     1       2.670   4.754  19.519  0.00  0.00    +0.000 A 
BRANCH  28  30
ATOM     30  C   UNL     1       2.163   3.146  21.391  0.00  0.00    +0.000 C 
ATOM     31  F   UNL     1       1.029   2.551  21.829  0.00  0.00    +0.000 F 
ATOM     32  F   UNL     1       3.188   2.348  21.823  0.00  0.00    +0.000 F 
ATOM     33  F   UNL     1       2.285   4.287  22.139  0.00  0.00    +0.000 F 
ENDBRANCH  28  30
ENDBRANCH  22  23
ENDBRANCH  21  22
ENDBRANCH   5  21
TORSDOF 5
ENDMDL
MODEL 6
REMARK VINA RESULT:      -8.2      1.729      2.144
REMARK  Name = 
REMARK  7 active torsions:
REMARK  status: ('A' for Active; 'I' for Inactive)
REMARK    1  A    between atoms: C_1  and  C_2
REMARK    2  A    between atoms: C_2  and  N_3
REMARK    3  A    between atoms: C_7  and  C_8
REMARK    4  A    between atoms: C_8  and  O_9
REMARK    5  A    between atoms: O_9  and  C_10
REMARK    6  A    between atoms: C_15  and  C_16
REMARK    7  A    between atoms: N_25  and  C_26
REMARK                            x       y       z     vdW  Elec       q    Type
REMARK                         _______ _______ _______ _____ _____    ______ ____
ROOT
ATOM      1  N   UNL     1      -1.467  12.195  21.762  0.00  0.00    +0.000 N 
ATOM      2  C   UNL     1      -0.653  11.072  21.516  0.00  0.00    +0.000 A 
ATOM      3  N   UNL     1      -0.330  10.200  22.507  0.00  0.00    +0.000 NA
ATOM      4  C   UNL     1       0.456   9.132  22.196  0.00  0.00    +0.000 A 
ATOM      5  C   UNL     1       1.016   8.907  20.945  0.00  0.00    +0.000 A 
ATOM      6  C   UNL     1       0.695   9.816  19.946  0.00  0.00    +0.000 A 
ATOM      7  C   UNL     1      -0.162  10.879  20.238  0.00  0.00    +0.000 A 
ATOM      8  C   UNL     1      -0.521  11.784  19.152  0.00  0.00    +0.000 C 
ATOM      9  O   UNL     1       0.386  12.197  18.432  0.00  0.00    +0.000 OA
ATOM     10  N   UNL     1      -1.873  11.856  18.833  0.00  0.00    +0.000 N 
ATOM     11  C   UNL     1      -2.161  11.751  17.413  0.00  0.00    +0.000 C 
ATOM     12  C   UNL     1      -2.939  12.077  19.784  0.00  0.00    +0.000 A 
ATOM     13  C   UNL     1      -4.260  12.175  19.307  0.00  0.00    +0.000 A 
ATOM     14  C   UNL     1      -5.314  12.495  20.155  0.00  0.00    +0.000 A 
ATOM     15  C   UNL     1      -5.006  12.729  21.481  0.00  0.00    +0.000 A 
ATOM     16 CL   UNL     1      -6.237  13.139  22.600  0.00  0.00    +0.000 Cl
ATOM     17  N   UNL     1      -3.767  12.655  21.990  0.00  0.00    +0.000 NA
ATOM     18  C   UNL     1      -2.737  12.318  21.174  0.00  0.00    +0.000 A 
ENDROOT
BRANCH   1  20
ATOM     19  C   UNL     1      -0.629  14.230  22.831  0.00  0.00    +0.000 C 
ATOM     20  C   UNL     1      -1.252  12.848  23.057  0.00  0.00    +0.000 C 
ENDBRANCH   1  20
BRANCH   5  21
ATOM     21  C   UNL     1       1.922   7.744  20.664  0.00  0.00    +0.000 C 
BRANCH  21  22
ATOM     22  O   UNL     1       1.226   6.525  20.933  0.00  0.00    +0.000 OA
BRANCH  22  23
ATOM     23  C   UNL     1       1.657   5.433  20.227  0.00  0.00    +0.000 A 
ATOM     24  C   UNL     1       1.132   4.207  20.611  0.00  0.00    +0.000 A 
ATOM     25  C   UNL     1       1.535   3.050  19.946  0.00  0.00    +0.000 A 
ATOM     26  N   UNL     1       2.476   3.069  18.922  0.00  0.00    +0.000 N 
ATOM     27  O   UNL     1       2.787   1.983  18.362  0.00  0.00    +0.000 OA
ATOM     28  C   UNL     1       3.029   4.280  18.570  0.00  0.00    +0.000 A 
ATOM     29  C   UNL     1       2.610   5.466  19.217  0.00  0.00    +0.000 A 
BRANCH  28  30
ATOM     30  C   UNL     1       4.092   4.327  17.527  0.00  0.00    +0.000 C 
ATOM     31  F   UNL     1       3.879   3.709  16.342  0.00  0.00    +0.000 F 
ATOM     32  F   UNL     1       4.413   5.621  17.215  0.00  0.00    +0.000 F 
ATOM     33  F   UNL     1       5.260   3.796  18.007  0.00  0.00    +0.000 F 
ENDBRANCH  28  30
ENDBRANCH  22  23
ENDBRANCH  21  22
ENDBRANCH   5  21
TORSDOF 5
ENDMDL
MODEL 7
REMARK VINA RESULT:      -8.1      1.629      2.015
REMARK  Name = 
REMARK  7 active torsions:
REMARK  status: ('A' for Active; 'I' for Inactive)
REMARK    1  A    between atoms: C_1  and  C_2
REMARK    2  A    between atoms: C_2  and  N_3
REMARK    3  A    between atoms: C_7  and  C_8
REMARK    4  A    between atoms: C_8  and  O_9
REMARK    5  A    between atoms: O_9  and  C_10
REMARK    6  A    between atoms: C_15  and  C_16
REMARK    7  A    between atoms: N_25  and  C_26
REMARK                            x       y       z     vdW  Elec       q    Type
REMARK                         _______ _______ _______ _____ _____    ______ ____
ROOT
ATOM      1  N   UNL     1      -1.513  13.384  19.881  0.00  0.00    +0.000 N 
ATOM      2  C   UNL     1      -0.730  12.229  19.691  0.00  0.00    +0.000 A 
ATOM      3  N   UNL     1       0.377  11.991  20.442  0.00  0.00    +0.000 NA
ATOM      4  C   UNL     1       1.083  10.850  20.209  0.00  0.00    +0.000 A 
ATOM      5  C   UNL     1       0.792   9.939  19.201  0.00  0.00    +0.000 A 
ATOM      6  C   UNL     1      -0.330  10.204  18.427  0.00  0.00    +0.000 A 
ATOM      7  C   UNL     1      -1.097  11.338  18.700  0.00  0.00    +0.000 A 
ATOM      8  C   UNL     1      -2.299  11.557  17.903  0.00  0.00    +0.000 C 
ATOM      9  O   UNL     1      -2.203  11.431  16.683  0.00  0.00    +0.000 OA
ATOM     10  N   UNL     1      -3.503  11.581  18.599  0.00  0.00    +0.000 N 
ATOM     11  C   UNL     1      -4.552  10.766  18.012  0.00  0.00    +0.000 C 
ATOM     12  C   UNL     1      -3.764  12.379  19.775  0.00  0.00    +0.000 A 
ATOM     13  C   UNL     1      -5.050  12.338  20.347  0.00  0.00    +0.000 A 
ATOM     14  C   UNL     1      -5.396  13.163  21.411  0.00  0.00    +0.000 A 
ATOM     15  C   UNL     1      -4.429  14.034  21.872  0.00  0.00    +0.000 A 
ATOM     16 CL   UNL     1      -4.764  15.096  23.174  0.00  0.00    +0.000 Cl
ATOM     17  N   UNL     1      -3.190  14.120  21.364  0.00  0.00    +0.000 NA
ATOM     18  C   UNL     1      -2.837  13.301  20.342  0.00  0.00    +0.000 A 
ENDROOT
BRANCH   1  20
ATOM     19  C   UNL     1      -0.223  15.219  18.902  0.00  0.00    +0.000 C 
ATOM     20  C   UNL     1      -0.759  14.602  20.198  0.00  0.00    +0.000 C 
ENDBRANCH   1  20
BRANCH   5  21
ATOM     21  C   UNL     1       1.633   8.723  18.946  0.00  0.00    +0.000 C 
BRANCH  21  22
ATOM     22  O   UNL     1       1.538   7.838  20.064  0.00  0.00    +0.000 OA
BRANCH  22  23
ATOM     23  C   UNL     1       2.150   6.623  19.909  0.00  0.00    +0.000 A 
ATOM     24  C   UNL     1       3.140   6.553  18.940  0.00  0.00    +0.000 A 
ATOM     25  C   UNL     1       3.798   5.343  18.717  0.00  0.00    +0.000 A 
ATOM     26  N   UNL     1       3.477   4.182  19.413  0.00  0.00    +0.000 N 
ATOM     27  O   UNL     1       4.120   3.127  19.163  0.00  0.00    +0.000 OA
ATOM     28  C   UNL     1       2.466   4.242  20.346  0.00  0.00    +0.000 A 
ATOM     29  C   UNL     1       1.808   5.468  20.602  0.00  0.00    +0.000 A 
BRANCH  28  30
ATOM     30  C   UNL     1       2.049   3.001  21.058  0.00  0.00    +0.000 C 
ATOM     31  F   UNL     1       1.082   3.078  22.001  0.00  0.00    +0.000 F 
ATOM     32  F   UNL     1       1.622   2.050  20.171  0.00  0.00    +0.000 F 
ATOM     33  F   UNL     1       3.121   2.423  21.683  0.00  0.00    +0.000 F 
ENDBRANCH  28  30
ENDBRANCH  22  23
ENDBRANCH  21  22
ENDBRANCH   5  21
TORSDOF 5
ENDMDL
MODEL 8
REMARK VINA RESULT:      -8.0      1.053      1.310
REMARK  Name = 
REMARK  7 active torsions:
REMARK  status: ('A' for Active; 'I' for Inactive)
REMARK    1  A    between atoms: C_1  and  C_2
REMARK    2  A    between atoms: C_2  and  N_3
REMARK    3  A    between atoms: C_7  and  C_8
REMARK    4  A    between atoms: C_8  and  O_9
REMARK    5  A    between atoms: O_9  and  C_10
REMARK    6  A    between atoms: C_15  and  C_16
REMARK    7  A    between atoms: N_25  and  C_26
REMARK                            x       y       z     vdW  Elec       q    Type
REMARK                         _______ _______ _______ _____ _____    ______ ____
ROOT
ATOM      1  N   UNL     1      -1.508  13.220  21.209  0.00  0.00    +0.000 N 
ATOM      2  C   UNL     1      -0.919  11.943  21.293  0.00  0.00    +0.000 A 
ATOM      3  N   UNL     1      -0.302  11.520  22.428  0.00  0.00    +0.000 NA
ATOM      4  C   UNL     1       0.239  10.271  22.440  0.00  0.00    +0.000 A 
ATOM      5  C   UNL     1       0.272   9.418  21.345  0.00  0.00    +0.000 A 
ATOM      6  C   UNL     1      -0.344   9.870  20.185  0.00  0.00    +0.000 A 
ATOM      7  C   UNL     1      -0.959  11.123  20.181  0.00  0.00    +0.000 A 
ATOM      8  C   UNL     1      -1.643  11.544  18.963  0.00  0.00    +0.000 C 
ATOM      9  O   UNL     1      -1.050  11.393  17.897  0.00  0.00    +0.000 OA
ATOM     10  N   UNL     1      -3.008  11.786  19.077  0.00  0.00    +0.000 N 
ATOM     11  C   UNL     1      -3.816  11.163  18.043  0.00  0.00    +0.000 C 
ATOM     12  C   UNL     1      -3.621  12.626  20.080  0.00  0.00    +0.000 A 
ATOM     13  C   UNL     1      -5.015  12.817  20.042  0.00  0.00    +0.000 A 
ATOM     14  C   UNL     1      -5.649  13.698  20.910  0.00  0.00    +0.000 A 
ATOM     15  C   UNL     1      -4.851  14.389  21.799  0.00  0.00    +0.000 A 
ATOM     16 CL   UNL     1      -5.540  15.504  22.902  0.00  0.00    +0.000 Cl
ATOM     17  N   UNL     1      -3.518  14.252  21.878  0.00  0.00    +0.000 NA
ATOM     18  C   UNL     1      -2.895  13.375  21.051  0.00  0.00    +0.000 A 
ENDROOT
BRANCH   1  20
ATOM     19  C   UNL     1      -0.247  15.290  20.872  0.00  0.00    +0.000 C 
ATOM     20  C   UNL     1      -0.780  14.288  21.902  0.00  0.00    +0.000 C 
ENDBRANCH   1  20
BRANCH   5  21
ATOM     21  C   UNL     1       0.930   8.070  21.390  0.00  0.00    +0.000 C 
BRANCH  21  22
ATOM     22  O   UNL     1       1.965   8.015  20.406  0.00  0.00    +0.000 OA
BRANCH  22  23
ATOM     23  C   UNL     1       2.134   6.801  19.795  0.00  0.00    +0.000 A 
ATOM     24  C   UNL     1       2.722   6.821  18.539  0.00  0.00    +0.000 A 
ATOM     25  C   UNL     1       2.914   5.623  17.851  0.00  0.00    +0.000 A 
ATOM     26  N   UNL     1       2.506   4.396  18.366  0.00  0.00    +0.000 N 
ATOM     27  O   UNL     1       2.719   3.353  17.690  0.00  0.00    +0.000 OA
ATOM     28  C   UNL     1       1.885   4.381  19.594  0.00  0.00    +0.000 A 
ATOM     29  C   UNL     1       1.707   5.585  20.315  0.00  0.00    +0.000 A 
BRANCH  28  30
ATOM     30  C   UNL     1       1.371   3.093  20.142  0.00  0.00    +0.000 C 
ATOM     31  F   UNL     1       0.911   3.057  21.414  0.00  0.00    +0.000 F 
ATOM     32  F   UNL     1       0.353   2.606  19.369  0.00  0.00    +0.000 F 
ATOM     33  F   UNL     1       2.337   2.125  20.078  0.00  0.00    +0.000 F 
ENDBRANCH  28  30
ENDBRANCH  22  23
ENDBRANCH  21  22
ENDBRANCH   5  21
TORSDOF 5
ENDMDL
MODEL 9
REMARK VINA RESULT:      -8.0      3.803      5.224
REMARK  Name = 
REMARK  7 active torsions:
REMARK  status: ('A' for Active; 'I' for Inactive)
REMARK    1  A    between atoms: C_1  and  C_2
REMARK    2  A    between atoms: C_2  and  N_3
REMARK    3  A    between atoms: C_7  and  C_8
REMARK    4  A    between atoms: C_8  and  O_9
REMARK    5  A    between atoms: O_9  and  C_10
REMARK    6  A    between atoms: C_15  and  C_16
REMARK    7  A    between atoms: N_25  and  C_26
REMARK                            x       y       z     vdW  Elec       q    Type
REMARK                         _______ _______ _______ _____ _____    ______ ____
ROOT
ATOM      1  N   UNL     1      -0.460  10.548  18.969  0.00  0.00    +0.000 N 
ATOM      2  C   UNL     1       0.498   9.527  19.119  0.00  0.00    +0.000 A 
ATOM      3  N   UNL     1       1.409   9.260  18.146  0.00  0.00    +0.000 NA
ATOM      4  C   UNL     1       2.310   8.263  18.362  0.00  0.00    +0.000 A 
ATOM      5  C   UNL     1       2.321   7.443  19.483  0.00  0.00    +0.000 A 
ATOM      6  C   UNL     1       1.372   7.712  20.460  0.00  0.00    +0.000 A 
ATOM      7  C   UNL     1       0.484   8.774  20.278  0.00  0.00    +0.000 A 
ATOM      8  C   UNL     1      -0.463   9.062  21.349  0.00  0.00    +0.000 C 
ATOM      9  O   UNL     1      -1.078   8.114  21.835  0.00  0.00    +0.000 OA
ATOM     10  N   UNL     1      -0.366  10.320  21.934  0.00  0.00    +0.000 N 
ATOM     11  C   UNL     1      -0.365  10.307  23.387  0.00  0.00    +0.000 C 
ATOM     12  C   UNL     1      -0.328  11.570  21.211  0.00  0.00    +0.000 A 
ATOM     13  C   UNL     1      -0.276  12.772  21.943  0.00  0.00    +0.000 A 
ATOM     14  C   UNL     1      -0.347  14.008  21.311  0.00  0.00    +0.000 A 
ATOM     15  C   UNL     1      -0.487  14.005  19.937  0.00  0.00    +0.000 A 
ATOM     16 CL   UNL     1      -0.593  15.479  19.071  0.00  0.00    +0.000 Cl
ATOM     17  N   UNL     1      -0.547  12.893  19.189  0.00  0.00    +0.000 NA
ATOM     18  C   UNL     1      -0.453  11.683  19.796  0.00  0.00    +0.000 A 
ENDROOT
BRANCH   1  20
ATOM     19  C   UNL     1      -2.442  10.174  17.583  0.00  0.00    +0.000 C 
ATOM     20  C   UNL     1      -1.003  10.699  17.614  0.00  0.00    +0.000 C 
ENDBRANCH   1  20
BRANCH   5  21
ATOM     21  C   UNL     1       3.301   6.319  19.651  0.00  0.00    +0.000 C 
BRANCH  21  22
ATOM     22  O   UNL     1       3.228   5.453  18.516  0.00  0.00    +0.000 OA
BRANCH  22  23
ATOM     23  C   UNL     1       4.431   5.117  17.953  0.00  0.00    +0.000 A 
ATOM     24  C   UNL     1       5.518   5.059  18.813  0.00  0.00    +0.000 A 
ATOM     25  C   UNL     1       6.776   4.735  18.308  0.00  0.00    +0.000 A 
ATOM     26  N   UNL     1       6.996   4.497  16.955  0.00  0.00    +0.000 N 
ATOM     27  O   UNL     1       8.161   4.203  16.571  0.00  0.00    +0.000 OA
ATOM     28  C   UNL     1       5.926   4.596  16.095  0.00  0.00    +0.000 A 
ATOM     29  C   UNL     1       4.638   4.897  16.596  0.00  0.00    +0.000 A 
BRANCH  28  30
ATOM     30  C   UNL     1       6.140   4.418  14.631  0.00  0.00    +0.000 C 
ATOM     31  F   UNL     1       7.121   5.122  14.019  0.00  0.00    +0.000 F 
ATOM     32  F   UNL     1       6.389   3.105  14.330  0.00  0.00    +0.000 F 
ATOM     33  F   UNL     1       4.996   4.712  13.938  0.00  0.00    +0.000 F 
ENDBRANCH  28  30
ENDBRANCH  22  23
ENDBRANCH  21  22
ENDBRANCH   5  21
TORSDOF 5
ENDMDL
