MODEL 1
REMARK VINA RESULT:      -7.2      0.000      0.000
REMARK  Name = 
REMARK  6 active torsions:
REMARK  status: ('A' for Active; 'I' for Inactive)
REMARK    1  A    between atoms: C_1  and  N_2
REMARK    2  A    between atoms: N_2  and  C_3
REMARK    3  A    between atoms: N_2  and  C_4
REMARK    4  A    between atoms: C_8  and  C_10
REMARK    5  A    between atoms: N_17  and  C_18
REMARK    6  A    between atoms: C_18  and  C_19
REMARK                            x       y       z     vdW  Elec       q    Type
REMARK                         _______ _______ _______ _____ _____    ______ ____
ROOT
ATOM      1  C   UNL     1       1.315   9.940  18.611  0.00  0.00    +0.000 A 
ATOM      2  N   UNL     1       1.976   9.668  17.462  0.00  0.00    +0.000 NA
ATOM      3  N   UNL     1       2.531   8.469  17.663  0.00  0.00    +0.000 N 
ATOM      4  C   UNL     1       2.220   7.942  18.878  0.00  0.00    +0.000 A 
ATOM      5  C   UNL     1       1.466   8.872  19.521  0.00  0.00    +0.000 A 
ATOM      6  C   UNL     1       0.948   8.648  20.880  0.00  0.00    +0.000 C 
ATOM      7  C   UNL     1       0.972   7.144  21.240  0.00  0.00    +0.000 C 
ATOM      8  N   UNL     1       1.957   6.204  20.630  0.00  0.00    +0.000 NA
ATOM      9  C   UNL     1       2.584   6.591  19.350  0.00  0.00    +0.000 C 
ATOM     10  H   UNL     1       3.082   8.057  16.919  0.00  0.00    +0.000 HD
ENDROOT
BRANCH   1  15
ATOM     11  C   UNL     1      -3.797  10.950  18.128  0.00  0.00    +0.000 C 
ATOM     12  C   UNL     1      -3.124  11.843  19.199  0.00  0.00    +0.000 C 
ATOM     13  C   UNL     1      -1.705  12.259  18.814  0.00  0.00    +0.000 C 
ATOM     14  N   UNL     1      -0.887  11.095  18.494  0.00  0.00    +0.000 N 
ATOM     15  C   UNL     1       0.469  11.136  18.825  0.00  0.00    +0.000 C 
ATOM     16  O   UNL     1       0.971  12.158  19.304  0.00  0.00    +0.000 OA
ATOM     17  C   UNL     1      -1.452  10.204  17.482  0.00  0.00    +0.000 C 
ATOM     18  C   UNL     1      -2.845   9.749  17.903  0.00  0.00    +0.000 C 
BRANCH  11  20
ATOM     19  C   UNL     1      -4.093  10.758  15.697  0.00  0.00    +0.000 C 
ATOM     20  N   UNL     1      -4.129  11.659  16.862  0.00  0.00    +0.000 NA
ATOM     21  C   UNL     1      -5.452  12.296  16.891  0.00  0.00    +0.000 C 
ENDBRANCH  11  20
ENDBRANCH   1  15
BRANCH   8  22
ATOM     22  C   UNL     1       1.347   4.847  20.591  0.00  0.00    +0.000 C 
BRANCH  22  23
ATOM     23  C   UNL     1       2.030   3.864  19.638  0.00  0.00    +0.000 C 
ATOM     24  C   UNL     1       1.874   2.358  19.940  0.00  0.00    +0.000 C 
ATOM     25  C   UNL     1       1.761   2.113  18.424  0.00  0.00    +0.000 C 
ATOM     26  C   UNL     1       1.368   3.593  18.259  0.00  0.00    +0.000 C 
ENDBRANCH  22  23
ENDBRANCH   8  22
TORSDOF 4
ENDMDL
MODEL 2
REMARK VINA RESULT:      -7.0      3.035      7.898
REMARK  Name = 
REMARK  6 active torsions:
REMARK  status: ('A' for Active; 'I' for Inactive)
REMARK    1  A    between atoms: C_1  and  N_2
REMARK    2  A    between atoms: N_2  and  C_3
REMARK    3  A    between atoms: N_2  and  C_4
REMARK    4  A    between atoms: C_8  and  C_10
REMARK    5  A    between atoms: N_17  and  C_18
REMARK    6  A    between atoms: C_18  and  C_19
REMARK                            x       y       z     vdW  Elec       q    Type
REMARK                         _______ _______ _______ _____ _____    ______ ____
ROOT
ATOM      1  C   UNL     1       2.319   8.296  18.155  0.00  0.00    +0.000 A 
ATOM      2  N   UNL     1       1.944   9.177  17.200  0.00  0.00    +0.000 NA
ATOM      3  N   UNL     1       0.972   9.900  17.765  0.00  0.00    +0.000 N 
ATOM      4  C   UNL     1       0.736   9.545  19.057  0.00  0.00    +0.000 A 
ATOM      5  C   UNL     1       1.562   8.502  19.328  0.00  0.00    +0.000 A 
ATOM      6  C   UNL     1       1.578   7.845  20.645  0.00  0.00    +0.000 C 
ATOM      7  C   UNL     1       0.932   8.748  21.721  0.00  0.00    +0.000 C 
ATOM      8  N   UNL     1      -0.114   9.756  21.379  0.00  0.00    +0.000 NA
ATOM      9  C   UNL     1      -0.192  10.227  19.982  0.00  0.00    +0.000 C 
ATOM     10  H   UNL     1       0.536  10.638  17.223  0.00  0.00    +0.000 HD
ENDROOT
BRANCH   1  15
ATOM     11  C   UNL     1       2.641   3.120  17.457  0.00  0.00    +0.000 C 
ATOM     12  C   UNL     1       3.857   3.867  16.856  0.00  0.00    +0.000 C 
ATOM     13  C   UNL     1       4.291   5.064  17.701  0.00  0.00    +0.000 C 
ATOM     14  N   UNL     1       3.171   5.967  17.942  0.00  0.00    +0.000 N 
ATOM     15  C   UNL     1       3.438   7.336  18.013  0.00  0.00    +0.000 C 
ATOM     16  O   UNL     1       4.597   7.758  17.948  0.00  0.00    +0.000 OA
ATOM     17  C   UNL     1       1.985   5.337  18.518  0.00  0.00    +0.000 C 
ATOM     18  C   UNL     1       1.526   4.180  17.637  0.00  0.00    +0.000 C 
BRANCH  11  20
ATOM     19  C   UNL     1       1.711   1.909  19.380  0.00  0.00    +0.000 C 
ATOM     20  N   UNL     1       2.936   2.384  18.717  0.00  0.00    +0.000 NA
ATOM     21  C   UNL     1       3.811   1.222  18.511  0.00  0.00    +0.000 C 
ENDBRANCH  11  20
ENDBRANCH   1  15
BRANCH   8  22
ATOM     22  C   UNL     1      -0.031  10.869  22.364  0.00  0.00    +0.000 C 
BRANCH  22  23
ATOM     23  C   UNL     1      -1.123  11.933  22.222  0.00  0.00    +0.000 C 
ATOM     24  C   UNL     1      -2.321  11.854  23.192  0.00  0.00    +0.000 C 
ATOM     25  C   UNL     1      -2.305  13.392  23.262  0.00  0.00    +0.000 C 
ATOM     26  C   UNL     1      -0.843  13.355  22.779  0.00  0.00    +0.000 C 
ENDBRANCH  22  23
ENDBRANCH   8  22
TORSDOF 4
ENDMDL
MODEL 3
REMARK VINA RESULT:      -6.9      3.159      4.792
REMARK  Name = 
REMARK  6 active torsions:
REMARK  status: ('A' for Active; 'I' for Inactive)
REMARK    1  A    between atoms: C_1  and  N_2
REMARK    2  A    between atoms: N_2  and  C_3
REMARK    3  A    between atoms: N_2  and  C_4
REMARK    4  A    between atoms: C_8  and  C_10
REMARK    5  A    between atoms: N_17  and  C_18
REMARK    6  A    between atoms: C_18  and  C_19
REMARK                            x       y       z     vdW  Elec       q    Type
REMARK                         _______ _______ _______ _____ _____    ______ ____
ROOT
ATOM      1  C   UNL     1       0.475  10.347  21.135  0.00  0.00    +0.000 A 
ATOM      2  N   UNL     1       0.921   9.788  22.283  0.00  0.00    +0.000 NA
ATOM      3  N   UNL     1       1.526   8.659  21.900  0.00  0.00    +0.000 N 
ATOM      4  C   UNL     1       1.522   8.491  20.551  0.00  0.00    +0.000 A 
ATOM      5  C   UNL     1       0.832   9.541  20.033  0.00  0.00    +0.000 A 
ATOM      6  C   UNL     1       0.616   9.691  18.585  0.00  0.00    +0.000 C 
ATOM      7  C   UNL     1       1.616   8.825  17.784  0.00  0.00    +0.000 C 
ATOM      8  N   UNL     1       2.201   7.572  18.348  0.00  0.00    +0.000 NA
ATOM      9  C   UNL     1       2.206   7.409  19.815  0.00  0.00    +0.000 C 
ATOM     10  H   UNL     1       1.946   8.068  22.609  0.00  0.00    +0.000 HD
ENDROOT
BRANCH   1  15
ATOM     11  C   UNL     1       1.636  14.898  18.829  0.00  0.00    +0.000 C 
ATOM     12  C   UNL     1       0.108  14.690  18.973  0.00  0.00    +0.000 C 
ATOM     13  C   UNL     1      -0.272  13.986  20.275  0.00  0.00    +0.000 C 
ATOM     14  N   UNL     1       0.459  12.732  20.424  0.00  0.00    +0.000 N 
ATOM     15  C   UNL     1      -0.190  11.667  21.053  0.00  0.00    +0.000 C 
ATOM     16  O   UNL     1      -1.319  11.811  21.533  0.00  0.00    +0.000 OA
ATOM     17  C   UNL     1       1.911  12.848  20.308  0.00  0.00    +0.000 C 
ATOM     18  C   UNL     1       2.281  13.499  18.980  0.00  0.00    +0.000 C 
BRANCH  11  20
ATOM     19  C   UNL     1       3.654  16.087  19.567  0.00  0.00    +0.000 C 
ATOM     20  N   UNL     1       2.208  15.896  19.773  0.00  0.00    +0.000 NA
ATOM     21  C   UNL     1       1.566  17.213  19.675  0.00  0.00    +0.000 C 
ENDBRANCH  11  20
ENDBRANCH   1  15
BRANCH   8  22
ATOM     22  C   UNL     1       3.541   7.364  17.734  0.00  0.00    +0.000 C 
BRANCH  22  23
ATOM     23  C   UNL     1       4.087   5.940  17.857  0.00  0.00    +0.000 C 
ATOM     24  C   UNL     1       3.104   4.778  17.604  0.00  0.00    +0.000 C 
ATOM     25  C   UNL     1       4.247   4.026  16.898  0.00  0.00    +0.000 C 
ATOM     26  C   UNL     1       4.954   5.380  16.696  0.00  0.00    +0.000 C 
ENDBRANCH  22  23
ENDBRANCH   8  22
TORSDOF 4
ENDMDL
MODEL 4
REMARK VINA RESULT:      -6.7      3.194      4.393
REMARK  Name = 
REMARK  6 active torsions:
REMARK  status: ('A' for Active; 'I' for Inactive)
REMARK    1  A    between atoms: C_1  and  N_2
REMARK    2  A    between atoms: N_2  and  C_3
REMARK    3  A    between atoms: N_2  and  C_4
REMARK    4  A    between atoms: C_8  and  C_10
REMARK    5  A    between atoms: N_17  and  C_18
REMARK    6  A    between atoms: C_18  and  C_19
REMARK                            x       y       z     vdW  Elec       q    Type
REMARK                         _______ _______ _______ _____ _____    ______ ____
ROOT
ATOM      1  C   UNL     1       1.476   8.541  19.897  0.00  0.00    +0.000 A 
ATOM      2  N   UNL     1       1.275   7.883  21.062  0.00  0.00    +0.000 NA
ATOM      3  N   UNL     1       1.914   6.718  20.910  0.00  0.00    +0.000 N 
ATOM      4  C   UNL     1       2.549   6.619  19.712  0.00  0.00    +0.000 A 
ATOM      5  C   UNL     1       2.265   7.758  19.028  0.00  0.00    +0.000 A 
ATOM      6  C   UNL     1       2.784   8.000  17.672  0.00  0.00    +0.000 C 
ATOM      7  C   UNL     1       3.987   7.077  17.367  0.00  0.00    +0.000 C 
ATOM      8  N   UNL     1       4.143   5.745  18.022  0.00  0.00    +0.000 NA
ATOM      9  C   UNL     1       3.430   5.510  19.293  0.00  0.00    +0.000 C 
ATOM     10  H   UNL     1       1.900   6.053  21.675  0.00  0.00    +0.000 HD
ENDROOT
BRANCH   1  15
ATOM     11  C   UNL     1      -1.039  12.176  22.697  0.00  0.00    +0.000 C 
ATOM     12  C   UNL     1      -0.110  12.803  21.628  0.00  0.00    +0.000 C 
ATOM     13  C   UNL     1      -0.077  11.997  20.330  0.00  0.00    +0.000 C 
ATOM     14  N   UNL     1       0.264  10.603  20.589  0.00  0.00    +0.000 N 
ATOM     15  C   UNL     1       1.022   9.925  19.631  0.00  0.00    +0.000 C 
ATOM     16  O   UNL     1       1.326  10.471  18.565  0.00  0.00    +0.000 OA
ATOM     17  C   UNL     1      -0.575   9.937  21.584  0.00  0.00    +0.000 C 
ATOM     18  C   UNL     1      -0.555  10.718  22.893  0.00  0.00    +0.000 C 
BRANCH  11  20
ATOM     19  C   UNL     1      -3.331  12.209  23.578  0.00  0.00    +0.000 C 
ATOM     20  N   UNL     1      -2.489  12.258  22.371  0.00  0.00    +0.000 NA
ATOM     21  C   UNL     1      -2.842  13.475  21.629  0.00  0.00    +0.000 C 
ENDBRANCH  11  20
ENDBRANCH   1  15
BRANCH   8  22
ATOM     22  C   UNL     1       5.596   5.432  18.104  0.00  0.00    +0.000 C 
BRANCH  22  23
ATOM     23  C   UNL     1       6.106   4.473  17.025  0.00  0.00    +0.000 C 
ATOM     24  C   UNL     1       5.082   3.959  15.990  0.00  0.00    +0.000 C 
ATOM     25  C   UNL     1       6.178   4.074  14.916  0.00  0.00    +0.000 C 
ATOM     26  C   UNL     1       6.916   5.063  15.838  0.00  0.00    +0.000 C 
ENDBRANCH  22  23
ENDBRANCH   8  22
TORSDOF 4
ENDMDL
MODEL 5
REMARK VINA RESULT:      -6.7      2.987      3.875
REMARK  Name = 
REMARK  6 active torsions:
REMARK  status: ('A' for Active; 'I' for Inactive)
REMARK    1  A    between atoms: C_1  and  N_2
REMARK    2  A    between atoms: N_2  and  C_3
REMARK    3  A    between atoms: N_2  and  C_4
REMARK    4  A    between atoms: C_8  and  C_10
REMARK    5  A    between atoms: N_17  and  C_18
REMARK    6  A    between atoms: C_18  and  C_19
REMARK                            x       y       z     vdW  Elec       q    Type
REMARK                         _______ _______ _______ _____ _____    ______ ____
ROOT
ATOM      1  C   UNL     1       1.053  10.330  21.061  0.00  0.00    +0.000 A 
ATOM      2  N   UNL     1       1.252   9.734  22.259  0.00  0.00    +0.000 NA
ATOM      3  N   UNL     1       1.576   8.471  21.962  0.00  0.00    +0.000 N 
ATOM      4  C   UNL     1       1.632   8.243  20.623  0.00  0.00    +0.000 A 
ATOM      5  C   UNL     1       1.275   9.406  20.017  0.00  0.00    +0.000 A 
ATOM      6  C   UNL     1       1.215   9.533  18.552  0.00  0.00    +0.000 C 
ATOM      7  C   UNL     1       2.019   8.404  17.866  0.00  0.00    +0.000 C 
ATOM      8  N   UNL     1       2.218   7.074  18.514  0.00  0.00    +0.000 NA
ATOM      9  C   UNL     1       2.069   6.988  19.980  0.00  0.00    +0.000 C 
ATOM     10  H   UNL     1       1.775   7.829  22.721  0.00  0.00    +0.000 HD
ENDROOT
BRANCH   1  15
ATOM     11  C   UNL     1      -2.486  13.618  23.073  0.00  0.00    +0.000 C 
ATOM     12  C   UNL     1      -1.179  14.344  22.666  0.00  0.00    +0.000 C 
ATOM     13  C   UNL     1      -0.557  13.771  21.394  0.00  0.00    +0.000 C 
ATOM     14  N   UNL     1      -0.358  12.331  21.512  0.00  0.00    +0.000 N 
ATOM     15  C   UNL     1       0.756  11.770  20.883  0.00  0.00    +0.000 C 
ATOM     16  O   UNL     1       1.504  12.464  20.187  0.00  0.00    +0.000 OA
ATOM     17  C   UNL     1      -1.550  11.572  21.886  0.00  0.00    +0.000 C 
ATOM     18  C   UNL     1      -2.130  12.115  23.187  0.00  0.00    +0.000 C 
BRANCH  11  20
ATOM     19  C   UNL     1      -4.815  13.068  22.525  0.00  0.00    +0.000 C 
ATOM     20  N   UNL     1      -3.633  13.864  22.157  0.00  0.00    +0.000 NA
ATOM     21  C   UNL     1      -4.040  15.274  22.114  0.00  0.00    +0.000 C 
ENDBRANCH  11  20
ENDBRANCH   1  15
BRANCH   8  22
ATOM     22  C   UNL     1       3.503   6.504  18.024  0.00  0.00    +0.000 C 
BRANCH  22  23
ATOM     23  C   UNL     1       3.419   5.052  17.547  0.00  0.00    +0.000 C 
ATOM     24  C   UNL     1       3.962   3.961  18.495  0.00  0.00    +0.000 C 
ATOM     25  C   UNL     1       2.789   3.064  18.059  0.00  0.00    +0.000 C 
ATOM     26  C   UNL     1       2.043   4.334  17.609  0.00  0.00    +0.000 C 
ENDBRANCH  22  23
ENDBRANCH   8  22
TORSDOF 4
ENDMDL
MODEL 6
REMARK VINA RESULT:      -6.6      3.109      4.320
REMARK  Name = 
REMARK  6 active torsions:
REMARK  status: ('A' for Active; 'I' for Inactive)
REMARK    1  A    between atoms: C_1  and  N_2
REMARK    2  A    between atoms: N_2  and  C_3
REMARK    3  A    between atoms: N_2  and  C_4
REMARK    4  A    between atoms: C_8  and  C_10
REMARK    5  A    between atoms: N_17  and  C_18
REMARK    6  A    between atoms: C_18  and  C_19
REMARK                            x       y       z     vdW  Elec       q    Type
REMARK                         _______ _______ _______ _____ _____    ______ ____
ROOT
ATOM      1  C   UNL     1       0.333   9.935  20.135  0.00  0.00    +0.000 A 
ATOM      2  N   UNL     1       0.092  10.607  18.986  0.00  0.00    +0.000 NA
ATOM      3  N   UNL     1       0.861  10.006  18.072  0.00  0.00    +0.000 N 
ATOM      4  C   UNL     1       1.555   8.952  18.579  0.00  0.00    +0.000 A 
ATOM      5  C   UNL     1       1.261   8.897  19.904  0.00  0.00    +0.000 A 
ATOM      6  C   UNL     1       1.843   7.874  20.788  0.00  0.00    +0.000 C 
ATOM      7  C   UNL     1       2.398   6.685  19.967  0.00  0.00    +0.000 C 
ATOM      8  N   UNL     1       2.881   6.854  18.565  0.00  0.00    +0.000 NA
ATOM      9  C   UNL     1       2.398   8.022  17.802  0.00  0.00    +0.000 C 
ATOM     10  H   UNL     1       0.840  10.348  17.118  0.00  0.00    +0.000 HD
ENDROOT
BRANCH   1  15
ATOM     11  C   UNL     1      -1.557  14.211  22.486  0.00  0.00    +0.000 C 
ATOM     12  C   UNL     1      -2.332  12.932  22.888  0.00  0.00    +0.000 C 
ATOM     13  C   UNL     1      -1.427  11.708  23.016  0.00  0.00    +0.000 C 
ATOM     14  N   UNL     1      -0.649  11.504  21.799  0.00  0.00    +0.000 N 
ATOM     15  C   UNL     1      -0.366  10.191  21.415  0.00  0.00    +0.000 C 
ATOM     16  O   UNL     1      -0.702   9.239  22.127  0.00  0.00    +0.000 OA
ATOM     17  C   UNL     1       0.120  12.666  21.357  0.00  0.00    +0.000 C 
ATOM     18  C   UNL     1      -0.802  13.867  21.178  0.00  0.00    +0.000 C 
BRANCH  11  20
ATOM     19  C   UNL     1       0.094  15.924  23.096  0.00  0.00    +0.000 C 
ATOM     20  N   UNL     1      -0.652  14.736  23.545  0.00  0.00    +0.000 NA
ATOM     21  C   UNL     1      -1.362  15.096  24.779  0.00  0.00    +0.000 C 
ENDBRANCH  11  20
ENDBRANCH   1  15
BRANCH   8  22
ATOM     22  C   UNL     1       2.686   5.566  17.845  0.00  0.00    +0.000 C 
BRANCH  22  23
ATOM     23  C   UNL     1       2.339   4.376  18.744  0.00  0.00    +0.000 C 
ATOM     24  C   UNL     1       1.279   3.381  18.226  0.00  0.00    +0.000 C 
ATOM     25  C   UNL     1       2.119   2.242  18.832  0.00  0.00    +0.000 C 
ATOM     26  C   UNL     1       3.336   3.186  18.808  0.00  0.00    +0.000 C 
ENDBRANCH  22  23
ENDBRANCH   8  22
TORSDOF 4
ENDMDL
MODEL 7
REMARK VINA RESULT:      -6.6      2.495      3.889
REMARK  Name = 
REMARK  6 active torsions:
REMARK  status: ('A' for Active; 'I' for Inactive)
REMARK    1  A    between atoms: C_1  and  N_2
REMARK    2  A    between atoms: N_2  and  C_3
REMARK    3  A    between atoms: N_2  and  C_4
REMARK    4  A    between atoms: C_8  and  C_10
REMARK    5  A    between atoms: N_17  and  C_18
REMARK    6  A    between atoms: C_18  and  C_19
REMARK                            x       y       z     vdW  Elec       q    Type
REMARK                         _______ _______ _______ _____ _____    ______ ____
ROOT
ATOM      1  C   UNL     1       1.117   9.834  18.742  0.00  0.00    +0.000 A 
ATOM      2  N   UNL     1       1.686   9.733  17.519  0.00  0.00    +0.000 NA
ATOM      3  N   UNL     1       2.380   8.592  17.558  0.00  0.00    +0.000 N 
ATOM      4  C   UNL     1       2.249   7.936  18.742  0.00  0.00    +0.000 A 
ATOM      5  C   UNL     1       1.469   8.719  19.533  0.00  0.00    +0.000 A 
ATOM      6  C   UNL     1       1.116   8.329  20.907  0.00  0.00    +0.000 C 
ATOM      7  C   UNL     1       1.332   6.813  21.124  0.00  0.00    +0.000 C 
ATOM      8  N   UNL     1       2.345   6.042  20.343  0.00  0.00    +0.000 NA
ATOM      9  C   UNL     1       2.797   6.601  19.054  0.00  0.00    +0.000 C 
ATOM     10  H   UNL     1       2.895   8.307  16.733  0.00  0.00    +0.000 HD
ENDROOT
BRANCH   1  15
ATOM     11  C   UNL     1       1.349  15.060  18.848  0.00  0.00    +0.000 C 
ATOM     12  C   UNL     1      -0.097  14.544  18.652  0.00  0.00    +0.000 C 
ATOM     13  C   UNL     1      -0.382  13.269  19.445  0.00  0.00    +0.000 C 
ATOM     14  N   UNL     1       0.603  12.236  19.144  0.00  0.00    +0.000 N 
ATOM     15  C   UNL     1       0.177  10.906  19.140  0.00  0.00    +0.000 C 
ATOM     16  O   UNL     1      -0.981  10.614  19.457  0.00  0.00    +0.000 OA
ATOM     17  C   UNL     1       1.996  12.645  19.313  0.00  0.00    +0.000 C 
ATOM     18  C   UNL     1       2.285  13.885  18.474  0.00  0.00    +0.000 C 
BRANCH  11  20
ATOM     19  C   UNL     1       2.998  16.126  20.325  0.00  0.00    +0.000 C 
ATOM     20  N   UNL     1       1.627  15.600  20.208  0.00  0.00    +0.000 NA
ATOM     21  C   UNL     1       0.703  16.672  20.599  0.00  0.00    +0.000 C 
ENDBRANCH  11  20
ENDBRANCH   1  15
BRANCH   8  22
ATOM     22  C   UNL     1       1.879   4.633  20.236  0.00  0.00    +0.000 C 
BRANCH  22  23
ATOM     23  C   UNL     1       2.083   3.994  18.860  0.00  0.00    +0.000 C 
ATOM     24  C   UNL     1       3.303   3.064  18.683  0.00  0.00    +0.000 C 
ATOM     25  C   UNL     1       2.424   2.155  17.806  0.00  0.00    +0.000 C 
ATOM     26  C   UNL     1       1.185   2.790  18.465  0.00  0.00    +0.000 C 
ENDBRANCH  22  23
ENDBRANCH   8  22
TORSDOF 4
ENDMDL
MODEL 8
REMARK VINA RESULT:      -6.5      6.331      9.258
REMARK  Name = 
REMARK  6 active torsions:
REMARK  status: ('A' for Active; 'I' for Inactive)
REMARK    1  A    between atoms: C_1  and  N_2
REMARK    2  A    between atoms: N_2  and  C_3
REMARK    3  A    between atoms: N_2  and  C_4
REMARK    4  A    between atoms: C_8  and  C_10
REMARK    5  A    between atoms: N_17  and  C_18
REMARK    6  A    between atoms: C_18  and  C_19
REMARK                            x       y       z     vdW  Elec       q    Type
REMARK                         _______ _______ _______ _____ _____    ______ ____
ROOT
ATOM      1  C   UNL     1       6.798   5.423  18.159  0.00  0.00    +0.000 A 
ATOM      2  N   UNL     1       7.413   4.891  19.241  0.00  0.00    +0.000 NA
ATOM      3  N   UNL     1       8.288   5.825  19.628  0.00  0.00    +0.000 N 
ATOM      4  C   UNL     1       8.232   6.949  18.864  0.00  0.00    +0.000 A 
ATOM      5  C   UNL     1       7.307   6.713  17.897  0.00  0.00    +0.000 A 
ATOM      6  C   UNL     1       6.982   7.717  16.871  0.00  0.00    +0.000 C 
ATOM      7  C   UNL     1       7.444   9.126  17.311  0.00  0.00    +0.000 C 
ATOM      8  N   UNL     1       8.595   9.323  18.240  0.00  0.00    +0.000 NA
ATOM      9  C   UNL     1       8.987   8.194  19.107  0.00  0.00    +0.000 C 
ATOM     10  H   UNL     1       8.869   5.640  20.438  0.00  0.00    +0.000 HD
ENDROOT
BRANCH   1  15
ATOM     11  C   UNL     1       1.797   4.395  19.308  0.00  0.00    +0.000 C 
ATOM     12  C   UNL     1       2.019   4.588  17.788  0.00  0.00    +0.000 C 
ATOM     13  C   UNL     1       3.355   4.020  17.310  0.00  0.00    +0.000 C 
ATOM     14  N   UNL     1       4.462   4.564  18.088  0.00  0.00    +0.000 N 
ATOM     15  C   UNL     1       5.678   4.779  17.435  0.00  0.00    +0.000 C 
ATOM     16  O   UNL     1       5.828   4.447  16.254  0.00  0.00    +0.000 OA
ATOM     17  C   UNL     1       4.331   4.414  19.536  0.00  0.00    +0.000 C 
ATOM     18  C   UNL     1       3.021   5.034  20.010  0.00  0.00    +0.000 C 
BRANCH  11  20
ATOM     19  C   UNL     1       1.234   2.869  21.148  0.00  0.00    +0.000 C 
ATOM     20  N   UNL     1       1.577   2.982  19.720  0.00  0.00    +0.000 NA
ATOM     21  C   UNL     1       0.514   2.320  18.953  0.00  0.00    +0.000 C 
ENDBRANCH  11  20
ENDBRANCH   1  15
BRANCH   8  22
ATOM     22  C   UNL     1       8.377  10.587  18.994  0.00  0.00    +0.000 C 
BRANCH  22  23
ATOM     23  C   UNL     1       9.506  11.612  18.866  0.00  0.00    +0.000 C 
ATOM     24  C   UNL     1      10.600  11.603  19.955  0.00  0.00    +0.000 C 
ATOM     25  C   UNL     1      11.634  11.895  18.853  0.00  0.00    +0.000 C 
ATOM     26  C   UNL     1      10.627  11.349  17.824  0.00  0.00    +0.000 C 
ENDBRANCH  22  23
ENDBRANCH   8  22
TORSDOF 4
ENDMDL
MODEL 9
REMARK VINA RESULT:      -6.5      3.316      4.366
REMARK  Name = 
REMARK  6 active torsions:
REMARK  status: ('A' for Active; 'I' for Inactive)
REMARK    1  A    between atoms: C_1  and  N_2
REMARK    2  A    between atoms: N_2  and  C_3
REMARK    3  A    between atoms: N_2  and  C_4
REMARK    4  A    between atoms: C_8  and  C_10
REMARK    5  A    between atoms: N_17  and  C_18
REMARK    6  A    between atoms: C_18  and  C_19
REMARK                            x       y       z     vdW  Elec       q    Type
REMARK                         _______ _______ _______ _____ _____    ______ ____
ROOT
ATOM      1  C   UNL     1       1.326   9.295  20.149  0.00  0.00    +0.000 A 
ATOM      2  N   UNL     1       1.195   8.664  21.339  0.00  0.00    +0.000 NA
ATOM      3  N   UNL     1       1.653   7.427  21.120  0.00  0.00    +0.000 N 
ATOM      4  C   UNL     1       2.109   7.250  19.851  0.00  0.00    +0.000 A 
ATOM      5  C   UNL     1       1.888   8.420  19.195  0.00  0.00    +0.000 A 
ATOM      6  C   UNL     1       2.252   8.598  17.781  0.00  0.00    +0.000 C 
ATOM      7  C   UNL     1       3.276   7.528  17.334  0.00  0.00    +0.000 C 
ATOM      8  N   UNL     1       3.343   6.184  17.981  0.00  0.00    +0.000 NA
ATOM      9  C   UNL     1       2.777   6.038  19.336  0.00  0.00    +0.000 C 
ATOM     10  H   UNL     1       1.653   6.766  21.889  0.00  0.00    +0.000 HD
ENDROOT
BRANCH   1  15
ATOM     11  C   UNL     1      -1.361  12.928  22.788  0.00  0.00    +0.000 C 
ATOM     12  C   UNL     1      -0.222  13.546  21.940  0.00  0.00    +0.000 C 
ATOM     13  C   UNL     1      -0.027  12.831  20.603  0.00  0.00    +0.000 C 
ATOM     14  N   UNL     1       0.165  11.399  20.800  0.00  0.00    +0.000 N 
ATOM     15  C   UNL     1       1.024  10.727  19.926  0.00  0.00    +0.000 C 
ATOM     16  O   UNL     1       1.543  11.318  18.973  0.00  0.00    +0.000 OA
ATOM     17  C   UNL     1      -0.876  10.739  21.585  0.00  0.00    +0.000 C 
ATOM     18  C   UNL     1      -1.023  11.424  22.940  0.00  0.00    +0.000 C 
BRANCH  11  20
ATOM     19  C   UNL     1      -3.775  12.631  23.126  0.00  0.00    +0.000 C 
ATOM     20  N   UNL     1      -2.725  13.153  22.235  0.00  0.00    +0.000 NA
ATOM     21  C   UNL     1      -3.016  14.570  21.986  0.00  0.00    +0.000 C 
ENDBRANCH  11  20
ENDBRANCH   1  15
BRANCH   8  22
ATOM     22  C   UNL     1       4.741   5.684  17.877  0.00  0.00    +0.000 C 
BRANCH  22  23
ATOM     23  C   UNL     1       5.305   5.651  16.454  0.00  0.00    +0.000 C 
ATOM     24  C   UNL     1       6.841   5.636  16.300  0.00  0.00    +0.000 C 
ATOM     25  C   UNL     1       6.667   4.659  15.123  0.00  0.00    +0.000 C 
ATOM     26  C   UNL     1       5.275   4.304  15.680  0.00  0.00    +0.000 C 
ENDBRANCH  22  23
ENDBRANCH   8  22
TORSDOF 4
ENDMDL
