MODEL 1
REMARK VINA RESULT:      -4.9      0.000      0.000
REMARK  Name = 
REMARK  9 active torsions:
REMARK  status: ('A' for Active; 'I' for Inactive)
REMARK    1  A    between atoms: C_1  and  C_2
REMARK    2  A    between atoms: C_2  and  C_3
REMARK    3  A    between atoms: C_3  and  C_4
REMARK    4  A    between atoms: C_3  and  C_5
REMARK    5  A    between atoms: C_5  and  C_6
REMARK    6  A    between atoms: C_5  and  C_8
REMARK    7  A    between atoms: C_6  and  N_7
REMARK    8  A    between atoms: C_8  and  C_9
REMARK    9  A    between atoms: C_9  and  O_11
REMARK                            x       y       z     vdW  Elec       q    Type
REMARK                         _______ _______ _______ _____ _____    ______ ____
ROOT
ATOM      1  C   UNL     1       5.890   5.073  17.663  0.00  0.00    +0.000 C 
ENDROOT
BRANCH   1   2
ATOM      2  C   UNL     1       5.851   5.420  16.129  0.00  0.00    +0.000 C 
ATOM      3  C   UNL     1       5.014   6.681  15.865  0.00  0.00    +0.000 C 
BRANCH   2   5
ATOM      4  C   UNL     1       6.169   4.066  13.961  0.00  0.00    +0.000 C 
ATOM      5  C   UNL     1       5.384   4.234  15.256  0.00  0.00    +0.000 C 
ENDBRANCH   2   5
ENDBRANCH   1   2
BRANCH   1   6
ATOM      6  C   UNL     1       4.968   3.883  18.023  0.00  0.00    +0.000 C 
BRANCH   6   7
ATOM      7  N   UNL     1       5.312   3.273  19.307  0.00  0.00    +0.000 NA
ATOM      8  H   UNL     1       4.530   2.723  19.658  0.00  0.00    +0.000 HD
ATOM      9  H   UNL     1       5.429   4.016  20.000  0.00  0.00    +0.000 HD
ENDBRANCH   6   7
ENDBRANCH   1   6
BRANCH   1  10
ATOM     10  C   UNL     1       7.325   4.818  18.174  0.00  0.00    +0.000 C 
BRANCH  10  11
ATOM     11  C   UNL     1       7.839   5.886  19.102  0.00  0.00    +0.000 C 
ATOM     12  O   UNL     1       8.190   6.998  18.736  0.00  0.00    +0.000 OA
BRANCH  11  13
ATOM     13  O   UNL     1       7.907   5.489  20.391  0.00  0.00    +0.000 OA
ATOM     14  H   UNL     1       8.194   4.562  20.503  0.00  0.00    +0.000 HD
ENDBRANCH  11  13
ENDBRANCH  10  11
ENDBRANCH   1  10
TORSDOF 7
ENDMDL
MODEL 2
REMARK VINA RESULT:      -4.9      2.358      3.432
REMARK  Name = 
REMARK  9 active torsions:
REMARK  status: ('A' for Active; 'I' for Inactive)
REMARK    1  A    between atoms: C_1  and  C_2
REMARK    2  A    between atoms: C_2  and  C_3
REMARK    3  A    between atoms: C_3  and  C_4
REMARK    4  A    between atoms: C_3  and  C_5
REMARK    5  A    between atoms: C_5  and  C_6
REMARK    6  A    between atoms: C_5  and  C_8
REMARK    7  A    between atoms: C_6  and  N_7
REMARK    8  A    between atoms: C_8  and  C_9
REMARK    9  A    between atoms: C_9  and  O_11
REMARK                            x       y       z     vdW  Elec       q    Type
REMARK                         _______ _______ _______ _____ _____    ______ ____
ROOT
ATOM      1  C   UNL     1       4.565   4.376  17.912  0.00  0.00    +0.000 C 
ENDROOT
BRANCH   1   2
ATOM      2  C   UNL     1       3.354   5.348  17.667  0.00  0.00    +0.000 C 
ATOM      3  C   UNL     1       3.802   6.817  17.708  0.00  0.00    +0.000 C 
BRANCH   2   5
ATOM      4  C   UNL     1       2.263   5.836  19.950  0.00  0.00    +0.000 C 
ATOM      5  C   UNL     1       2.170   5.088  18.626  0.00  0.00    +0.000 C 
ENDBRANCH   2   5
ENDBRANCH   1   2
BRANCH   1   6
ATOM      6  C   UNL     1       4.121   3.016  18.505  0.00  0.00    +0.000 C 
BRANCH   6   7
ATOM      7  N   UNL     1       5.037   2.525  19.535  0.00  0.00    +0.000 NA
ATOM      8  H   UNL     1       4.535   2.367  20.407  0.00  0.00    +0.000 HD
ATOM      9  H   UNL     1       5.704   3.269  19.759  0.00  0.00    +0.000 HD
ENDBRANCH   6   7
ENDBRANCH   1   6
BRANCH   1  10
ATOM     10  C   UNL     1       5.414   4.158  16.641  0.00  0.00    +0.000 C 
BRANCH  10  11
ATOM     11  C   UNL     1       6.879   4.454  16.829  0.00  0.00    +0.000 C 
ATOM     12  O   UNL     1       7.621   4.826  15.933  0.00  0.00    +0.000 OA
BRANCH  11  13
ATOM     13  O   UNL     1       7.311   4.239  18.090  0.00  0.00    +0.000 OA
ATOM     14  H   UNL     1       6.934   3.440  18.505  0.00  0.00    +0.000 HD
ENDBRANCH  11  13
ENDBRANCH  10  11
ENDBRANCH   1  10
TORSDOF 7
ENDMDL
MODEL 3
REMARK VINA RESULT:      -4.8      2.554      3.734
REMARK  Name = 
REMARK  9 active torsions:
REMARK  status: ('A' for Active; 'I' for Inactive)
REMARK    1  A    between atoms: C_1  and  C_2
REMARK    2  A    between atoms: C_2  and  C_3
REMARK    3  A    between atoms: C_3  and  C_4
REMARK    4  A    between atoms: C_3  and  C_5
REMARK    5  A    between atoms: C_5  and  C_6
REMARK    6  A    between atoms: C_5  and  C_8
REMARK    7  A    between atoms: C_6  and  N_7
REMARK    8  A    between atoms: C_8  and  C_9
REMARK    9  A    between atoms: C_9  and  O_11
REMARK                            x       y       z     vdW  Elec       q    Type
REMARK                         _______ _______ _______ _____ _____    ______ ____
ROOT
ATOM      1  C   UNL     1       5.788   4.567  17.121  0.00  0.00    +0.000 C 
ENDROOT
BRANCH   1   2
ATOM      2  C   UNL     1       5.955   5.946  17.858  0.00  0.00    +0.000 C 
ATOM      3  C   UNL     1       5.113   7.042  17.187  0.00  0.00    +0.000 C 
BRANCH   2   5
ATOM      4  C   UNL     1       7.713   7.807  17.567  0.00  0.00    +0.000 C 
ATOM      5  C   UNL     1       7.432   6.375  18.005  0.00  0.00    +0.000 C 
ENDBRANCH   2   5
ENDBRANCH   1   2
BRANCH   1   6
ATOM      6  C   UNL     1       4.776   3.636  17.831  0.00  0.00    +0.000 C 
BRANCH   6   7
ATOM      7  N   UNL     1       5.203   3.264  19.179  0.00  0.00    +0.000 NA
ATOM      8  H   UNL     1       5.079   2.264  19.326  0.00  0.00    +0.000 HD
ATOM      9  H   UNL     1       4.568   3.698  19.854  0.00  0.00    +0.000 HD
ENDBRANCH   6   7
ENDBRANCH   1   6
BRANCH   1  10
ATOM     10  C   UNL     1       5.413   4.735  15.632  0.00  0.00    +0.000 C 
BRANCH  10  11
ATOM     11  C   UNL     1       6.570   4.539  14.687  0.00  0.00    +0.000 C 
ATOM     12  O   UNL     1       7.519   5.303  14.602  0.00  0.00    +0.000 OA
BRANCH  11  13
ATOM     13  O   UNL     1       6.446   3.442  13.910  0.00  0.00    +0.000 OA
ATOM     14  H   UNL     1       5.651   3.447  13.344  0.00  0.00    +0.000 HD
ENDBRANCH  11  13
ENDBRANCH  10  11
ENDBRANCH   1  10
TORSDOF 7
ENDMDL
MODEL 4
REMARK VINA RESULT:      -4.8      2.518      3.440
REMARK  Name = 
REMARK  9 active torsions:
REMARK  status: ('A' for Active; 'I' for Inactive)
REMARK    1  A    between atoms: C_1  and  C_2
REMARK    2  A    between atoms: C_2  and  C_3
REMARK    3  A    between atoms: C_3  and  C_4
REMARK    4  A    between atoms: C_3  and  C_5
REMARK    5  A    between atoms: C_5  and  C_6
REMARK    6  A    between atoms: C_5  and  C_8
REMARK    7  A    between atoms: C_6  and  N_7
REMARK    8  A    between atoms: C_8  and  C_9
REMARK    9  A    between atoms: C_9  and  O_11
REMARK                            x       y       z     vdW  Elec       q    Type
REMARK                         _______ _______ _______ _____ _____    ______ ____
ROOT
ATOM      1  C   UNL     1       5.138   5.318  17.735  0.00  0.00    +0.000 C 
ENDROOT
BRANCH   1   2
ATOM      2  C   UNL     1       3.593   5.547  17.554  0.00  0.00    +0.000 C 
ATOM      3  C   UNL     1       3.152   6.881  18.174  0.00  0.00    +0.000 C 
BRANCH   2   5
ATOM      4  C   UNL     1       1.807   4.734  19.222  0.00  0.00    +0.000 C 
ATOM      5  C   UNL     1       2.744   4.367  18.079  0.00  0.00    +0.000 C 
ENDBRANCH   2   5
ENDBRANCH   1   2
BRANCH   1   6
ATOM      6  C   UNL     1       5.497   4.795  19.147  0.00  0.00    +0.000 C 
BRANCH   6   7
ATOM      7  N   UNL     1       6.738   5.372  19.663  0.00  0.00    +0.000 NA
ATOM      8  H   UNL     1       6.536   6.025  20.418  0.00  0.00    +0.000 HD
ATOM      9  H   UNL     1       7.155   5.953  18.931  0.00  0.00    +0.000 HD
ENDBRANCH   6   7
ENDBRANCH   1   6
BRANCH   1  10
ATOM     10  C   UNL     1       5.729   4.391  16.650  0.00  0.00    +0.000 C 
BRANCH  10  11
ATOM     11  C   UNL     1       7.147   4.726  16.269  0.00  0.00    +0.000 C 
ATOM     12  O   UNL     1       7.450   5.432  15.319  0.00  0.00    +0.000 OA
BRANCH  11  13
ATOM     13  O   UNL     1       8.068   4.145  17.066  0.00  0.00    +0.000 OA
ATOM     14  H   UNL     1       8.041   4.455  17.992  0.00  0.00    +0.000 HD
ENDBRANCH  11  13
ENDBRANCH  10  11
ENDBRANCH   1  10
TORSDOF 7
ENDMDL
MODEL 5
REMARK VINA RESULT:      -4.8      3.707      5.256
REMARK  Name = 
REMARK  9 active torsions:
REMARK  status: ('A' for Active; 'I' for Inactive)
REMARK    1  A    between atoms: C_1  and  C_2
REMARK    2  A    between atoms: C_2  and  C_3
REMARK    3  A    between atoms: C_3  and  C_4
REMARK    4  A    between atoms: C_3  and  C_5
REMARK    5  A    between atoms: C_5  and  C_6
REMARK    6  A    between atoms: C_5  and  C_8
REMARK    7  A    between atoms: C_6  and  N_7
REMARK    8  A    between atoms: C_8  and  C_9
REMARK    9  A    between atoms: C_9  and  O_11
REMARK                            x       y       z     vdW  Elec       q    Type
REMARK                         _______ _______ _______ _____ _____    ______ ____
ROOT
ATOM      1  C   UNL     1       6.391   3.623  12.967  0.00  0.00    +0.000 C 
ENDROOT
BRANCH   1   2
ATOM      2  C   UNL     1       5.287   2.855  12.152  0.00  0.00    +0.000 C 
ATOM      3  C   UNL     1       5.902   1.733  11.302  0.00  0.00    +0.000 C 
BRANCH   2   5
ATOM      4  C   UNL     1       3.291   3.086  10.539  0.00  0.00    +0.000 C 
ATOM      5  C   UNL     1       4.405   3.795  11.300  0.00  0.00    +0.000 C 
ENDBRANCH   2   5
ENDBRANCH   1   2
BRANCH   1   6
ATOM      6  C   UNL     1       7.268   4.527  12.067  0.00  0.00    +0.000 C 
BRANCH   6   7
ATOM      7  N   UNL     1       7.979   5.556  12.826  0.00  0.00    +0.000 NA
ATOM      8  H   UNL     1       8.077   5.273  13.799  0.00  0.00    +0.000 HD
ATOM      9  H   UNL     1       7.395   6.395  12.864  0.00  0.00    +0.000 HD
ENDBRANCH   6   7
ENDBRANCH   1   6
BRANCH   1  10
ATOM     10  C   UNL     1       5.801   4.438  14.138  0.00  0.00    +0.000 C 
BRANCH  10  11
ATOM     11  C   UNL     1       6.484   4.191  15.457  0.00  0.00    +0.000 C 
ATOM     12  O   UNL     1       7.549   4.695  15.780  0.00  0.00    +0.000 OA
BRANCH  11  13
ATOM     13  O   UNL     1       5.818   3.325  16.251  0.00  0.00    +0.000 OA
ATOM     14  H   UNL     1       5.448   2.557  15.774  0.00  0.00    +0.000 HD
ENDBRANCH  11  13
ENDBRANCH  10  11
ENDBRANCH   1  10
TORSDOF 7
ENDMDL
MODEL 6
REMARK VINA RESULT:      -4.8      4.207      5.300
REMARK  Name = 
REMARK  9 active torsions:
REMARK  status: ('A' for Active; 'I' for Inactive)
REMARK    1  A    between atoms: C_1  and  C_2
REMARK    2  A    between atoms: C_2  and  C_3
REMARK    3  A    between atoms: C_3  and  C_4
REMARK    4  A    between atoms: C_3  and  C_5
REMARK    5  A    between atoms: C_5  and  C_6
REMARK    6  A    between atoms: C_5  and  C_8
REMARK    7  A    between atoms: C_6  and  N_7
REMARK    8  A    between atoms: C_8  and  C_9
REMARK    9  A    between atoms: C_9  and  O_11
REMARK                            x       y       z     vdW  Elec       q    Type
REMARK                         _______ _______ _______ _____ _____    ______ ____
ROOT
ATOM      1  C   UNL     1       2.661   2.685  18.776  0.00  0.00    +0.000 C 
ENDROOT
BRANCH   1   2
ATOM      2  C   UNL     1       2.697   3.701  17.576  0.00  0.00    +0.000 C 
ATOM      3  C   UNL     1       4.121   3.851  17.017  0.00  0.00    +0.000 C 
BRANCH   2   5
ATOM      4  C   UNL     1       3.080   6.218  17.969  0.00  0.00    +0.000 C 
ATOM      5  C   UNL     1       2.077   5.071  17.928  0.00  0.00    +0.000 C 
ENDBRANCH   2   5
ENDBRANCH   1   2
BRANCH   1   6
ATOM      6  C   UNL     1       3.713   1.559  18.629  0.00  0.00    +0.000 C 
BRANCH   6   7
ATOM      7  N   UNL     1       4.828   1.704  19.564  0.00  0.00    +0.000 NA
ATOM      8  H   UNL     1       5.162   2.666  19.569  0.00  0.00    +0.000 HD
ATOM      9  H   UNL     1       5.621   1.163  19.211  0.00  0.00    +0.000 HD
ENDBRANCH   6   7
ENDBRANCH   1   6
BRANCH   1  10
ATOM     10  C   UNL     1       2.807   3.384  20.145  0.00  0.00    +0.000 C 
BRANCH  10  11
ATOM     11  C   UNL     1       1.691   3.076  21.108  0.00  0.00    +0.000 C 
ATOM     12  O   UNL     1       1.858   2.841  22.295  0.00  0.00    +0.000 OA
BRANCH  11  13
ATOM     13  O   UNL     1       0.473   3.053  20.526  0.00  0.00    +0.000 OA
ATOM     14  H   UNL     1      -0.211   2.607  21.062  0.00  0.00    +0.000 HD
ENDBRANCH  11  13
ENDBRANCH  10  11
ENDBRANCH   1  10
TORSDOF 7
ENDMDL
MODEL 7
REMARK VINA RESULT:      -4.7      3.292      4.842
REMARK  Name = 
REMARK  9 active torsions:
REMARK  status: ('A' for Active; 'I' for Inactive)
REMARK    1  A    between atoms: C_1  and  C_2
REMARK    2  A    between atoms: C_2  and  C_3
REMARK    3  A    between atoms: C_3  and  C_4
REMARK    4  A    between atoms: C_3  and  C_5
REMARK    5  A    between atoms: C_5  and  C_6
REMARK    6  A    between atoms: C_5  and  C_8
REMARK    7  A    between atoms: C_6  and  N_7
REMARK    8  A    between atoms: C_8  and  C_9
REMARK    9  A    between atoms: C_9  and  O_11
REMARK                            x       y       z     vdW  Elec       q    Type
REMARK                         _______ _______ _______ _____ _____    ______ ____
ROOT
ATOM      1  C   UNL     1       3.068   3.623  18.861  0.00  0.00    +0.000 C 
ENDROOT
BRANCH   1   2
ATOM      2  C   UNL     1       1.773   4.303  19.438  0.00  0.00    +0.000 C 
ATOM      3  C   UNL     1       2.120   5.553  20.262  0.00  0.00    +0.000 C 
BRANCH   2   5
ATOM      4  C   UNL     1       1.545   2.760  21.488  0.00  0.00    +0.000 C 
ATOM      5  C   UNL     1       0.884   3.324  20.237  0.00  0.00    +0.000 C 
ENDBRANCH   2   5
ENDBRANCH   1   2
BRANCH   1   6
ATOM      6  C   UNL     1       2.745   2.414  17.950  0.00  0.00    +0.000 C 
BRANCH   6   7
ATOM      7  N   UNL     1       3.416   1.188  18.381  0.00  0.00    +0.000 NA
ATOM      8  H   UNL     1       4.405   1.367  18.548  0.00  0.00    +0.000 HD
ATOM      9  H   UNL     1       3.408   0.523  17.604  0.00  0.00    +0.000 HD
ENDBRANCH   6   7
ENDBRANCH   1   6
BRANCH   1  10
ATOM     10  C   UNL     1       3.983   4.625  18.123  0.00  0.00    +0.000 C 
BRANCH  10  11
ATOM     11  C   UNL     1       5.453   4.350  18.299  0.00  0.00    +0.000 C 
ATOM     12  O   UNL     1       6.069   4.564  19.332  0.00  0.00    +0.000 OA
BRANCH  11  13
ATOM     13  O   UNL     1       6.044   3.866  17.186  0.00  0.00    +0.000 OA
ATOM     14  H   UNL     1       5.808   4.351  16.371  0.00  0.00    +0.000 HD
ENDBRANCH  11  13
ENDBRANCH  10  11
ENDBRANCH   1  10
TORSDOF 7
ENDMDL
MODEL 8
REMARK VINA RESULT:      -4.7      2.362      3.191
REMARK  Name = 
REMARK  9 active torsions:
REMARK  status: ('A' for Active; 'I' for Inactive)
REMARK    1  A    between atoms: C_1  and  C_2
REMARK    2  A    between atoms: C_2  and  C_3
REMARK    3  A    between atoms: C_3  and  C_4
REMARK    4  A    between atoms: C_3  and  C_5
REMARK    5  A    between atoms: C_5  and  C_6
REMARK    6  A    between atoms: C_5  and  C_8
REMARK    7  A    between atoms: C_6  and  N_7
REMARK    8  A    between atoms: C_8  and  C_9
REMARK    9  A    between atoms: C_9  and  O_11
REMARK                            x       y       z     vdW  Elec       q    Type
REMARK                         _______ _______ _______ _____ _____    ______ ____
ROOT
ATOM      1  C   UNL     1       5.352   4.738  16.681  0.00  0.00    +0.000 C 
ENDROOT
BRANCH   1   2
ATOM      2  C   UNL     1       3.898   5.112  17.149  0.00  0.00    +0.000 C 
ATOM      3  C   UNL     1       3.929   6.114  18.314  0.00  0.00    +0.000 C 
BRANCH   2   5
ATOM      4  C   UNL     1       1.580   4.193  17.794  0.00  0.00    +0.000 C 
ATOM      5  C   UNL     1       3.038   3.874  17.487  0.00  0.00    +0.000 C 
ENDBRANCH   2   5
ENDBRANCH   1   2
BRANCH   1   6
ATOM      6  C   UNL     1       5.480   4.681  15.140  0.00  0.00    +0.000 C 
BRANCH   6   7
ATOM      7  N   UNL     1       6.359   3.603  14.687  0.00  0.00    +0.000 NA
ATOM      8  H   UNL     1       7.335   3.861  14.826  0.00  0.00    +0.000 HD
ATOM      9  H   UNL     1       6.265   3.509  13.673  0.00  0.00    +0.000 HD
ENDBRANCH   6   7
ENDBRANCH   1   6
BRANCH   1  10
ATOM     10  C   UNL     1       6.425   5.677  17.276  0.00  0.00    +0.000 C 
BRANCH  10  11
ATOM     11  C   UNL     1       7.516   4.958  18.023  0.00  0.00    +0.000 C 
ATOM     12  O   UNL     1       7.796   5.168  19.194  0.00  0.00    +0.000 OA
BRANCH  11  13
ATOM     13  O   UNL     1       8.188   4.066  17.264  0.00  0.00    +0.000 OA
ATOM     14  H   UNL     1       8.483   3.274  17.753  0.00  0.00    +0.000 HD
ENDBRANCH  11  13
ENDBRANCH  10  11
ENDBRANCH   1  10
TORSDOF 7
ENDMDL
MODEL 9
REMARK VINA RESULT:      -4.7      3.753      4.865
REMARK  Name = 
REMARK  9 active torsions:
REMARK  status: ('A' for Active; 'I' for Inactive)
REMARK    1  A    between atoms: C_1  and  C_2
REMARK    2  A    between atoms: C_2  and  C_3
REMARK    3  A    between atoms: C_3  and  C_4
REMARK    4  A    between atoms: C_3  and  C_5
REMARK    5  A    between atoms: C_5  and  C_6
REMARK    6  A    between atoms: C_5  and  C_8
REMARK    7  A    between atoms: C_6  and  N_7
REMARK    8  A    between atoms: C_8  and  C_9
REMARK    9  A    between atoms: C_9  and  O_11
REMARK                            x       y       z     vdW  Elec       q    Type
REMARK                         _______ _______ _______ _____ _____    ______ ____
ROOT
ATOM      1  C   UNL     1       3.759   3.625  18.019  0.00  0.00    +0.000 C 
ENDROOT
BRANCH   1   2
ATOM      2  C   UNL     1       4.293   4.701  17.005  0.00  0.00    +0.000 C 
ATOM      3  C   UNL     1       5.218   4.066  15.955  0.00  0.00    +0.000 C 
BRANCH   2   5
ATOM      4  C   UNL     1       5.736   6.821  16.760  0.00  0.00    +0.000 C 
ATOM      5  C   UNL     1       4.965   5.905  17.702  0.00  0.00    +0.000 C 
ENDBRANCH   2   5
ENDBRANCH   1   2
BRANCH   1   6
ATOM      6  C   UNL     1       4.523   3.652  19.365  0.00  0.00    +0.000 C 
BRANCH   6   7
ATOM      7  N   UNL     1       4.980   2.325  19.780  0.00  0.00    +0.000 NA
ATOM      8  H   UNL     1       5.927   2.158  19.446  0.00  0.00    +0.000 HD
ATOM      9  H   UNL     1       4.415   1.621  19.299  0.00  0.00    +0.000 HD
ENDBRANCH   6   7
ENDBRANCH   1   6
BRANCH   1  10
ATOM     10  C   UNL     1       2.238   3.742  18.260  0.00  0.00    +0.000 C 
BRANCH  10  11
ATOM     11  C   UNL     1       1.537   2.415  18.381  0.00  0.00    +0.000 C 
ATOM     12  O   UNL     1       0.330   2.291  18.529  0.00  0.00    +0.000 OA
BRANCH  11  13
ATOM     13  O   UNL     1       2.377   1.359  18.341  0.00  0.00    +0.000 OA
ATOM     14  H   UNL     1       3.317   1.607  18.239  0.00  0.00    +0.000 HD
ENDBRANCH  11  13
ENDBRANCH  10  11
ENDBRANCH   1  10
TORSDOF 7
ENDMDL
