MODEL 1
REMARK VINA RESULT:      -8.8      0.000      0.000
REMARK  Name = 
REMARK  8 active torsions:
REMARK  status: ('A' for Active; 'I' for Inactive)
REMARK    1  A    between atoms: N_1  and  C_2
REMARK    2  A    between atoms: C_2  and  C_3
REMARK    3  A    between atoms: C_5  and  O_6
REMARK    4  A    between atoms: O_6  and  C_7
REMARK    5  A    between atoms: C_7  and  C_8
REMARK    6  A    between atoms: C_12  and  C_13
REMARK    7  A    between atoms: N_15  and  C_16
REMARK    8  A    between atoms: C_16  and  C_17
REMARK                            x       y       z     vdW  Elec       q    Type
REMARK                         _______ _______ _______ _____ _____    ______ ____
ROOT
ATOM      1  C   UNL     1       2.764   4.600  18.416  0.00  0.00    +0.000 A 
ATOM      2  C   UNL     1       2.581   4.108  19.716  0.00  0.00    +0.000 A 
ATOM      3  C   UNL     1       2.192   4.965  20.751  0.00  0.00    +0.000 A 
ATOM      4  C   UNL     1       1.988   6.327  20.505  0.00  0.00    +0.000 A 
ATOM      5  C   UNL     1       2.184   6.839  19.220  0.00  0.00    +0.000 A 
ATOM      6  C   UNL     1       2.575   5.972  18.183  0.00  0.00    +0.000 A 
ENDROOT
BRANCH   5   7
ATOM      7  C   UNL     1       1.882   8.259  18.875  0.00  0.00    +0.000 C 
ATOM      8  O   UNL     1       2.253   8.703  17.792  0.00  0.00    +0.000 OA
ATOM      9  N   UNL     1       1.198   9.031  19.796  0.00  0.00    +0.000 N 
ATOM     10  H   UNL     1       1.043   8.704  20.740  0.00  0.00    +0.000 HD
BRANCH   9  11
ATOM     11  C   UNL     1       0.927  10.414  19.478  0.00  0.00    +0.000 C 
BRANCH  11  12
ATOM     12  C   UNL     1      -0.398  10.547  18.818  0.00  0.00    +0.000 A 
ATOM     13  C   UNL     1      -1.546  11.188  19.241  0.00  0.00    +0.000 A 
ATOM     14  C   UNL     1      -2.499  11.137  18.190  0.00  0.00    +0.000 A 
ATOM     15  C   UNL     1      -3.801  11.648  18.029  0.00  0.00    +0.000 A 
ATOM     16  C   UNL     1      -4.498  11.391  16.844  0.00  0.00    +0.000 A 
ATOM     17  C   UNL     1      -3.915  10.640  15.828  0.00  0.00    +0.000 A 
ATOM     18  C   UNL     1      -2.608  10.145  15.953  0.00  0.00    +0.000 A 
ATOM     19  C   UNL     1      -1.922  10.417  17.145  0.00  0.00    +0.000 A 
ATOM     20  N   UNL     1      -0.639  10.097  17.537  0.00  0.00    +0.000 N 
ATOM     21  H   UNL     1       0.034   9.632  16.943  0.00  0.00    +0.000 HD
ENDBRANCH  11  12
ENDBRANCH   9  11
ENDBRANCH   5   7
BRANCH   1  22
ATOM     22  C   UNL     1       3.090   3.658  17.276  0.00  0.00    +0.000 C 
BRANCH  22  23
ATOM     23  O   UNL     1       4.425   3.155  17.398  0.00  0.00    +0.000 OA
BRANCH  23  26
ATOM     24  C   UNL     1       7.134   5.491  17.867  0.00  0.00    +0.000 A 
ATOM     25  C   UNL     1       6.201   4.508  18.158  0.00  0.00    +0.000 A 
ATOM     26  C   UNL     1       5.375   4.128  17.124  0.00  0.00    +0.000 A 
ATOM     27  N   UNL     1       5.442   4.655  15.888  0.00  0.00    +0.000 NA
ATOM     28  C   UNL     1       6.381   5.593  15.709  0.00  0.00    +0.000 A 
ATOM     29  N   UNL     1       7.238   6.042  16.635  0.00  0.00    +0.000 NA
BRANCH  24  30
ATOM     30  C   UNL     1       8.076   6.011  18.930  0.00  0.00    +0.000 C 
BRANCH  30  31
ATOM     31  N   UNL     1       7.756   5.520  20.272  0.00  0.00    +0.000 NA
ATOM     32  H   UNL     1       7.097   4.746  20.184  0.00  0.00    +0.000 HD
ATOM     33  H   UNL     1       7.249   6.257  20.764  0.00  0.00    +0.000 HD
ENDBRANCH  30  31
ENDBRANCH  24  30
ENDBRANCH  23  26
ENDBRANCH  22  23
ENDBRANCH   1  22
TORSDOF 8
ENDMDL
MODEL 2
REMARK VINA RESULT:      -8.5      1.351      1.696
REMARK  Name = 
REMARK  8 active torsions:
REMARK  status: ('A' for Active; 'I' for Inactive)
REMARK    1  A    between atoms: N_1  and  C_2
REMARK    2  A    between atoms: C_2  and  C_3
REMARK    3  A    between atoms: C_5  and  O_6
REMARK    4  A    between atoms: O_6  and  C_7
REMARK    5  A    between atoms: C_7  and  C_8
REMARK    6  A    between atoms: C_12  and  C_13
REMARK    7  A    between atoms: N_15  and  C_16
REMARK    8  A    between atoms: C_16  and  C_17
REMARK                            x       y       z     vdW  Elec       q    Type
REMARK                         _______ _______ _______ _____ _____    ______ ____
ROOT
ATOM      1  C   UNL     1       2.691   4.462  18.430  0.00  0.00    +0.000 A 
ATOM      2  C   UNL     1       2.329   3.602  19.476  0.00  0.00    +0.000 A 
ATOM      3  C   UNL     1       1.816   4.115  20.672  0.00  0.00    +0.000 A 
ATOM      4  C   UNL     1       1.665   5.494  20.845  0.00  0.00    +0.000 A 
ATOM      5  C   UNL     1       2.038   6.369  19.821  0.00  0.00    +0.000 A 
ATOM      6  C   UNL     1       2.553   5.847  18.621  0.00  0.00    +0.000 A 
ENDROOT
BRANCH   5   7
ATOM      7  C   UNL     1       1.805   7.840  19.907  0.00  0.00    +0.000 C 
ATOM      8  O   UNL     1       1.597   8.349  21.004  0.00  0.00    +0.000 OA
ATOM      9  N   UNL     1       1.825   8.581  18.738  0.00  0.00    +0.000 N 
ATOM     10  H   UNL     1       1.835   8.130  17.834  0.00  0.00    +0.000 HD
BRANCH   9  11
ATOM     11  C   UNL     1       1.573  10.001  18.813  0.00  0.00    +0.000 C 
BRANCH  11  12
ATOM     12  C   UNL     1       0.143  10.292  18.528  0.00  0.00    +0.000 A 
ATOM     13  C   UNL     1      -0.740   9.668  17.668  0.00  0.00    +0.000 A 
ATOM     14  C   UNL     1      -2.026  10.240  17.857  0.00  0.00    +0.000 A 
ATOM     15  C   UNL     1      -3.297   9.984  17.308  0.00  0.00    +0.000 A 
ATOM     16  C   UNL     1      -4.386  10.768  17.702  0.00  0.00    +0.000 A 
ATOM     17  C   UNL     1      -4.222  11.792  18.631  0.00  0.00    +0.000 A 
ATOM     18  C   UNL     1      -2.972  12.046  19.214  0.00  0.00    +0.000 A 
ATOM     19  C   UNL     1      -1.893  11.247  18.811  0.00  0.00    +0.000 A 
ATOM     20  N   UNL     1      -0.577  11.239  19.225  0.00  0.00    +0.000 N 
ATOM     21  H   UNL     1      -0.213  11.824  19.965  0.00  0.00    +0.000 HD
ENDBRANCH  11  12
ENDBRANCH   9  11
ENDBRANCH   5   7
BRANCH   1  22
ATOM     22  C   UNL     1       3.155   3.904  17.100  0.00  0.00    +0.000 C 
BRANCH  22  23
ATOM     23  O   UNL     1       4.434   3.277  17.231  0.00  0.00    +0.000 OA
BRANCH  23  26
ATOM     24  C   UNL     1       7.035   5.770  17.056  0.00  0.00    +0.000 A 
ATOM     25  C   UNL     1       6.027   4.981  17.584  0.00  0.00    +0.000 A 
ATOM     26  C   UNL     1       5.456   4.067  16.726  0.00  0.00    +0.000 A 
ATOM     27  N   UNL     1       5.834   3.918  15.444  0.00  0.00    +0.000 NA
ATOM     28  C   UNL     1       6.820   4.724  15.033  0.00  0.00    +0.000 A 
ATOM     29  N   UNL     1       7.449   5.647  15.773  0.00  0.00    +0.000 NA
BRANCH  24  30
ATOM     30  C   UNL     1       7.717   6.829  17.894  0.00  0.00    +0.000 C 
BRANCH  30  31
ATOM     31  N   UNL     1       7.634   8.169  17.308  0.00  0.00    +0.000 NA
ATOM     32  H   UNL     1       8.573   8.463  17.042  0.00  0.00    +0.000 HD
ATOM     33  H   UNL     1       7.341   8.816  18.041  0.00  0.00    +0.000 HD
ENDBRANCH  30  31
ENDBRANCH  24  30
ENDBRANCH  23  26
ENDBRANCH  22  23
ENDBRANCH   1  22
TORSDOF 8
ENDMDL
MODEL 3
REMARK VINA RESULT:      -8.4      1.025      1.057
REMARK  Name = 
REMARK  8 active torsions:
REMARK  status: ('A' for Active; 'I' for Inactive)
REMARK    1  A    between atoms: N_1  and  C_2
REMARK    2  A    between atoms: C_2  and  C_3
REMARK    3  A    between atoms: C_5  and  O_6
REMARK    4  A    between atoms: O_6  and  C_7
REMARK    5  A    between atoms: C_7  and  C_8
REMARK    6  A    between atoms: C_12  and  C_13
REMARK    7  A    between atoms: N_15  and  C_16
REMARK    8  A    between atoms: C_16  and  C_17
REMARK                            x       y       z     vdW  Elec       q    Type
REMARK                         _______ _______ _______ _____ _____    ______ ____
ROOT
ATOM      1  C   UNL     1       2.829   4.960  18.600  0.00  0.00    +0.000 A 
ATOM      2  C   UNL     1       2.499   4.581  19.908  0.00  0.00    +0.000 A 
ATOM      3  C   UNL     1       1.956   5.511  20.801  0.00  0.00    +0.000 A 
ATOM      4  C   UNL     1       1.742   6.834  20.404  0.00  0.00    +0.000 A 
ATOM      5  C   UNL     1       2.083   7.236  19.109  0.00  0.00    +0.000 A 
ATOM      6  C   UNL     1       2.628   6.296  18.216  0.00  0.00    +0.000 A 
ENDROOT
BRANCH   5   7
ATOM      7  C   UNL     1       1.783   8.605  18.596  0.00  0.00    +0.000 C 
ATOM      8  O   UNL     1       2.105   8.897  17.448  0.00  0.00    +0.000 OA
ATOM      9  N   UNL     1       1.156   9.504  19.440  0.00  0.00    +0.000 N 
ATOM     10  H   UNL     1       1.045   9.305  20.425  0.00  0.00    +0.000 HD
BRANCH   9  11
ATOM     11  C   UNL     1       0.889  10.838  18.958  0.00  0.00    +0.000 C 
BRANCH  11  12
ATOM     12  C   UNL     1      -0.551  10.990  18.617  0.00  0.00    +0.000 A 
ATOM     13  C   UNL     1      -1.607  11.436  19.387  0.00  0.00    +0.000 A 
ATOM     14  C   UNL     1      -2.759  11.518  18.559  0.00  0.00    +0.000 A 
ATOM     15  C   UNL     1      -4.084  11.941  18.772  0.00  0.00    +0.000 A 
ATOM     16  C   UNL     1      -5.005  11.869  17.722  0.00  0.00    +0.000 A 
ATOM     17  C   UNL     1      -4.621  11.386  16.474  0.00  0.00    +0.000 A 
ATOM     18  C   UNL     1      -3.299  10.986  16.230  0.00  0.00    +0.000 A 
ATOM     19  C   UNL     1      -2.388  11.071  17.292  0.00  0.00    +0.000 A 
ATOM     20  N   UNL     1      -1.039  10.787  17.344  0.00  0.00    +0.000 N 
ATOM     21  H   UNL     1      -0.489  10.506  16.543  0.00  0.00    +0.000 HD
ENDBRANCH  11  12
ENDBRANCH   9  11
ENDBRANCH   5   7
BRANCH   1  22
ATOM     22  C   UNL     1       3.325   3.933  17.603  0.00  0.00    +0.000 C 
BRANCH  22  23
ATOM     23  O   UNL     1       4.665   3.535  17.909  0.00  0.00    +0.000 OA
BRANCH  23  26
ATOM     24  C   UNL     1       7.161   6.078  17.340  0.00  0.00    +0.000 A 
ATOM     25  C   UNL     1       6.237   5.291  18.010  0.00  0.00    +0.000 A 
ATOM     26  C   UNL     1       5.605   4.324  17.261  0.00  0.00    +0.000 A 
ATOM     27  N   UNL     1       5.846   4.122  15.953  0.00  0.00    +0.000 NA
ATOM     28  C   UNL     1       6.760   4.930  15.402  0.00  0.00    +0.000 A 
ATOM     29  N   UNL     1       7.437   5.902  16.027  0.00  0.00    +0.000 NA
BRANCH  24  30
ATOM     30  C   UNL     1       7.897   7.191  18.051  0.00  0.00    +0.000 C 
BRANCH  30  31
ATOM     31  N   UNL     1       7.801   8.478  17.359  0.00  0.00    +0.000 NA
ATOM     32  H   UNL     1       6.941   8.486  16.811  0.00  0.00    +0.000 HD
ATOM     33  H   UNL     1       8.560   8.526  16.678  0.00  0.00    +0.000 HD
ENDBRANCH  30  31
ENDBRANCH  24  30
ENDBRANCH  23  26
ENDBRANCH  22  23
ENDBRANCH   1  22
TORSDOF 8
ENDMDL
MODEL 4
REMARK VINA RESULT:      -8.4      1.307      2.286
REMARK  Name = 
REMARK  8 active torsions:
REMARK  status: ('A' for Active; 'I' for Inactive)
REMARK    1  A    between atoms: N_1  and  C_2
REMARK    2  A    between atoms: C_2  and  C_3
REMARK    3  A    between atoms: C_5  and  O_6
REMARK    4  A    between atoms: O_6  and  C_7
REMARK    5  A    between atoms: C_7  and  C_8
REMARK    6  A    between atoms: C_12  and  C_13
REMARK    7  A    between atoms: N_15  and  C_16
REMARK    8  A    between atoms: C_16  and  C_17
REMARK                            x       y       z     vdW  Elec       q    Type
REMARK                         _______ _______ _______ _____ _____    ______ ____
ROOT
ATOM      1  C   UNL     1       3.416   4.177  19.524  0.00  0.00    +0.000 A 
ATOM      2  C   UNL     1       2.410   3.490  20.216  0.00  0.00    +0.000 A 
ATOM      3  C   UNL     1       1.298   4.174  20.718  0.00  0.00    +0.000 A 
ATOM      4  C   UNL     1       1.179   5.557  20.544  0.00  0.00    +0.000 A 
ATOM      5  C   UNL     1       2.181   6.263  19.873  0.00  0.00    +0.000 A 
ATOM      6  C   UNL     1       3.297   5.569  19.371  0.00  0.00    +0.000 A 
ENDROOT
BRANCH   5   7
ATOM      7  C   UNL     1       2.061   7.719  19.568  0.00  0.00    +0.000 C 
ATOM      8  O   UNL     1       2.698   8.187  18.629  0.00  0.00    +0.000 OA
ATOM      9  N   UNL     1       1.235   8.494  20.362  0.00  0.00    +0.000 N 
ATOM     10  H   UNL     1       0.847   8.131  21.222  0.00  0.00    +0.000 HD
BRANCH   9  11
ATOM     11  C   UNL     1       1.135   9.908  20.087  0.00  0.00    +0.000 C 
BRANCH  11  12
ATOM     12  C   UNL     1      -0.030  10.187  19.207  0.00  0.00    +0.000 A 
ATOM     13  C   UNL     1      -0.321   9.723  17.938  0.00  0.00    +0.000 A 
ATOM     14  C   UNL     1      -1.619  10.179  17.584  0.00  0.00    +0.000 A 
ATOM     15  C   UNL     1      -2.445   9.990  16.460  0.00  0.00    +0.000 A 
ATOM     16  C   UNL     1      -3.694  10.618  16.412  0.00  0.00    +0.000 A 
ATOM     17  C   UNL     1      -4.123  11.422  17.464  0.00  0.00    +0.000 A 
ATOM     18  C   UNL     1      -3.329  11.603  18.607  0.00  0.00    +0.000 A 
ATOM     19  C   UNL     1      -2.083  10.961  18.640  0.00  0.00    +0.000 A 
ATOM     20  N   UNL     1      -1.117  10.925  19.624  0.00  0.00    +0.000 N 
ATOM     21  H   UNL     1      -1.221  11.352  20.534  0.00  0.00    +0.000 HD
ENDBRANCH  11  12
ENDBRANCH   9  11
ENDBRANCH   5   7
BRANCH   1  22
ATOM     22  C   UNL     1       4.571   3.425  18.896  0.00  0.00    +0.000 C 
BRANCH  22  23
ATOM     23  O   UNL     1       5.822   4.015  19.264  0.00  0.00    +0.000 OA
BRANCH  23  26
ATOM     24  C   UNL     1       6.866   4.994  15.952  0.00  0.00    +0.000 A 
ATOM     25  C   UNL     1       6.302   4.234  16.965  0.00  0.00    +0.000 A 
ATOM     26  C   UNL     1       6.367   4.766  18.233  0.00  0.00    +0.000 A 
ATOM     27  N   UNL     1       6.933   5.954  18.512  0.00  0.00    +0.000 NA
ATOM     28  C   UNL     1       7.443   6.612  17.463  0.00  0.00    +0.000 A 
ATOM     29  N   UNL     1       7.438   6.197  16.190  0.00  0.00    +0.000 NA
BRANCH  24  30
ATOM     30  C   UNL     1       6.880   4.500  14.523  0.00  0.00    +0.000 C 
BRANCH  30  31
ATOM     31  N   UNL     1       7.525   5.435  13.598  0.00  0.00    +0.000 NA
ATOM     32  H   UNL     1       8.181   4.913  13.017  0.00  0.00    +0.000 HD
ATOM     33  H   UNL     1       8.097   6.077  14.148  0.00  0.00    +0.000 HD
ENDBRANCH  30  31
ENDBRANCH  24  30
ENDBRANCH  23  26
ENDBRANCH  22  23
ENDBRANCH   1  22
TORSDOF 8
ENDMDL
MODEL 5
REMARK VINA RESULT:      -8.4      1.232      1.614
REMARK  Name = 
REMARK  8 active torsions:
REMARK  status: ('A' for Active; 'I' for Inactive)
REMARK    1  A    between atoms: N_1  and  C_2
REMARK    2  A    between atoms: C_2  and  C_3
REMARK    3  A    between atoms: C_5  and  O_6
REMARK    4  A    between atoms: O_6  and  C_7
REMARK    5  A    between atoms: C_7  and  C_8
REMARK    6  A    between atoms: C_12  and  C_13
REMARK    7  A    between atoms: N_15  and  C_16
REMARK    8  A    between atoms: C_16  and  C_17
REMARK                            x       y       z     vdW  Elec       q    Type
REMARK                         _______ _______ _______ _____ _____    ______ ____
ROOT
ATOM      1  C   UNL     1       3.399   4.313  19.365  0.00  0.00    +0.000 A 
ATOM      2  C   UNL     1       2.508   3.703  20.258  0.00  0.00    +0.000 A 
ATOM      3  C   UNL     1       1.497   4.449  20.874  0.00  0.00    +0.000 A 
ATOM      4  C   UNL     1       1.367   5.817  20.614  0.00  0.00    +0.000 A 
ATOM      5  C   UNL     1       2.257   6.447  19.740  0.00  0.00    +0.000 A 
ATOM      6  C   UNL     1       3.271   5.691  19.124  0.00  0.00    +0.000 A 
ENDROOT
BRANCH   5   7
ATOM      7  C   UNL     1       2.105   7.877  19.344  0.00  0.00    +0.000 C 
ATOM      8  O   UNL     1       2.724   8.297  18.371  0.00  0.00    +0.000 OA
ATOM      9  N   UNL     1       1.271   8.686  20.096  0.00  0.00    +0.000 N 
ATOM     10  H   UNL     1       0.898   8.371  20.981  0.00  0.00    +0.000 HD
BRANCH   9  11
ATOM     11  C   UNL     1       1.141  10.077  19.733  0.00  0.00    +0.000 C 
BRANCH  11  12
ATOM     12  C   UNL     1      -0.088  10.292  18.924  0.00  0.00    +0.000 A 
ATOM     13  C   UNL     1      -0.463   9.749  17.711  0.00  0.00    +0.000 A 
ATOM     14  C   UNL     1      -1.788  10.172  17.424  0.00  0.00    +0.000 A 
ATOM     15  C   UNL     1      -2.691   9.908  16.376  0.00  0.00    +0.000 A 
ATOM     16  C   UNL     1      -3.947  10.521  16.381  0.00  0.00    +0.000 A 
ATOM     17  C   UNL     1      -4.310  11.385  17.410  0.00  0.00    +0.000 A 
ATOM     18  C   UNL     1      -3.439  11.641  18.480  0.00  0.00    +0.000 A 
ATOM     19  C   UNL     1      -2.186  11.013  18.461  0.00  0.00    +0.000 A 
ATOM     20  N   UNL     1      -1.151  11.045  19.373  0.00  0.00    +0.000 N 
ATOM     21  H   UNL     1      -1.195  11.526  20.261  0.00  0.00    +0.000 HD
ENDBRANCH  11  12
ENDBRANCH   9  11
ENDBRANCH   5   7
BRANCH   1  22
ATOM     22  C   UNL     1       4.431   3.489  18.624  0.00  0.00    +0.000 C 
BRANCH  22  23
ATOM     23  O   UNL     1       5.756   3.902  18.972  0.00  0.00    +0.000 OA
BRANCH  23  26
ATOM     24  C   UNL     1       7.353   6.700  17.348  0.00  0.00    +0.000 A 
ATOM     25  C   UNL     1       6.791   5.929  18.354  0.00  0.00    +0.000 A 
ATOM     26  C   UNL     1       6.336   4.684  17.984  0.00  0.00    +0.000 A 
ATOM     27  N   UNL     1       6.417   4.206  16.729  0.00  0.00    +0.000 NA
ATOM     28  C   UNL     1       6.982   5.026  15.834  0.00  0.00    +0.000 A 
ATOM     29  N   UNL     1       7.460   6.254  16.075  0.00  0.00    +0.000 NA
BRANCH  24  30
ATOM     30  C   UNL     1       7.862   8.096  17.628  0.00  0.00    +0.000 C 
BRANCH  30  31
ATOM     31  N   UNL     1       8.637   8.188  18.868  0.00  0.00    +0.000 NA
ATOM     32  H   UNL     1       9.541   8.609  18.653  0.00  0.00    +0.000 HD
ATOM     33  H   UNL     1       8.844   7.239  19.180  0.00  0.00    +0.000 HD
ENDBRANCH  30  31
ENDBRANCH  24  30
ENDBRANCH  23  26
ENDBRANCH  22  23
ENDBRANCH   1  22
TORSDOF 8
ENDMDL
MODEL 6
REMARK VINA RESULT:      -8.4      1.368      2.471
REMARK  Name = 
REMARK  8 active torsions:
REMARK  status: ('A' for Active; 'I' for Inactive)
REMARK    1  A    between atoms: N_1  and  C_2
REMARK    2  A    between atoms: C_2  and  C_3
REMARK    3  A    between atoms: C_5  and  O_6
REMARK    4  A    between atoms: O_6  and  C_7
REMARK    5  A    between atoms: C_7  and  C_8
REMARK    6  A    between atoms: C_12  and  C_13
REMARK    7  A    between atoms: N_15  and  C_16
REMARK    8  A    between atoms: C_16  and  C_17
REMARK                            x       y       z     vdW  Elec       q    Type
REMARK                         _______ _______ _______ _____ _____    ______ ____
ROOT
ATOM      1  C   UNL     1       2.682   5.450  18.564  0.00  0.00    +0.000 A 
ATOM      2  C   UNL     1       2.473   5.113  19.908  0.00  0.00    +0.000 A 
ATOM      3  C   UNL     1       2.017   6.073  20.818  0.00  0.00    +0.000 A 
ATOM      4  C   UNL     1       1.771   7.385  20.401  0.00  0.00    +0.000 A 
ATOM      5  C   UNL     1       1.991   7.745  19.069  0.00  0.00    +0.000 A 
ATOM      6  C   UNL     1       2.450   6.775  18.159  0.00  0.00    +0.000 A 
ENDROOT
BRANCH   5   7
ATOM      7  C   UNL     1       1.649   9.099  18.543  0.00  0.00    +0.000 C 
ATOM      8  O   UNL     1       2.018   9.413  17.416  0.00  0.00    +0.000 OA
ATOM      9  N   UNL     1       0.928   9.959  19.353  0.00  0.00    +0.000 N 
ATOM     10  H   UNL     1       0.773   9.749  20.330  0.00  0.00    +0.000 HD
BRANCH   9  11
ATOM     11  C   UNL     1       0.618  11.280  18.859  0.00  0.00    +0.000 C 
BRANCH  11  12
ATOM     12  C   UNL     1      -0.841  11.412  18.607  0.00  0.00    +0.000 A 
ATOM     13  C   UNL     1      -1.618  10.909  17.582  0.00  0.00    +0.000 A 
ATOM     14  C   UNL     1      -2.978  11.205  17.866  0.00  0.00    +0.000 A 
ATOM     15  C   UNL     1      -4.195  10.912  17.223  0.00  0.00    +0.000 A 
ATOM     16  C   UNL     1      -5.392  11.385  17.768  0.00  0.00    +0.000 A 
ATOM     17  C   UNL     1      -5.388  12.139  18.938  0.00  0.00    +0.000 A 
ATOM     18  C   UNL     1      -4.191  12.419  19.613  0.00  0.00    +0.000 A 
ATOM     19  C   UNL     1      -3.001  11.931  19.055  0.00  0.00    +0.000 A 
ATOM     20  N   UNL     1      -1.698  12.017  19.501  0.00  0.00    +0.000 N 
ATOM     21  H   UNL     1      -1.428  12.434  20.382  0.00  0.00    +0.000 HD
ENDBRANCH  11  12
ENDBRANCH   9  11
ENDBRANCH   5   7
BRANCH   1  22
ATOM     22  C   UNL     1       3.082   4.391  17.558  0.00  0.00    +0.000 C 
BRANCH  22  23
ATOM     23  O   UNL     1       4.181   3.615  18.047  0.00  0.00    +0.000 OA
BRANCH  23  26
ATOM     24  C   UNL     1       6.668   4.472  15.577  0.00  0.00    +0.000 A 
ATOM     25  C   UNL     1       5.450   4.088  16.115  0.00  0.00    +0.000 A 
ATOM     26  C   UNL     1       5.388   4.012  17.488  0.00  0.00    +0.000 A 
ATOM     27  N   UNL     1       6.428   4.291  18.295  0.00  0.00    +0.000 NA
ATOM     28  C   UNL     1       7.557   4.658  17.677  0.00  0.00    +0.000 A 
ATOM     29  N   UNL     1       7.736   4.767  16.354  0.00  0.00    +0.000 NA
BRANCH  24  30
ATOM     30  C   UNL     1       6.866   4.563  14.080  0.00  0.00    +0.000 C 
BRANCH  30  31
ATOM     31  N   UNL     1       6.286   3.432  13.354  0.00  0.00    +0.000 NA
ATOM     32  H   UNL     1       6.291   3.651  12.358  0.00  0.00    +0.000 HD
ATOM     33  H   UNL     1       5.301   3.363  13.614  0.00  0.00    +0.000 HD
ENDBRANCH  30  31
ENDBRANCH  24  30
ENDBRANCH  23  26
ENDBRANCH  22  23
ENDBRANCH   1  22
TORSDOF 8
ENDMDL
MODEL 7
REMARK VINA RESULT:      -8.4      1.336      2.253
REMARK  Name = 
REMARK  8 active torsions:
REMARK  status: ('A' for Active; 'I' for Inactive)
REMARK    1  A    between atoms: N_1  and  C_2
REMARK    2  A    between atoms: C_2  and  C_3
REMARK    3  A    between atoms: C_5  and  O_6
REMARK    4  A    between atoms: O_6  and  C_7
REMARK    5  A    between atoms: C_7  and  C_8
REMARK    6  A    between atoms: C_12  and  C_13
REMARK    7  A    between atoms: N_15  and  C_16
REMARK    8  A    between atoms: C_16  and  C_17
REMARK                            x       y       z     vdW  Elec       q    Type
REMARK                         _______ _______ _______ _____ _____    ______ ____
ROOT
ATOM      1  C   UNL     1       2.792   4.705  18.584  0.00  0.00    +0.000 A 
ATOM      2  C   UNL     1       2.637   3.805  19.647  0.00  0.00    +0.000 A 
ATOM      3  C   UNL     1       2.186   4.250  20.894  0.00  0.00    +0.000 A 
ATOM      4  C   UNL     1       1.890   5.601  21.101  0.00  0.00    +0.000 A 
ATOM      5  C   UNL     1       2.056   6.517  20.058  0.00  0.00    +0.000 A 
ATOM      6  C   UNL     1       2.511   6.063  18.806  0.00  0.00    +0.000 A 
ENDROOT
BRANCH   5   7
ATOM      7  C   UNL     1       1.660   7.950  20.187  0.00  0.00    +0.000 C 
ATOM      8  O   UNL     1       1.352   8.388  21.291  0.00  0.00    +0.000 OA
ATOM      9  N   UNL     1       1.647   8.736  19.049  0.00  0.00    +0.000 N 
ATOM     10  H   UNL     1       1.744   8.327  18.130  0.00  0.00    +0.000 HD
BRANCH   9  11
ATOM     11  C   UNL     1       1.238  10.117  19.164  0.00  0.00    +0.000 C 
BRANCH  11  12
ATOM     12  C   UNL     1      -0.146  10.295  18.650  0.00  0.00    +0.000 A 
ATOM     13  C   UNL     1      -1.226  10.952  19.206  0.00  0.00    +0.000 A 
ATOM     14  C   UNL     1      -2.286  10.947  18.260  0.00  0.00    +0.000 A 
ATOM     15  C   UNL     1      -3.584  11.491  18.249  0.00  0.00    +0.000 A 
ATOM     16  C   UNL     1      -4.408  11.277  17.140  0.00  0.00    +0.000 A 
ATOM     17  C   UNL     1      -3.955  10.536  16.052  0.00  0.00    +0.000 A 
ATOM     18  C   UNL     1      -2.655  10.008  16.029  0.00  0.00    +0.000 A 
ATOM     19  C   UNL     1      -1.841  10.238  17.147  0.00  0.00    +0.000 A 
ATOM     20  N   UNL     1      -0.532   9.880  17.394  0.00  0.00    +0.000 N 
ATOM     21  H   UNL     1       0.063   9.412  16.722  0.00  0.00    +0.000 HD
ENDBRANCH  11  12
ENDBRANCH   9  11
ENDBRANCH   5   7
BRANCH   1  22
ATOM     22  C   UNL     1       3.187   4.211  17.208  0.00  0.00    +0.000 C 
BRANCH  22  23
ATOM     23  O   UNL     1       4.423   3.492  17.262  0.00  0.00    +0.000 OA
BRANCH  23  26
ATOM     24  C   UNL     1       6.694   4.651  14.709  0.00  0.00    +0.000 A 
ATOM     25  C   UNL     1       5.649   3.961  15.301  0.00  0.00    +0.000 A 
ATOM     26  C   UNL     1       5.456   4.185  16.646  0.00  0.00    +0.000 A 
ATOM     27  N   UNL     1       6.215   5.022  17.375  0.00  0.00    +0.000 NA
ATOM     28  C   UNL     1       7.194   5.644  16.708  0.00  0.00    +0.000 A 
ATOM     29  N   UNL     1       7.477   5.507  15.406  0.00  0.00    +0.000 NA
BRANCH  24  30
ATOM     30  C   UNL     1       7.021   4.464  13.244  0.00  0.00    +0.000 C 
BRANCH  30  31
ATOM     31  N   UNL     1       6.387   3.281  12.659  0.00  0.00    +0.000 NA
ATOM     32  H   UNL     1       5.421   3.238  12.985  0.00  0.00    +0.000 HD
ATOM     33  H   UNL     1       6.844   2.455  13.048  0.00  0.00    +0.000 HD
ENDBRANCH  30  31
ENDBRANCH  24  30
ENDBRANCH  23  26
ENDBRANCH  22  23
ENDBRANCH   1  22
TORSDOF 8
ENDMDL
MODEL 8
REMARK VINA RESULT:      -8.3      1.531      2.117
REMARK  Name = 
REMARK  8 active torsions:
REMARK  status: ('A' for Active; 'I' for Inactive)
REMARK    1  A    between atoms: N_1  and  C_2
REMARK    2  A    between atoms: C_2  and  C_3
REMARK    3  A    between atoms: C_5  and  O_6
REMARK    4  A    between atoms: O_6  and  C_7
REMARK    5  A    between atoms: C_7  and  C_8
REMARK    6  A    between atoms: C_12  and  C_13
REMARK    7  A    between atoms: N_15  and  C_16
REMARK    8  A    between atoms: C_16  and  C_17
REMARK                            x       y       z     vdW  Elec       q    Type
REMARK                         _______ _______ _______ _____ _____    ______ ____
ROOT
ATOM      1  C   UNL     1       3.948   4.819  16.996  0.00  0.00    +0.000 A 
ATOM      2  C   UNL     1       3.191   3.660  17.218  0.00  0.00    +0.000 A 
ATOM      3  C   UNL     1       2.097   3.681  18.089  0.00  0.00    +0.000 A 
ATOM      4  C   UNL     1       1.748   4.857  18.759  0.00  0.00    +0.000 A 
ATOM      5  C   UNL     1       2.501   6.019  18.566  0.00  0.00    +0.000 A 
ATOM      6  C   UNL     1       3.600   5.991  17.689  0.00  0.00    +0.000 A 
ENDROOT
BRANCH   5   7
ATOM      7  C   UNL     1       2.115   7.327  19.172  0.00  0.00    +0.000 C 
ATOM      8  O   UNL     1       2.017   7.415  20.392  0.00  0.00    +0.000 OA
ATOM      9  N   UNL     1       1.876   8.399  18.331  0.00  0.00    +0.000 N 
ATOM     10  H   UNL     1       1.803   8.272  17.330  0.00  0.00    +0.000 HD
BRANCH   9  11
ATOM     11  C   UNL     1       1.476   9.660  18.910  0.00  0.00    +0.000 C 
BRANCH  11  12
ATOM     12  C   UNL     1       0.081   9.994  18.519  0.00  0.00    +0.000 A 
ATOM     13  C   UNL     1      -0.882  10.724  19.188  0.00  0.00    +0.000 A 
ATOM     14  C   UNL     1      -2.007  10.866  18.333  0.00  0.00    +0.000 A 
ATOM     15  C   UNL     1      -3.242  11.532  18.450  0.00  0.00    +0.000 A 
ATOM     16  C   UNL     1      -4.167  11.452  17.404  0.00  0.00    +0.000 A 
ATOM     17  C   UNL     1      -3.875  10.724  16.254  0.00  0.00    +0.000 A 
ATOM     18  C   UNL     1      -2.640  10.076  16.103  0.00  0.00    +0.000 A 
ATOM     19  C   UNL     1      -1.722  10.172  17.159  0.00  0.00    +0.000 A 
ATOM     20  N   UNL     1      -0.440   9.679  17.283  0.00  0.00    +0.000 N 
ATOM     21  H   UNL     1       0.051   9.190  16.547  0.00  0.00    +0.000 HD
ENDBRANCH  11  12
ENDBRANCH   9  11
ENDBRANCH   5   7
BRANCH   1  22
ATOM     22  C   UNL     1       5.071   4.823  15.981  0.00  0.00    +0.000 C 
BRANCH  22  23
ATOM     23  O   UNL     1       6.250   4.220  16.525  0.00  0.00    +0.000 OA
BRANCH  23  26
ATOM     24  C   UNL     1       7.728   7.223  17.872  0.00  0.00    +0.000 A 
ATOM     25  C   UNL     1       7.042   6.391  17.002  0.00  0.00    +0.000 A 
ATOM     26  C   UNL     1       6.921   5.074  17.388  0.00  0.00    +0.000 A 
ATOM     27  N   UNL     1       7.424   4.589  18.537  0.00  0.00    +0.000 NA
ATOM     28  C   UNL     1       8.064   5.476  19.309  0.00  0.00    +0.000 A 
ATOM     29  N   UNL     1       8.243   6.775  19.040  0.00  0.00    +0.000 NA
BRANCH  24  30
ATOM     30  C   UNL     1       7.949   8.683  17.542  0.00  0.00    +0.000 C 
BRANCH  30  31
ATOM     31  N   UNL     1       8.647   9.413  18.603  0.00  0.00    +0.000 NA
ATOM     32  H   UNL     1       9.605   9.066  18.656  0.00  0.00    +0.000 HD
ATOM     33  H   UNL     1       8.215   9.163  19.493  0.00  0.00    +0.000 HD
ENDBRANCH  30  31
ENDBRANCH  24  30
ENDBRANCH  23  26
ENDBRANCH  22  23
ENDBRANCH   1  22
TORSDOF 8
ENDMDL
MODEL 9
REMARK VINA RESULT:      -8.2      1.434      2.311
REMARK  Name = 
REMARK  8 active torsions:
REMARK  status: ('A' for Active; 'I' for Inactive)
REMARK    1  A    between atoms: N_1  and  C_2
REMARK    2  A    between atoms: C_2  and  C_3
REMARK    3  A    between atoms: C_5  and  O_6
REMARK    4  A    between atoms: O_6  and  C_7
REMARK    5  A    between atoms: C_7  and  C_8
REMARK    6  A    between atoms: C_12  and  C_13
REMARK    7  A    between atoms: N_15  and  C_16
REMARK    8  A    between atoms: C_16  and  C_17
REMARK                            x       y       z     vdW  Elec       q    Type
REMARK                         _______ _______ _______ _____ _____    ______ ____
ROOT
ATOM      1  C   UNL     1       3.416   4.047  19.716  0.00  0.00    +0.000 A 
ATOM      2  C   UNL     1       2.342   3.293  20.208  0.00  0.00    +0.000 A 
ATOM      3  C   UNL     1       1.161   3.920  20.617  0.00  0.00    +0.000 A 
ATOM      4  C   UNL     1       1.038   5.312  20.550  0.00  0.00    +0.000 A 
ATOM      5  C   UNL     1       2.104   6.083  20.079  0.00  0.00    +0.000 A 
ATOM      6  C   UNL     1       3.289   5.446  19.669  0.00  0.00    +0.000 A 
ENDROOT
BRANCH   5   7
ATOM      7  C   UNL     1       1.995   7.559  19.887  0.00  0.00    +0.000 C 
ATOM      8  O   UNL     1       1.811   8.277  20.865  0.00  0.00    +0.000 OA
ATOM      9  N   UNL     1       2.099   8.067  18.604  0.00  0.00    +0.000 N 
ATOM     10  H   UNL     1       2.087   7.457  17.798  0.00  0.00    +0.000 HD
BRANCH   9  11
ATOM     11  C   UNL     1       1.967   9.492  18.410  0.00  0.00    +0.000 C 
BRANCH  11  12
ATOM     12  C   UNL     1       0.532   9.879  18.352  0.00  0.00    +0.000 A 
ATOM     13  C   UNL     1      -0.205  10.697  19.186  0.00  0.00    +0.000 A 
ATOM     14  C   UNL     1      -1.501  10.852  18.627  0.00  0.00    +0.000 A 
ATOM     15  C   UNL     1      -2.641  11.589  18.998  0.00  0.00    +0.000 A 
ATOM     16  C   UNL     1      -3.800  11.501  18.220  0.00  0.00    +0.000 A 
ATOM     17  C   UNL     1      -3.832  10.695  17.086  0.00  0.00    +0.000 A 
ATOM     18  C   UNL     1      -2.699   9.974  16.680  0.00  0.00    +0.000 A 
ATOM     19  C   UNL     1      -1.545  10.079  17.469  0.00  0.00    +0.000 A 
ATOM     20  N   UNL     1      -0.292   9.524  17.307  0.00  0.00    +0.000 N 
ATOM     21  H   UNL     1      -0.019   8.969  16.507  0.00  0.00    +0.000 HD
ENDBRANCH  11  12
ENDBRANCH   9  11
ENDBRANCH   5   7
BRANCH   1  22
ATOM     22  C   UNL     1       4.657   3.363  19.182  0.00  0.00    +0.000 C 
BRANCH  22  23
ATOM     23  O   UNL     1       5.808   4.199  19.345  0.00  0.00    +0.000 OA
BRANCH  23  26
ATOM     24  C   UNL     1       6.096   4.832  15.805  0.00  0.00    +0.000 A 
ATOM     25  C   UNL     1       5.668   4.256  16.991  0.00  0.00    +0.000 A 
ATOM     26  C   UNL     1       6.211   4.770  18.148  0.00  0.00    +0.000 A 
ATOM     27  N   UNL     1       7.105   5.776  18.165  0.00  0.00    +0.000 NA
ATOM     28  C   UNL     1       7.447   6.266  16.967  0.00  0.00    +0.000 A 
ATOM     29  N   UNL     1       6.988   5.849  15.780  0.00  0.00    +0.000 NA
BRANCH  24  30
ATOM     30  C   UNL     1       5.592   4.331  14.470  0.00  0.00    +0.000 C 
BRANCH  30  31
ATOM     31  N   UNL     1       6.639   3.713  13.654  0.00  0.00    +0.000 NA
ATOM     32  H   UNL     1       6.411   2.727  13.528  0.00  0.00    +0.000 HD
ATOM     33  H   UNL     1       7.506   3.727  14.193  0.00  0.00    +0.000 HD
ENDBRANCH  30  31
ENDBRANCH  24  30
ENDBRANCH  23  26
ENDBRANCH  22  23
ENDBRANCH   1  22
TORSDOF 8
ENDMDL
