MODEL 1
REMARK VINA RESULT:      -7.9      0.000      0.000
REMARK  Name = 
REMARK  5 active torsions:
REMARK  status: ('A' for Active; 'I' for Inactive)
REMARK    1  A    between atoms: C_1  and  O_2
REMARK    2  A    between atoms: O_2  and  C_3
REMARK    3  A    between atoms: C_6  and  C_7
REMARK    4  A    between atoms: C_9  and  N_10
REMARK    5  A    between atoms: C_11  and  C_13
REMARK                            x       y       z     vdW  Elec       q    Type
REMARK                         _______ _______ _______ _____ _____    ______ ____
ROOT
ATOM      1  N   UNL     1       4.271   6.016  18.296  0.00  0.00    +0.000 N 
ATOM      2  C   UNL     1       3.047   5.470  18.666  0.00  0.00    +0.000 C 
ATOM      3  O   UNL     1       2.580   4.413  18.243  0.00  0.00    +0.000 OA
ATOM      4  H   UNL     1       4.510   6.929  18.682  0.00  0.00    +0.000 HD
ENDROOT
BRANCH   2   5
ATOM      5  C   UNL     1       2.262   6.248  19.645  0.00  0.00    +0.000 A 
ATOM      6  N   UNL     1       1.785   5.710  20.787  0.00  0.00    +0.000 NA
ATOM      7  O   UNL     1       1.111   6.742  21.441  0.00  0.00    +0.000 OA
ATOM      8  C   UNL     1       1.182   7.868  20.692  0.00  0.00    +0.000 A 
ATOM      9  C   UNL     1       1.897   7.625  19.550  0.00  0.00    +0.000 A 
ATOM     10  C   UNL     1       2.191   8.658  18.533  0.00  0.00    +0.000 C 
ATOM     11  S   UNL     1       0.863   9.935  18.431  0.00  0.00    +0.000 S 
ATOM     12  C   UNL     1       0.383  10.126  20.163  0.00  0.00    +0.000 A 
ATOM     13  C   UNL     1      -0.219  11.334  20.537  0.00  0.00    +0.000 A 
ATOM     14  C   UNL     1      -0.652  11.528  21.848  0.00  0.00    +0.000 A 
ATOM     15  C   UNL     1      -0.499  10.512  22.791  0.00  0.00    +0.000 A 
ATOM     16  C   UNL     1       0.091   9.297  22.429  0.00  0.00    +0.000 A 
ATOM     17  C   UNL     1       0.534   9.094  21.117  0.00  0.00    +0.000 A 
ENDBRANCH   2   5
BRANCH   1  24
ATOM     18  C   UNL     1       6.506   5.047  17.991  0.00  0.00    +0.000 A 
ATOM     19  C   UNL     1       7.453   4.407  17.172  0.00  0.00    +0.000 A 
ATOM     20  C   UNL     1       7.197   4.180  15.821  0.00  0.00    +0.000 A 
ATOM     21  C   UNL     1       5.986   4.576  15.269  0.00  0.00    +0.000 A 
ATOM     22  C   UNL     1       5.687   4.358  13.817  0.00  0.00    +0.000 C 
ATOM     23  C   UNL     1       5.022   5.181  16.091  0.00  0.00    +0.000 A 
ATOM     24  C   UNL     1       5.254   5.422  17.453  0.00  0.00    +0.000 A 
BRANCH  18  26
ATOM     25  C   UNL     1       8.056   5.800  19.619  0.00  0.00    +0.000 C 
ATOM     26  O   UNL     1       6.739   5.328  19.320  0.00  0.00    +0.000 OA
ENDBRANCH  18  26
ENDBRANCH   1  24
TORSDOF 3
ENDMDL
MODEL 2
REMARK VINA RESULT:      -7.8      1.081      1.280
REMARK  Name = 
REMARK  5 active torsions:
REMARK  status: ('A' for Active; 'I' for Inactive)
REMARK    1  A    between atoms: C_1  and  O_2
REMARK    2  A    between atoms: O_2  and  C_3
REMARK    3  A    between atoms: C_6  and  C_7
REMARK    4  A    between atoms: C_9  and  N_10
REMARK    5  A    between atoms: C_11  and  C_13
REMARK                            x       y       z     vdW  Elec       q    Type
REMARK                         _______ _______ _______ _____ _____    ______ ____
ROOT
ATOM      1  N   UNL     1       4.381   5.774  17.110  0.00  0.00    +0.000 N 
ATOM      2  C   UNL     1       3.742   4.996  18.070  0.00  0.00    +0.000 C 
ATOM      3  O   UNL     1       3.789   3.768  18.139  0.00  0.00    +0.000 OA
ATOM      4  H   UNL     1       4.211   6.778  17.137  0.00  0.00    +0.000 HD
ENDROOT
BRANCH   2   5
ATOM      5  C   UNL     1       2.945   5.731  19.072  0.00  0.00    +0.000 A 
ATOM      6  N   UNL     1       2.497   5.157  20.208  0.00  0.00    +0.000 NA
ATOM      7  O   UNL     1       1.800   6.156  20.889  0.00  0.00    +0.000 OA
ATOM      8  C   UNL     1       1.829   7.297  20.161  0.00  0.00    +0.000 A 
ATOM      9  C   UNL     1       2.538   7.098  19.007  0.00  0.00    +0.000 A 
ATOM     10  C   UNL     1       2.790   8.159  18.008  0.00  0.00    +0.000 C 
ATOM     11  S   UNL     1       1.425   9.397  17.944  0.00  0.00    +0.000 S 
ATOM     12  C   UNL     1       0.958   9.540  19.684  0.00  0.00    +0.000 A 
ATOM     13  C   UNL     1       0.324  10.723  20.088  0.00  0.00    +0.000 A 
ATOM     14  C   UNL     1      -0.100  10.878  21.408  0.00  0.00    +0.000 A 
ATOM     15  C   UNL     1       0.093   9.849  22.329  0.00  0.00    +0.000 A 
ATOM     16  C   UNL     1       0.715   8.660  21.937  0.00  0.00    +0.000 A 
ATOM     17  C   UNL     1       1.150   8.495  20.617  0.00  0.00    +0.000 A 
ENDBRANCH   2   5
BRANCH   1  24
ATOM     18  C   UNL     1       6.672   5.518  16.267  0.00  0.00    +0.000 A 
ATOM     19  C   UNL     1       7.564   5.020  15.301  0.00  0.00    +0.000 A 
ATOM     20  C   UNL     1       7.097   4.379  14.155  0.00  0.00    +0.000 A 
ATOM     21  C   UNL     1       5.732   4.212  13.962  0.00  0.00    +0.000 A 
ATOM     22  C   UNL     1       5.199   3.538  12.734  0.00  0.00    +0.000 C 
ATOM     23  C   UNL     1       4.838   4.673  14.942  0.00  0.00    +0.000 A 
ATOM     24  C   UNL     1       5.282   5.323  16.103  0.00  0.00    +0.000 A 
BRANCH  18  26
ATOM     25  C   UNL     1       7.619   5.373  18.435  0.00  0.00    +0.000 C 
ATOM     26  O   UNL     1       7.094   6.196  17.391  0.00  0.00    +0.000 OA
ENDBRANCH  18  26
ENDBRANCH   1  24
TORSDOF 3
ENDMDL
MODEL 3
REMARK VINA RESULT:      -7.7      1.905      3.152
REMARK  Name = 
REMARK  5 active torsions:
REMARK  status: ('A' for Active; 'I' for Inactive)
REMARK    1  A    between atoms: C_1  and  O_2
REMARK    2  A    between atoms: O_2  and  C_3
REMARK    3  A    between atoms: C_6  and  C_7
REMARK    4  A    between atoms: C_9  and  N_10
REMARK    5  A    between atoms: C_11  and  C_13
REMARK                            x       y       z     vdW  Elec       q    Type
REMARK                         _______ _______ _______ _____ _____    ______ ____
ROOT
ATOM      1  N   UNL     1       2.728   6.541  19.257  0.00  0.00    +0.000 N 
ATOM      2  C   UNL     1       2.276   7.816  18.932  0.00  0.00    +0.000 C 
ATOM      3  O   UNL     1       2.500   8.404  17.875  0.00  0.00    +0.000 OA
ATOM      4  H   UNL     1       2.515   6.196  20.193  0.00  0.00    +0.000 HD
ENDROOT
BRANCH   2   5
ATOM      5  C   UNL     1       1.467   8.497  19.963  0.00  0.00    +0.000 A 
ATOM      6  N   UNL     1       1.373   8.045  21.230  0.00  0.00    +0.000 NA
ATOM      7  O   UNL     1       0.538   8.944  21.894  0.00  0.00    +0.000 OA
ATOM      8  C   UNL     1       0.139   9.906  21.028  0.00  0.00    +0.000 A 
ATOM      9  C   UNL     1       0.692   9.685  19.796  0.00  0.00    +0.000 A 
ATOM     10  C   UNL     1       0.486  10.577  18.634  0.00  0.00    +0.000 C 
ATOM     11  S   UNL     1      -1.162  11.403  18.671  0.00  0.00    +0.000 S 
ATOM     12  C   UNL     1      -1.382  11.737  20.434  0.00  0.00    +0.000 A 
ATOM     13  C   UNL     1      -2.250  12.777  20.791  0.00  0.00    +0.000 A 
ATOM     14  C   UNL     1      -2.496  13.058  22.135  0.00  0.00    +0.000 A 
ATOM     15  C   UNL     1      -1.888  12.293  23.130  0.00  0.00    +0.000 A 
ATOM     16  C   UNL     1      -1.027  11.246  22.788  0.00  0.00    +0.000 A 
ATOM     17  C   UNL     1      -0.769  10.959  21.442  0.00  0.00    +0.000 A 
ENDBRANCH   2   5
BRANCH   1  24
ATOM     18  C   UNL     1       2.779   4.497  17.900  0.00  0.00    +0.000 A 
ATOM     19  C   UNL     1       3.459   3.641  17.015  0.00  0.00    +0.000 A 
ATOM     20  C   UNL     1       4.789   3.873  16.670  0.00  0.00    +0.000 A 
ATOM     21  C   UNL     1       5.458   4.973  17.192  0.00  0.00    +0.000 A 
ATOM     22  C   UNL     1       6.892   5.242  16.851  0.00  0.00    +0.000 C 
ATOM     23  C   UNL     1       4.773   5.852  18.046  0.00  0.00    +0.000 A 
ATOM     24  C   UNL     1       3.435   5.640  18.409  0.00  0.00    +0.000 A 
BRANCH  18  26
ATOM     25  C   UNL     1       1.171   2.922  18.643  0.00  0.00    +0.000 C 
ATOM     26  O   UNL     1       1.478   4.275  18.298  0.00  0.00    +0.000 OA
ENDBRANCH  18  26
ENDBRANCH   1  24
TORSDOF 3
ENDMDL
MODEL 4
REMARK VINA RESULT:      -7.5      2.366      3.629
REMARK  Name = 
REMARK  5 active torsions:
REMARK  status: ('A' for Active; 'I' for Inactive)
REMARK    1  A    between atoms: C_1  and  O_2
REMARK    2  A    between atoms: O_2  and  C_3
REMARK    3  A    between atoms: C_6  and  C_7
REMARK    4  A    between atoms: C_9  and  N_10
REMARK    5  A    between atoms: C_11  and  C_13
REMARK                            x       y       z     vdW  Elec       q    Type
REMARK                         _______ _______ _______ _____ _____    ______ ____
ROOT
ATOM      1  N   UNL     1       2.086   6.360  18.518  0.00  0.00    +0.000 N 
ATOM      2  C   UNL     1       2.594   7.636  18.296  0.00  0.00    +0.000 C 
ATOM      3  O   UNL     1       3.710   7.889  17.844  0.00  0.00    +0.000 OA
ATOM      4  H   UNL     1       1.165   6.295  18.952  0.00  0.00    +0.000 HD
ENDROOT
BRANCH   2   5
ATOM      5  C   UNL     1       1.701   8.758  18.646  0.00  0.00    +0.000 A 
ATOM      6  N   UNL     1       1.375   9.729  17.768  0.00  0.00    +0.000 NA
ATOM      7  O   UNL     1       0.522  10.593  18.456  0.00  0.00    +0.000 OA
ATOM      8  C   UNL     1       0.356  10.142  19.722  0.00  0.00    +0.000 A 
ATOM      9  C   UNL     1       1.068   8.988  19.905  0.00  0.00    +0.000 A 
ATOM     10  C   UNL     1       1.070   8.219  21.169  0.00  0.00    +0.000 C 
ATOM     11  S   UNL     1       0.842   9.301  22.645  0.00  0.00    +0.000 S 
ATOM     12  C   UNL     1      -0.344  10.524  22.042  0.00  0.00    +0.000 A 
ATOM     13  C   UNL     1      -1.128  11.188  22.995  0.00  0.00    +0.000 A 
ATOM     14  C   UNL     1      -2.031  12.174  22.598  0.00  0.00    +0.000 A 
ATOM     15  C   UNL     1      -2.149  12.512  21.251  0.00  0.00    +0.000 A 
ATOM     16  C   UNL     1      -1.366  11.865  20.291  0.00  0.00    +0.000 A 
ATOM     17  C   UNL     1      -0.459  10.870  20.676  0.00  0.00    +0.000 A 
ENDBRANCH   2   5
BRANCH   1  24
ATOM     18  C   UNL     1       2.178   3.913  18.691  0.00  0.00    +0.000 A 
ATOM     19  C   UNL     1       2.747   2.687  18.305  0.00  0.00    +0.000 A 
ATOM     20  C   UNL     1       3.854   2.644  17.460  0.00  0.00    +0.000 A 
ATOM     21  C   UNL     1       4.402   3.825  16.975  0.00  0.00    +0.000 A 
ATOM     22  C   UNL     1       5.600   3.812  16.075  0.00  0.00    +0.000 C 
ATOM     23  C   UNL     1       3.814   5.050  17.326  0.00  0.00    +0.000 A 
ATOM     24  C   UNL     1       2.700   5.121  18.176  0.00  0.00    +0.000 A 
BRANCH  18  26
ATOM     25  C   UNL     1       1.271   3.286  20.790  0.00  0.00    +0.000 C 
ATOM     26  O   UNL     1       1.110   3.998  19.560  0.00  0.00    +0.000 OA
ENDBRANCH  18  26
ENDBRANCH   1  24
TORSDOF 3
ENDMDL
MODEL 5
REMARK VINA RESULT:      -7.4      2.156      3.536
REMARK  Name = 
REMARK  5 active torsions:
REMARK  status: ('A' for Active; 'I' for Inactive)
REMARK    1  A    between atoms: C_1  and  O_2
REMARK    2  A    between atoms: O_2  and  C_3
REMARK    3  A    between atoms: C_6  and  C_7
REMARK    4  A    between atoms: C_9  and  N_10
REMARK    5  A    between atoms: C_11  and  C_13
REMARK                            x       y       z     vdW  Elec       q    Type
REMARK                         _______ _______ _______ _____ _____    ______ ____
ROOT
ATOM      1  N   UNL     1       2.576   7.098  17.990  0.00  0.00    +0.000 N 
ATOM      2  C   UNL     1       2.246   7.507  19.278  0.00  0.00    +0.000 C 
ATOM      3  O   UNL     1       2.533   6.906  20.312  0.00  0.00    +0.000 OA
ATOM      4  H   UNL     1       2.225   7.663  17.218  0.00  0.00    +0.000 HD
ENDROOT
BRANCH   2   5
ATOM      5  C   UNL     1       1.482   8.766  19.381  0.00  0.00    +0.000 A 
ATOM      6  N   UNL     1       1.516   9.717  18.426  0.00  0.00    +0.000 NA
ATOM      7  O   UNL     1       0.675  10.737  18.873  0.00  0.00    +0.000 OA
ATOM      8  C   UNL     1       0.161  10.395  20.079  0.00  0.00    +0.000 A 
ATOM      9  C   UNL     1       0.626   9.163  20.452  0.00  0.00    +0.000 A 
ATOM     10  C   UNL     1       0.225   8.482  21.703  0.00  0.00    +0.000 C 
ATOM     11  S   UNL     1      -0.159   9.675  23.056  0.00  0.00    +0.000 S 
ATOM     12  C   UNL     1      -0.974  11.017  22.162  0.00  0.00    +0.000 A 
ATOM     13  C   UNL     1      -1.839  11.845  22.889  0.00  0.00    +0.000 A 
ATOM     14  C   UNL     1      -2.466  12.925  22.267  0.00  0.00    +0.000 A 
ATOM     15  C   UNL     1      -2.224  13.193  20.921  0.00  0.00    +0.000 A 
ATOM     16  C   UNL     1      -1.356  12.380  20.186  0.00  0.00    +0.000 A 
ATOM     17  C   UNL     1      -0.724  11.290  20.798  0.00  0.00    +0.000 A 
ENDBRANCH   2   5
BRANCH   1  24
ATOM     18  C   UNL     1       2.826   4.687  17.603  0.00  0.00    +0.000 A 
ATOM     19  C   UNL     1       3.610   3.597  17.186  0.00  0.00    +0.000 A 
ATOM     20  C   UNL     1       4.949   3.765  16.842  0.00  0.00    +0.000 A 
ATOM     21  C   UNL     1       5.524   5.029  16.894  0.00  0.00    +0.000 A 
ATOM     22  C   UNL     1       6.966   5.240  16.542  0.00  0.00    +0.000 C 
ATOM     23  C   UNL     1       4.736   6.127  17.273  0.00  0.00    +0.000 A 
ATOM     24  C   UNL     1       3.386   5.984  17.626  0.00  0.00    +0.000 A 
BRANCH  18  26
ATOM     25  C   UNL     1       1.290   3.656  19.086  0.00  0.00    +0.000 C 
ATOM     26  O   UNL     1       1.510   4.553  17.994  0.00  0.00    +0.000 OA
ENDBRANCH  18  26
ENDBRANCH   1  24
TORSDOF 3
ENDMDL
MODEL 6
REMARK VINA RESULT:      -7.4      1.724      2.224
REMARK  Name = 
REMARK  5 active torsions:
REMARK  status: ('A' for Active; 'I' for Inactive)
REMARK    1  A    between atoms: C_1  and  O_2
REMARK    2  A    between atoms: O_2  and  C_3
REMARK    3  A    between atoms: C_6  and  C_7
REMARK    4  A    between atoms: C_9  and  N_10
REMARK    5  A    between atoms: C_11  and  C_13
REMARK                            x       y       z     vdW  Elec       q    Type
REMARK                         _______ _______ _______ _____ _____    ______ ____
ROOT
ATOM      1  N   UNL     1       4.329   7.048  16.919  0.00  0.00    +0.000 N 
ATOM      2  C   UNL     1       3.232   6.873  17.756  0.00  0.00    +0.000 C 
ATOM      3  O   UNL     1       2.852   5.797  18.217  0.00  0.00    +0.000 OA
ATOM      4  H   UNL     1       4.498   7.988  16.564  0.00  0.00    +0.000 HD
ENDROOT
BRANCH   2   5
ATOM      5  C   UNL     1       2.477   8.094  18.097  0.00  0.00    +0.000 A 
ATOM      6  N   UNL     1       2.360   9.138  17.250  0.00  0.00    +0.000 NA
ATOM      7  O   UNL     1       1.582  10.085  17.917  0.00  0.00    +0.000 OA
ATOM      8  C   UNL     1       1.254   9.610  19.142  0.00  0.00    +0.000 A 
ATOM      9  C   UNL     1       1.783   8.360  19.316  0.00  0.00    +0.000 A 
ATOM     10  C   UNL     1       1.576   7.546  20.535  0.00  0.00    +0.000 C 
ATOM     11  S   UNL     1       1.381   8.588  22.044  0.00  0.00    +0.000 S 
ATOM     12  C   UNL     1       0.428   9.990  21.420  0.00  0.00    +0.000 A 
ATOM     13  C   UNL     1      -0.331  10.719  22.346  0.00  0.00    +0.000 A 
ATOM     14  C   UNL     1      -1.055  11.839  21.936  0.00  0.00    +0.000 A 
ATOM     15  C   UNL     1      -1.015  12.246  20.603  0.00  0.00    +0.000 A 
ATOM     16  C   UNL     1      -0.254  11.534  19.671  0.00  0.00    +0.000 A 
ATOM     17  C   UNL     1       0.472  10.405  20.070  0.00  0.00    +0.000 A 
ENDBRANCH   2   5
BRANCH   1  24
ATOM     18  C   UNL     1       6.276   5.643  17.430  0.00  0.00    +0.000 A 
ATOM     19  C   UNL     1       7.170   4.622  17.061  0.00  0.00    +0.000 A 
ATOM     20  C   UNL     1       7.115   4.043  15.794  0.00  0.00    +0.000 A 
ATOM     21  C   UNL     1       6.157   4.464  14.881  0.00  0.00    +0.000 A 
ATOM     22  C   UNL     1       6.082   3.870  13.507  0.00  0.00    +0.000 C 
ATOM     23  C   UNL     1       5.239   5.457  15.257  0.00  0.00    +0.000 A 
ATOM     24  C   UNL     1       5.273   6.056  16.524  0.00  0.00    +0.000 A 
BRANCH  18  26
ATOM     25  C   UNL     1       7.390   5.843  19.513  0.00  0.00    +0.000 C 
ATOM     26  O   UNL     1       6.327   6.270  18.657  0.00  0.00    +0.000 OA
ENDBRANCH  18  26
ENDBRANCH   1  24
TORSDOF 3
ENDMDL
MODEL 7
REMARK VINA RESULT:      -7.4      2.234      3.705
REMARK  Name = 
REMARK  5 active torsions:
REMARK  status: ('A' for Active; 'I' for Inactive)
REMARK    1  A    between atoms: C_1  and  O_2
REMARK    2  A    between atoms: O_2  and  C_3
REMARK    3  A    between atoms: C_6  and  C_7
REMARK    4  A    between atoms: C_9  and  N_10
REMARK    5  A    between atoms: C_11  and  C_13
REMARK                            x       y       z     vdW  Elec       q    Type
REMARK                         _______ _______ _______ _____ _____    ______ ____
ROOT
ATOM      1  N   UNL     1       2.206   6.861  20.200  0.00  0.00    +0.000 N 
ATOM      2  C   UNL     1       1.851   8.101  19.680  0.00  0.00    +0.000 C 
ATOM      3  O   UNL     1       2.071   8.482  18.532  0.00  0.00    +0.000 OA
ATOM      4  H   UNL     1       2.013   6.697  21.188  0.00  0.00    +0.000 HD
ENDROOT
BRANCH   2   5
ATOM      5  C   UNL     1       1.158   9.017  20.608  0.00  0.00    +0.000 A 
ATOM      6  N   UNL     1       1.290   8.932  21.948  0.00  0.00    +0.000 NA
ATOM      7  O   UNL     1       0.500   9.954  22.474  0.00  0.00    +0.000 OA
ATOM      8  C   UNL     1      -0.097  10.625  21.460  0.00  0.00    +0.000 A 
ATOM      9  C   UNL     1       0.280  10.087  20.259  0.00  0.00    +0.000 A 
ATOM     10  C   UNL     1      -0.166  10.615  18.951  0.00  0.00    +0.000 C 
ATOM     11  S   UNL     1      -1.848  11.367  19.038  0.00  0.00    +0.000 S 
ATOM     12  C   UNL     1      -1.823  12.171  20.656  0.00  0.00    +0.000 A 
ATOM     13  C   UNL     1      -2.703  13.242  20.859  0.00  0.00    +0.000 A 
ATOM     14  C   UNL     1      -2.764  13.877  22.099  0.00  0.00    +0.000 A 
ATOM     15  C   UNL     1      -1.957  13.438  23.148  0.00  0.00    +0.000 A 
ATOM     16  C   UNL     1      -1.081  12.364  22.962  0.00  0.00    +0.000 A 
ATOM     17  C   UNL     1      -1.008  11.723  21.720  0.00  0.00    +0.000 A 
ENDBRANCH   2   5
BRANCH   1  24
ATOM     18  C   UNL     1       2.544   4.446  19.921  0.00  0.00    +0.000 A 
ATOM     19  C   UNL     1       3.069   3.368  19.187  0.00  0.00    +0.000 A 
ATOM     20  C   UNL     1       3.872   3.584  18.069  0.00  0.00    +0.000 A 
ATOM     21  C   UNL     1       4.150   4.881  17.656  0.00  0.00    +0.000 A 
ATOM     22  C   UNL     1       5.021   5.145  16.465  0.00  0.00    +0.000 C 
ATOM     23  C   UNL     1       3.597   5.960  18.363  0.00  0.00    +0.000 A 
ATOM     24  C   UNL     1       2.788   5.770  19.492  0.00  0.00    +0.000 A 
BRANCH  18  26
ATOM     25  C   UNL     1       1.829   2.960  21.625  0.00  0.00    +0.000 C 
ATOM     26  O   UNL     1       1.783   4.272  21.058  0.00  0.00    +0.000 OA
ENDBRANCH  18  26
ENDBRANCH   1  24
TORSDOF 3
ENDMDL
MODEL 8
REMARK VINA RESULT:      -7.4      3.128      4.458
REMARK  Name = 
REMARK  5 active torsions:
REMARK  status: ('A' for Active; 'I' for Inactive)
REMARK    1  A    between atoms: C_1  and  O_2
REMARK    2  A    between atoms: O_2  and  C_3
REMARK    3  A    between atoms: C_6  and  C_7
REMARK    4  A    between atoms: C_9  and  N_10
REMARK    5  A    between atoms: C_11  and  C_13
REMARK                            x       y       z     vdW  Elec       q    Type
REMARK                         _______ _______ _______ _____ _____    ______ ____
ROOT
ATOM      1  N   UNL     1       1.833   8.051  19.140  0.00  0.00    +0.000 N 
ATOM      2  C   UNL     1       1.550   9.243  18.481  0.00  0.00    +0.000 C 
ATOM      3  O   UNL     1       2.073   9.619  17.433  0.00  0.00    +0.000 OA
ATOM      4  H   UNL     1       1.368   7.890  20.032  0.00  0.00    +0.000 HD
ENDROOT
BRANCH   2   5
ATOM      5  C   UNL     1       0.541  10.110  19.119  0.00  0.00    +0.000 A 
ATOM      6  N   UNL     1       0.750  10.721  20.303  0.00  0.00    +0.000 NA
ATOM      7  O   UNL     1      -0.412  11.445  20.570  0.00  0.00    +0.000 OA
ATOM      8  C   UNL     1      -1.297  11.256  19.562  0.00  0.00    +0.000 A 
ATOM      9  C   UNL     1      -0.756  10.429  18.614  0.00  0.00    +0.000 A 
ATOM     10  C   UNL     1      -1.452  10.052  17.364  0.00  0.00    +0.000 C 
ATOM     11  S   UNL     1      -3.283   9.996  17.573  0.00  0.00    +0.000 S 
ATOM     12  C   UNL     1      -3.583  11.390  18.684  0.00  0.00    +0.000 A 
ATOM     13  C   UNL     1      -4.861  11.965  18.667  0.00  0.00    +0.000 A 
ATOM     14  C   UNL     1      -5.170  13.016  19.531  0.00  0.00    +0.000 A 
ATOM     15  C   UNL     1      -4.211  13.490  20.425  0.00  0.00    +0.000 A 
ATOM     16  C   UNL     1      -2.935  12.918  20.459  0.00  0.00    +0.000 A 
ATOM     17  C   UNL     1      -2.612  11.866  19.593  0.00  0.00    +0.000 A 
ENDBRANCH   2   5
BRANCH   1  24
ATOM     18  C   UNL     1       2.669   5.752  19.344  0.00  0.00    +0.000 A 
ATOM     19  C   UNL     1       3.466   4.700  18.860  0.00  0.00    +0.000 A 
ATOM     20  C   UNL     1       4.315   4.885  17.770  0.00  0.00    +0.000 A 
ATOM     21  C   UNL     1       4.370   6.121  17.137  0.00  0.00    +0.000 A 
ATOM     22  C   UNL     1       5.283   6.354  15.972  0.00  0.00    +0.000 C 
ATOM     23  C   UNL     1       3.548   7.163  17.592  0.00  0.00    +0.000 A 
ATOM     24  C   UNL     1       2.686   7.003  18.687  0.00  0.00    +0.000 A 
BRANCH  18  26
ATOM     25  C   UNL     1       1.624   4.274  20.875  0.00  0.00    +0.000 C 
ATOM     26  O   UNL     1       1.850   5.619  20.445  0.00  0.00    +0.000 OA
ENDBRANCH  18  26
ENDBRANCH   1  24
TORSDOF 3
ENDMDL
MODEL 9
REMARK VINA RESULT:      -7.4      2.924      8.684
REMARK  Name = 
REMARK  5 active torsions:
REMARK  status: ('A' for Active; 'I' for Inactive)
REMARK    1  A    between atoms: C_1  and  O_2
REMARK    2  A    between atoms: O_2  and  C_3
REMARK    3  A    between atoms: C_6  and  C_7
REMARK    4  A    between atoms: C_9  and  N_10
REMARK    5  A    between atoms: C_11  and  C_13
REMARK                            x       y       z     vdW  Elec       q    Type
REMARK                         _______ _______ _______ _____ _____    ______ ____
ROOT
ATOM      1  N   UNL     1      -0.292  10.424  20.055  0.00  0.00    +0.000 N 
ATOM      2  C   UNL     1       0.934  10.736  19.475  0.00  0.00    +0.000 C 
ATOM      3  O   UNL     1       1.475  11.841  19.502  0.00  0.00    +0.000 OA
ATOM      4  H   UNL     1      -0.650   9.481  19.907  0.00  0.00    +0.000 HD
ENDROOT
BRANCH   2   5
ATOM      5  C   UNL     1       1.616   9.632  18.772  0.00  0.00    +0.000 A 
ATOM      6  N   UNL     1       2.018   9.725  17.488  0.00  0.00    +0.000 NA
ATOM      7  O   UNL     1       2.617   8.502  17.186  0.00  0.00    +0.000 OA
ATOM      8  C   UNL     1       2.559   7.696  18.273  0.00  0.00    +0.000 A 
ATOM      9  C   UNL     1       1.944   8.349  19.307  0.00  0.00    +0.000 A 
ATOM     10  C   UNL     1       1.756   7.760  20.651  0.00  0.00    +0.000 C 
ATOM     11  S   UNL     1       1.560   5.927  20.588  0.00  0.00    +0.000 S 
ATOM     12  C   UNL     1       2.716   5.464  19.278  0.00  0.00    +0.000 A 
ATOM     13  C   UNL     1       3.212   4.154  19.288  0.00  0.00    +0.000 A 
ATOM     14  C   UNL     1       4.074   3.721  18.280  0.00  0.00    +0.000 A 
ATOM     15  C   UNL     1       4.436   4.588  17.250  0.00  0.00    +0.000 A 
ATOM     16  C   UNL     1       3.940   5.895  17.223  0.00  0.00    +0.000 A 
ATOM     17  C   UNL     1       3.079   6.342  18.232  0.00  0.00    +0.000 A 
ENDBRANCH   2   5
BRANCH   1  24
ATOM     18  C   UNL     1      -0.796  11.423  22.239  0.00  0.00    +0.000 A 
ATOM     19  C   UNL     1      -1.553  12.308  23.027  0.00  0.00    +0.000 A 
ATOM     20  C   UNL     1      -2.632  13.006  22.487  0.00  0.00    +0.000 A 
ATOM     21  C   UNL     1      -2.963  12.842  21.147  0.00  0.00    +0.000 A 
ATOM     22  C   UNL     1      -4.125  13.568  20.542  0.00  0.00    +0.000 C 
ATOM     23  C   UNL     1      -2.186  11.989  20.348  0.00  0.00    +0.000 A 
ATOM     24  C   UNL     1      -1.097  11.274  20.867  0.00  0.00    +0.000 A 
BRANCH  18  26
ATOM     25  C   UNL     1      -0.129   9.475  23.414  0.00  0.00    +0.000 C 
ATOM     26  O   UNL     1       0.250  10.682  22.748  0.00  0.00    +0.000 OA
ENDBRANCH  18  26
ENDBRANCH   1  24
TORSDOF 3
ENDMDL
