MODEL 1
REMARK VINA RESULT:      -6.5      0.000      0.000
REMARK  Name = 
REMARK  8 active torsions:
REMARK  status: ('A' for Active; 'I' for Inactive)
REMARK    1  A    between atoms: N_1  and  C_2
REMARK    2  A    between atoms: C_2  and  N_4
REMARK    3  A    between atoms: N_4  and  N_5
REMARK    4  A    between atoms: C_6  and  C_7
REMARK    5  A    between atoms: C_11  and  C_12
REMARK    6  A    between atoms: N_13  and  N_14
REMARK    7  A    between atoms: N_14  and  C_15
REMARK    8  A    between atoms: C_15  and  N_16
REMARK                            x       y       z     vdW  Elec       q    Type
REMARK                         _______ _______ _______ _____ _____    ______ ____
ROOT
ATOM      1  C   UNL     1       5.334   4.720  15.749  0.00  0.00    +0.000 A 
ATOM      2  C   UNL     1       5.360   6.079  15.423  0.00  0.00    +0.000 A 
ATOM      3  C   UNL     1       4.861   7.015  16.332  0.00  0.00    +0.000 A 
ATOM      4  C   UNL     1       4.346   6.593  17.561  0.00  0.00    +0.000 A 
ATOM      5  C   UNL     1       4.327   5.231  17.880  0.00  0.00    +0.000 A 
ATOM      6  C   UNL     1       4.815   4.293  16.977  0.00  0.00    +0.000 A 
ENDROOT
BRANCH   1   8
ATOM      7  N   UNL     1       6.012   4.036  13.552  0.00  0.00    +0.000 NA
ATOM      8  C   UNL     1       5.869   3.726  14.799  0.00  0.00    +0.000 C 
BRANCH   7   9
ATOM      9  N   UNL     1       6.493   3.056  12.738  0.00  0.00    +0.000 N 
ATOM     10  H   UNL     1       7.451   2.729  12.820  0.00  0.00    +0.000 HD
BRANCH   9  11
ATOM     11  C   UNL     1       5.676   2.465  11.811  0.00  0.00    +0.000 C 
ATOM     12  S   UNL     1       4.279   3.172  11.269  0.00  0.00    +0.000 S 
BRANCH  11  13
ATOM     13  N   UNL     1       6.093   1.255  11.364  0.00  0.00    +0.000 N 
ATOM     14  H   UNL     1       6.949   0.831  11.690  0.00  0.00    +0.000 HD
ATOM     15  H   UNL     1       5.542   0.826  10.632  0.00  0.00    +0.000 HD
ENDBRANCH  11  13
ENDBRANCH   9  11
ENDBRANCH   7   9
ENDBRANCH   1   8
BRANCH   5  16
ATOM     16  C   UNL     1       3.803   4.760  19.177  0.00  0.00    +0.000 C 
ATOM     17  N   UNL     1       2.940   5.458  19.842  0.00  0.00    +0.000 NA
BRANCH  17  18
ATOM     18  N   UNL     1       2.536   4.909  21.025  0.00  0.00    +0.000 N 
ATOM     19  H   UNL     1       2.682   5.394  21.905  0.00  0.00    +0.000 HD
BRANCH  18  20
ATOM     20  C   UNL     1       1.926   3.684  21.049  0.00  0.00    +0.000 C 
ATOM     21  S   UNL     1       0.795   3.228  19.927  0.00  0.00    +0.000 S 
BRANCH  20  22
ATOM     22  N   UNL     1       2.310   2.868  22.060  0.00  0.00    +0.000 N 
ATOM     23  H   UNL     1       2.948   2.120  21.818  0.00  0.00    +0.000 HD
ATOM     24  H   UNL     1       1.900   2.929  22.980  0.00  0.00    +0.000 HD
ENDBRANCH  20  22
ENDBRANCH  18  20
ENDBRANCH  17  18
ENDBRANCH   5  16
TORSDOF 8
ENDMDL
MODEL 2
REMARK VINA RESULT:      -6.5      0.174      7.430
REMARK  Name = 
REMARK  8 active torsions:
REMARK  status: ('A' for Active; 'I' for Inactive)
REMARK    1  A    between atoms: N_1  and  C_2
REMARK    2  A    between atoms: C_2  and  N_4
REMARK    3  A    between atoms: N_4  and  N_5
REMARK    4  A    between atoms: C_6  and  C_7
REMARK    5  A    between atoms: C_11  and  C_12
REMARK    6  A    between atoms: N_13  and  N_14
REMARK    7  A    between atoms: N_14  and  C_15
REMARK    8  A    between atoms: C_15  and  N_16
REMARK                            x       y       z     vdW  Elec       q    Type
REMARK                         _______ _______ _______ _____ _____    ______ ____
ROOT
ATOM      1  C   UNL     1       4.331   5.147  17.997  0.00  0.00    +0.000 A 
ATOM      2  C   UNL     1       4.282   6.517  17.730  0.00  0.00    +0.000 A 
ATOM      3  C   UNL     1       4.786   7.002  16.521  0.00  0.00    +0.000 A 
ATOM      4  C   UNL     1       5.330   6.119  15.585  0.00  0.00    +0.000 A 
ATOM      5  C   UNL     1       5.373   4.748  15.860  0.00  0.00    +0.000 A 
ATOM      6  C   UNL     1       4.878   4.259  17.065  0.00  0.00    +0.000 A 
ENDROOT
BRANCH   1   8
ATOM      7  N   UNL     1       2.911   5.310  19.925  0.00  0.00    +0.000 NA
ATOM      8  C   UNL     1       3.789   4.625  19.268  0.00  0.00    +0.000 C 
BRANCH   7   9
ATOM      9  N   UNL     1       2.477   4.768  21.097  0.00  0.00    +0.000 N 
ATOM     10  H   UNL     1       2.605   5.255  21.979  0.00  0.00    +0.000 HD
BRANCH   9  11
ATOM     11  C   UNL     1       1.823   3.565  21.099  0.00  0.00    +0.000 C 
ATOM     12  S   UNL     1       0.851   3.071  19.852  0.00  0.00    +0.000 S 
BRANCH  11  13
ATOM     13  N   UNL     1       2.029   2.801  22.200  0.00  0.00    +0.000 N 
ATOM     14  H   UNL     1       1.334   2.151  22.537  0.00  0.00    +0.000 HD
ATOM     15  H   UNL     1       2.886   2.964  22.712  0.00  0.00    +0.000 HD
ENDBRANCH  11  13
ENDBRANCH   9  11
ENDBRANCH   7   9
ENDBRANCH   1   8
BRANCH   5  16
ATOM     16  C   UNL     1       5.928   3.792  14.881  0.00  0.00    +0.000 C 
ATOM     17  N   UNL     1       5.762   3.965  13.611  0.00  0.00    +0.000 NA
BRANCH  17  18
ATOM     18  N   UNL     1       6.326   3.009  12.815  0.00  0.00    +0.000 N 
ATOM     19  H   UNL     1       7.281   2.699  12.966  0.00  0.00    +0.000 HD
BRANCH  18  20
ATOM     20  C   UNL     1       5.614   2.449  11.790  0.00  0.00    +0.000 C 
ATOM     21  S   UNL     1       4.248   3.150  11.165  0.00  0.00    +0.000 S 
BRANCH  20  22
ATOM     22  N   UNL     1       6.104   1.277  11.321  0.00  0.00    +0.000 N 
ATOM     23  H   UNL     1       5.697   0.930  10.461  0.00  0.00    +0.000 HD
ATOM     24  H   UNL     1       6.756   0.721  11.852  0.00  0.00    +0.000 HD
ENDBRANCH  20  22
ENDBRANCH  18  20
ENDBRANCH  17  18
ENDBRANCH   5  16
TORSDOF 8
ENDMDL
MODEL 3
REMARK VINA RESULT:      -6.5      3.645      4.790
REMARK  Name = 
REMARK  8 active torsions:
REMARK  status: ('A' for Active; 'I' for Inactive)
REMARK    1  A    between atoms: N_1  and  C_2
REMARK    2  A    between atoms: C_2  and  N_4
REMARK    3  A    between atoms: N_4  and  N_5
REMARK    4  A    between atoms: C_6  and  C_7
REMARK    5  A    between atoms: C_11  and  C_12
REMARK    6  A    between atoms: N_13  and  N_14
REMARK    7  A    between atoms: N_14  and  C_15
REMARK    8  A    between atoms: C_15  and  N_16
REMARK                            x       y       z     vdW  Elec       q    Type
REMARK                         _______ _______ _______ _____ _____    ______ ____
ROOT
ATOM      1  C   UNL     1       3.087   3.586  17.985  0.00  0.00    +0.000 A 
ATOM      2  C   UNL     1       2.230   2.482  17.995  0.00  0.00    +0.000 A 
ATOM      3  C   UNL     1       1.156   2.452  18.887  0.00  0.00    +0.000 A 
ATOM      4  C   UNL     1       0.939   3.522  19.759  0.00  0.00    +0.000 A 
ATOM      5  C   UNL     1       1.800   4.624  19.741  0.00  0.00    +0.000 A 
ATOM      6  C   UNL     1       2.876   4.659  18.859  0.00  0.00    +0.000 A 
ENDROOT
BRANCH   1   8
ATOM      7  N   UNL     1       5.388   3.999  17.446  0.00  0.00    +0.000 NA
ATOM      8  C   UNL     1       4.217   3.631  17.037  0.00  0.00    +0.000 C 
BRANCH   7   9
ATOM      9  N   UNL     1       6.372   4.033  16.505  0.00  0.00    +0.000 N 
ATOM     10  H   UNL     1       6.653   3.192  16.009  0.00  0.00    +0.000 HD
BRANCH   9  11
ATOM     11  C   UNL     1       6.979   5.218  16.184  0.00  0.00    +0.000 C 
ATOM     12  S   UNL     1       7.159   6.456  17.270  0.00  0.00    +0.000 S 
BRANCH  11  13
ATOM     13  N   UNL     1       7.427   5.308  14.907  0.00  0.00    +0.000 N 
ATOM     14  H   UNL     1       7.514   4.496  14.314  0.00  0.00    +0.000 HD
ATOM     15  H   UNL     1       7.740   6.219  14.599  0.00  0.00    +0.000 HD
ENDBRANCH  11  13
ENDBRANCH   9  11
ENDBRANCH   7   9
ENDBRANCH   1   8
BRANCH   5  16
ATOM     16  C   UNL     1       1.584   5.775  20.640  0.00  0.00    +0.000 C 
ATOM     17  N   UNL     1       2.001   6.957  20.323  0.00  0.00    +0.000 NA
BRANCH  17  18
ATOM     18  N   UNL     1       1.736   7.932  21.241  0.00  0.00    +0.000 N 
ATOM     19  H   UNL     1       2.296   8.026  22.082  0.00  0.00    +0.000 HD
BRANCH  18  20
ATOM     20  C   UNL     1       0.702   8.807  21.046  0.00  0.00    +0.000 C 
ATOM     21  S   UNL     1       0.709   9.943  19.838  0.00  0.00    +0.000 S 
BRANCH  20  22
ATOM     22  N   UNL     1      -0.331   8.682  21.912  0.00  0.00    +0.000 N 
ATOM     23  H   UNL     1      -0.551   7.743  22.219  0.00  0.00    +0.000 HD
ATOM     24  H   UNL     1      -0.922   9.463  22.154  0.00  0.00    +0.000 HD
ENDBRANCH  20  22
ENDBRANCH  18  20
ENDBRANCH  17  18
ENDBRANCH   5  16
TORSDOF 8
ENDMDL
MODEL 4
REMARK VINA RESULT:      -6.4      3.287      7.925
REMARK  Name = 
REMARK  8 active torsions:
REMARK  status: ('A' for Active; 'I' for Inactive)
REMARK    1  A    between atoms: N_1  and  C_2
REMARK    2  A    between atoms: C_2  and  N_4
REMARK    3  A    between atoms: N_4  and  N_5
REMARK    4  A    between atoms: C_6  and  C_7
REMARK    5  A    between atoms: C_11  and  C_12
REMARK    6  A    between atoms: N_13  and  N_14
REMARK    7  A    between atoms: N_14  and  C_15
REMARK    8  A    between atoms: C_15  and  N_16
REMARK                            x       y       z     vdW  Elec       q    Type
REMARK                         _______ _______ _______ _____ _____    ______ ____
ROOT
ATOM      1  C   UNL     1       1.854   4.476  19.762  0.00  0.00    +0.000 A 
ATOM      2  C   UNL     1       0.833   3.530  19.639  0.00  0.00    +0.000 A 
ATOM      3  C   UNL     1       0.991   2.456  18.759  0.00  0.00    +0.000 A 
ATOM      4  C   UNL     1       2.165   2.330  18.012  0.00  0.00    +0.000 A 
ATOM      5  C   UNL     1       3.183   3.280  18.143  0.00  0.00    +0.000 A 
ATOM      6  C   UNL     1       3.030   4.355  19.013  0.00  0.00    +0.000 A 
ENDROOT
BRANCH   1   8
ATOM      7  N   UNL     1       1.983   6.807  20.312  0.00  0.00    +0.000 NA
ATOM      8  C   UNL     1       1.700   5.606  20.698  0.00  0.00    +0.000 C 
BRANCH   7   9
ATOM      9  N   UNL     1       1.833   7.791  21.242  0.00  0.00    +0.000 N 
ATOM     10  H   UNL     1       2.420   7.825  22.070  0.00  0.00    +0.000 HD
BRANCH   9  11
ATOM     11  C   UNL     1       0.903   8.780  21.057  0.00  0.00    +0.000 C 
ATOM     12  S   UNL     1      -0.128   9.276  22.254  0.00  0.00    +0.000 S 
BRANCH  11  13
ATOM     13  N   UNL     1       0.887   9.329  19.817  0.00  0.00    +0.000 N 
ATOM     14  H   UNL     1       1.602   9.971  19.508  0.00  0.00    +0.000 HD
ATOM     15  H   UNL     1       0.083   9.122  19.239  0.00  0.00    +0.000 HD
ENDBRANCH  11  13
ENDBRANCH   9  11
ENDBRANCH   7   9
ENDBRANCH   1   8
BRANCH   5  16
ATOM     16  C   UNL     1       4.439   3.162  17.378  0.00  0.00    +0.000 C 
ATOM     17  N   UNL     1       5.310   4.118  17.372  0.00  0.00    +0.000 NA
BRANCH  17  18
ATOM     18  N   UNL     1       6.429   3.880  16.626  0.00  0.00    +0.000 N 
ATOM     19  H   UNL     1       7.099   3.168  16.900  0.00  0.00    +0.000 HD
BRANCH  18  20
ATOM     20  C   UNL     1       6.673   4.603  15.491  0.00  0.00    +0.000 C 
ATOM     21  S   UNL     1       6.189   4.096  13.988  0.00  0.00    +0.000 S 
BRANCH  20  22
ATOM     22  N   UNL     1       7.343   5.765  15.679  0.00  0.00    +0.000 N 
ATOM     23  H   UNL     1       7.237   6.468  14.959  0.00  0.00    +0.000 HD
ATOM     24  H   UNL     1       8.000   5.885  16.435  0.00  0.00    +0.000 HD
ENDBRANCH  20  22
ENDBRANCH  18  20
ENDBRANCH  17  18
ENDBRANCH   5  16
TORSDOF 8
ENDMDL
MODEL 5
REMARK VINA RESULT:      -6.4      1.305      7.508
REMARK  Name = 
REMARK  8 active torsions:
REMARK  status: ('A' for Active; 'I' for Inactive)
REMARK    1  A    between atoms: N_1  and  C_2
REMARK    2  A    between atoms: C_2  and  N_4
REMARK    3  A    between atoms: N_4  and  N_5
REMARK    4  A    between atoms: C_6  and  C_7
REMARK    5  A    between atoms: C_11  and  C_12
REMARK    6  A    between atoms: N_13  and  N_14
REMARK    7  A    between atoms: N_14  and  C_15
REMARK    8  A    between atoms: C_15  and  N_16
REMARK                            x       y       z     vdW  Elec       q    Type
REMARK                         _______ _______ _______ _____ _____    ______ ____
ROOT
ATOM      1  C   UNL     1       4.830   4.688  17.963  0.00  0.00    +0.000 A 
ATOM      2  C   UNL     1       6.066   4.761  18.610  0.00  0.00    +0.000 A 
ATOM      3  C   UNL     1       7.241   4.754  17.853  0.00  0.00    +0.000 A 
ATOM      4  C   UNL     1       7.175   4.680  16.459  0.00  0.00    +0.000 A 
ATOM      5  C   UNL     1       5.933   4.609  15.820  0.00  0.00    +0.000 A 
ATOM      6  C   UNL     1       4.759   4.609  16.568  0.00  0.00    +0.000 A 
ENDROOT
BRANCH   1   8
ATOM      7  N   UNL     1       3.579   5.230  19.937  0.00  0.00    +0.000 NA
ATOM      8  C   UNL     1       3.584   4.707  18.755  0.00  0.00    +0.000 C 
BRANCH   7   9
ATOM      9  N   UNL     1       2.394   5.190  20.609  0.00  0.00    +0.000 N 
ATOM     10  H   UNL     1       1.964   6.038  20.965  0.00  0.00    +0.000 HD
BRANCH   9  11
ATOM     11  C   UNL     1       1.742   3.998  20.786  0.00  0.00    +0.000 C 
ATOM     12  S   UNL     1       2.401   2.733  21.627  0.00  0.00    +0.000 S 
BRANCH  11  13
ATOM     13  N   UNL     1       0.510   3.928  20.224  0.00  0.00    +0.000 N 
ATOM     14  H   UNL     1      -0.324   3.803  20.778  0.00  0.00    +0.000 HD
ATOM     15  H   UNL     1       0.472   3.934  19.213  0.00  0.00    +0.000 HD
ENDBRANCH  11  13
ENDBRANCH   9  11
ENDBRANCH   7   9
ENDBRANCH   1   8
BRANCH   5  16
ATOM     16  C   UNL     1       5.835   4.546  14.349  0.00  0.00    +0.000 C 
ATOM     17  N   UNL     1       6.393   3.587  13.684  0.00  0.00    +0.000 NA
BRANCH  17  18
ATOM     18  N   UNL     1       6.226   3.646  12.330  0.00  0.00    +0.000 N 
ATOM     19  H   UNL     1       6.706   4.345  11.772  0.00  0.00    +0.000 HD
BRANCH  18  20
ATOM     20  C   UNL     1       5.401   2.759  11.693  0.00  0.00    +0.000 C 
ATOM     21  S   UNL     1       3.902   3.183  11.126  0.00  0.00    +0.000 S 
BRANCH  20  22
ATOM     22  N   UNL     1       5.895   1.505  11.559  0.00  0.00    +0.000 N 
ATOM     23  H   UNL     1       5.761   1.061  10.659  0.00  0.00    +0.000 HD
ATOM     24  H   UNL     1       6.275   0.995  12.342  0.00  0.00    +0.000 HD
ENDBRANCH  20  22
ENDBRANCH  18  20
ENDBRANCH  17  18
ENDBRANCH   5  16
TORSDOF 8
ENDMDL
MODEL 6
REMARK VINA RESULT:      -6.4      3.603      8.027
REMARK  Name = 
REMARK  8 active torsions:
REMARK  status: ('A' for Active; 'I' for Inactive)
REMARK    1  A    between atoms: N_1  and  C_2
REMARK    2  A    between atoms: C_2  and  N_4
REMARK    3  A    between atoms: N_4  and  N_5
REMARK    4  A    between atoms: C_6  and  C_7
REMARK    5  A    between atoms: C_11  and  C_12
REMARK    6  A    between atoms: N_13  and  N_14
REMARK    7  A    between atoms: N_14  and  C_15
REMARK    8  A    between atoms: C_15  and  N_16
REMARK                            x       y       z     vdW  Elec       q    Type
REMARK                         _______ _______ _______ _____ _____    ______ ____
ROOT
ATOM      1  C   UNL     1       1.693   4.753  19.823  0.00  0.00    +0.000 A 
ATOM      2  C   UNL     1       0.869   3.635  19.971  0.00  0.00    +0.000 A 
ATOM      3  C   UNL     1       1.009   2.555  19.097  0.00  0.00    +0.000 A 
ATOM      4  C   UNL     1       1.973   2.593  18.086  0.00  0.00    +0.000 A 
ATOM      5  C   UNL     1       2.796   3.716  17.946  0.00  0.00    +0.000 A 
ATOM      6  C   UNL     1       2.657   4.798  18.809  0.00  0.00    +0.000 A 
ENDROOT
BRANCH   1   8
ATOM      7  N   UNL     1       1.962   7.069  20.390  0.00  0.00    +0.000 NA
ATOM      8  C   UNL     1       1.559   5.894  20.750  0.00  0.00    +0.000 C 
BRANCH   7   9
ATOM      9  N   UNL     1       1.820   8.063  21.311  0.00  0.00    +0.000 N 
ATOM     10  H   UNL     1       2.491   8.180  22.064  0.00  0.00    +0.000 HD
BRANCH   9  11
ATOM     11  C   UNL     1       0.782   8.951  21.213  0.00  0.00    +0.000 C 
ATOM     12  S   UNL     1      -0.218   9.303  22.486  0.00  0.00    +0.000 S 
BRANCH  11  13
ATOM     13  N   UNL     1       0.629   9.526  19.995  0.00  0.00    +0.000 N 
ATOM     14  H   UNL     1       1.005  10.439  19.784  0.00  0.00    +0.000 HD
ATOM     15  H   UNL     1       0.056   9.028  19.326  0.00  0.00    +0.000 HD
ENDBRANCH  11  13
ENDBRANCH   9  11
ENDBRANCH   7   9
ENDBRANCH   1   8
BRANCH   5  16
ATOM     16  C   UNL     1       3.832   3.775  16.897  0.00  0.00    +0.000 C 
ATOM     17  N   UNL     1       4.587   4.817  16.762  0.00  0.00    +0.000 NA
BRANCH  17  18
ATOM     18  N   UNL     1       5.506   4.742  15.755  0.00  0.00    +0.000 N 
ATOM     19  H   UNL     1       5.222   4.546  14.800  0.00  0.00    +0.000 HD
BRANCH  18  20
ATOM     20  C   UNL     1       6.836   4.930  16.013  0.00  0.00    +0.000 C 
ATOM     21  S   UNL     1       7.492   4.719  17.521  0.00  0.00    +0.000 S 
BRANCH  20  22
ATOM     22  N   UNL     1       7.583   5.304  14.947  0.00  0.00    +0.000 N 
ATOM     23  H   UNL     1       8.065   6.191  15.022  0.00  0.00    +0.000 HD
ATOM     24  H   UNL     1       7.574   4.786  14.081  0.00  0.00    +0.000 HD
ENDBRANCH  20  22
ENDBRANCH  18  20
ENDBRANCH  17  18
ENDBRANCH   5  16
TORSDOF 8
ENDMDL
MODEL 7
REMARK VINA RESULT:      -6.4      1.596      1.813
REMARK  Name = 
REMARK  8 active torsions:
REMARK  status: ('A' for Active; 'I' for Inactive)
REMARK    1  A    between atoms: N_1  and  C_2
REMARK    2  A    between atoms: C_2  and  N_4
REMARK    3  A    between atoms: N_4  and  N_5
REMARK    4  A    between atoms: C_6  and  C_7
REMARK    5  A    between atoms: C_11  and  C_12
REMARK    6  A    between atoms: N_13  and  N_14
REMARK    7  A    between atoms: N_14  and  C_15
REMARK    8  A    between atoms: C_15  and  N_16
REMARK                            x       y       z     vdW  Elec       q    Type
REMARK                         _______ _______ _______ _____ _____    ______ ____
ROOT
ATOM      1  C   UNL     1       5.998   4.616  15.771  0.00  0.00    +0.000 A 
ATOM      2  C   UNL     1       7.271   4.702  16.340  0.00  0.00    +0.000 A 
ATOM      3  C   UNL     1       7.403   4.746  17.730  0.00  0.00    +0.000 A 
ATOM      4  C   UNL     1       6.268   4.697  18.543  0.00  0.00    +0.000 A 
ATOM      5  C   UNL     1       4.998   4.608  17.966  0.00  0.00    +0.000 A 
ATOM      6  C   UNL     1       4.858   4.571  16.582  0.00  0.00    +0.000 A 
ENDROOT
BRANCH   1   8
ATOM      7  N   UNL     1       6.434   3.618  13.633  0.00  0.00    +0.000 NA
ATOM      8  C   UNL     1       5.850   4.557  14.304  0.00  0.00    +0.000 C 
BRANCH   7   9
ATOM      9  N   UNL     1       6.264   3.647  12.282  0.00  0.00    +0.000 N 
ATOM     10  H   UNL     1       6.774   4.307  11.703  0.00  0.00    +0.000 HD
BRANCH   9  11
ATOM     11  C   UNL     1       5.422   2.754  11.674  0.00  0.00    +0.000 C 
ATOM     12  S   UNL     1       3.916   3.173  11.126  0.00  0.00    +0.000 S 
BRANCH  11  13
ATOM     13  N   UNL     1       5.911   1.495  11.549  0.00  0.00    +0.000 N 
ATOM     14  H   UNL     1       6.886   1.284  11.701  0.00  0.00    +0.000 HD
ATOM     15  H   UNL     1       5.265   0.787  11.224  0.00  0.00    +0.000 HD
ENDBRANCH  11  13
ENDBRANCH   9  11
ENDBRANCH   7   9
ENDBRANCH   1   8
BRANCH   5  16
ATOM     16  C   UNL     1       3.783   4.539  18.802  0.00  0.00    +0.000 C 
ATOM     17  N   UNL     1       2.610   4.431  18.268  0.00  0.00    +0.000 NA
BRANCH  17  18
ATOM     18  N   UNL     1       1.572   4.376  19.153  0.00  0.00    +0.000 N 
ATOM     19  H   UNL     1       1.061   5.213  19.415  0.00  0.00    +0.000 HD
BRANCH  18  20
ATOM     20  C   UNL     1       1.198   3.184  19.711  0.00  0.00    +0.000 C 
ATOM     21  S   UNL     1       1.464   2.822  21.307  0.00  0.00    +0.000 S 
BRANCH  20  22
ATOM     22  N   UNL     1       0.594   2.315  18.865  0.00  0.00    +0.000 N 
ATOM     23  H   UNL     1       0.919   2.319  17.907  0.00  0.00    +0.000 HD
ATOM     24  H   UNL     1      -0.211   1.774  19.142  0.00  0.00    +0.000 HD
ENDBRANCH  20  22
ENDBRANCH  18  20
ENDBRANCH  17  18
ENDBRANCH   5  16
TORSDOF 8
ENDMDL
MODEL 8
REMARK VINA RESULT:      -6.3      3.296      4.625
REMARK  Name = 
REMARK  8 active torsions:
REMARK  status: ('A' for Active; 'I' for Inactive)
REMARK    1  A    between atoms: N_1  and  C_2
REMARK    2  A    between atoms: C_2  and  N_4
REMARK    3  A    between atoms: N_4  and  N_5
REMARK    4  A    between atoms: C_6  and  C_7
REMARK    5  A    between atoms: C_11  and  C_12
REMARK    6  A    between atoms: N_13  and  N_14
REMARK    7  A    between atoms: N_14  and  C_15
REMARK    8  A    between atoms: C_15  and  N_16
REMARK                            x       y       z     vdW  Elec       q    Type
REMARK                         _______ _______ _______ _____ _____    ______ ____
ROOT
ATOM      1  C   UNL     1       3.169   3.227  18.316  0.00  0.00    +0.000 A 
ATOM      2  C   UNL     1       2.123   2.318  18.134  0.00  0.00    +0.000 A 
ATOM      3  C   UNL     1       0.925   2.497  18.831  0.00  0.00    +0.000 A 
ATOM      4  C   UNL     1       0.776   3.582  19.699  0.00  0.00    +0.000 A 
ATOM      5  C   UNL     1       1.827   4.488  19.873  0.00  0.00    +0.000 A 
ATOM      6  C   UNL     1       3.025   4.313  19.188  0.00  0.00    +0.000 A 
ENDROOT
BRANCH   1   8
ATOM      7  N   UNL     1       5.179   4.076  17.319  0.00  0.00    +0.000 NA
ATOM      8  C   UNL     1       4.433   3.051  17.575  0.00  0.00    +0.000 C 
BRANCH   7   9
ATOM      9  N   UNL     1       6.318   3.832  16.614  0.00  0.00    +0.000 N 
ATOM     10  H   UNL     1       6.954   3.088  16.886  0.00  0.00    +0.000 HD
BRANCH   9  11
ATOM     11  C   UNL     1       6.609   4.569  15.497  0.00  0.00    +0.000 C 
ATOM     12  S   UNL     1       6.115   4.128  13.979  0.00  0.00    +0.000 S 
BRANCH  11  13
ATOM     13  N   UNL     1       7.333   5.693  15.722  0.00  0.00    +0.000 N 
ATOM     14  H   UNL     1       7.344   6.151  16.621  0.00  0.00    +0.000 HD
ATOM     15  H   UNL     1       7.807   6.096  14.924  0.00  0.00    +0.000 HD
ENDBRANCH  11  13
ENDBRANCH   9  11
ENDBRANCH   7   9
ENDBRANCH   1   8
BRANCH   5  16
ATOM     16  C   UNL     1       1.689   5.651  20.772  0.00  0.00    +0.000 C 
ATOM     17  N   UNL     1       1.957   6.848  20.360  0.00  0.00    +0.000 NA
BRANCH  17  18
ATOM     18  N   UNL     1       1.787   7.834  21.290  0.00  0.00    +0.000 N 
ATOM     19  H   UNL     1       2.334   7.848  22.145  0.00  0.00    +0.000 HD
BRANCH  18  20
ATOM     20  C   UNL     1       0.868   8.827  21.089  0.00  0.00    +0.000 C 
ATOM     21  S   UNL     1      -0.184   9.324  22.270  0.00  0.00    +0.000 S 
BRANCH  20  22
ATOM     22  N   UNL     1       0.876   9.378  19.851  0.00  0.00    +0.000 N 
ATOM     23  H   UNL     1       1.430  10.218  19.735  0.00  0.00    +0.000 HD
ATOM     24  H   UNL     1       0.278   9.041  19.113  0.00  0.00    +0.000 HD
ENDBRANCH  20  22
ENDBRANCH  18  20
ENDBRANCH  17  18
ENDBRANCH   5  16
TORSDOF 8
ENDMDL
MODEL 9
REMARK VINA RESULT:      -6.3      1.722      7.038
REMARK  Name = 
REMARK  8 active torsions:
REMARK  status: ('A' for Active; 'I' for Inactive)
REMARK    1  A    between atoms: N_1  and  C_2
REMARK    2  A    between atoms: C_2  and  N_4
REMARK    3  A    between atoms: N_4  and  N_5
REMARK    4  A    between atoms: C_6  and  C_7
REMARK    5  A    between atoms: C_11  and  C_12
REMARK    6  A    between atoms: N_13  and  N_14
REMARK    7  A    between atoms: N_14  and  C_15
REMARK    8  A    between atoms: C_15  and  N_16
REMARK                            x       y       z     vdW  Elec       q    Type
REMARK                         _______ _______ _______ _____ _____    ______ ____
ROOT
ATOM      1  C   UNL     1       4.958   4.500  18.059  0.00  0.00    +0.000 A 
ATOM      2  C   UNL     1       5.934   5.064  18.886  0.00  0.00    +0.000 A 
ATOM      3  C   UNL     1       7.157   5.458  18.338  0.00  0.00    +0.000 A 
ATOM      4  C   UNL     1       7.397   5.294  16.972  0.00  0.00    +0.000 A 
ATOM      5  C   UNL     1       6.414   4.731  16.151  0.00  0.00    +0.000 A 
ATOM      6  C   UNL     1       5.196   4.330  16.691  0.00  0.00    +0.000 A 
ENDROOT
BRANCH   1   8
ATOM      7  N   UNL     1       2.562   4.388  18.010  0.00  0.00    +0.000 NA
ATOM      8  C   UNL     1       3.659   4.092  18.628  0.00  0.00    +0.000 C 
BRANCH   7   9
ATOM      9  N   UNL     1       1.405   3.992  18.611  0.00  0.00    +0.000 N 
ATOM     10  H   UNL     1       0.543   4.512  18.483  0.00  0.00    +0.000 HD
BRANCH   9  11
ATOM     11  C   UNL     1       1.379   2.857  19.377  0.00  0.00    +0.000 C 
ATOM     12  S   UNL     1       1.382   2.892  21.033  0.00  0.00    +0.000 S 
BRANCH  11  13
ATOM     13  N   UNL     1       1.348   1.694  18.680  0.00  0.00    +0.000 N 
ATOM     14  H   UNL     1       1.272   0.798  19.139  0.00  0.00    +0.000 HD
ATOM     15  H   UNL     1       1.479   1.761  17.680  0.00  0.00    +0.000 HD
ENDBRANCH  11  13
ENDBRANCH   9  11
ENDBRANCH   7   9
ENDBRANCH   1   8
BRANCH   5  16
ATOM     16  C   UNL     1       6.636   4.561  14.702  0.00  0.00    +0.000 C 
ATOM     17  N   UNL     1       6.128   3.559  14.061  0.00  0.00    +0.000 NA
BRANCH  17  18
ATOM     18  N   UNL     1       6.408   3.521  12.725  0.00  0.00    +0.000 N 
ATOM     19  H   UNL     1       7.183   4.049  12.337  0.00  0.00    +0.000 HD
BRANCH  18  20
ATOM     20  C   UNL     1       5.644   2.768  11.877  0.00  0.00    +0.000 C 
ATOM     21  S   UNL     1       4.161   3.267  11.328  0.00  0.00    +0.000 S 
BRANCH  20  22
ATOM     22  N   UNL     1       6.184   1.579  11.515  0.00  0.00    +0.000 N 
ATOM     23  H   UNL     1       6.273   0.884  12.246  0.00  0.00    +0.000 HD
ATOM     24  H   UNL     1       6.580   1.430  10.600  0.00  0.00    +0.000 HD
ENDBRANCH  20  22
ENDBRANCH  18  20
ENDBRANCH  17  18
ENDBRANCH   5  16
TORSDOF 8
ENDMDL
