MODEL 1
REMARK VINA RESULT:      -7.3      0.000      0.000
REMARK  Name = 
REMARK  11 active torsions:
REMARK  status: ('A' for Active; 'I' for Inactive)
REMARK    1  A    between atoms: C_1  and  C_2
REMARK    2  A    between atoms: C_2  and  O_4
REMARK    3  A    between atoms: O_4  and  C_5
REMARK    4  A    between atoms: C_7  and  C_8
REMARK    5  A    between atoms: C_9  and  O_10
REMARK    6  A    between atoms: C_9  and  C_11
REMARK    7  A    between atoms: C_11  and  C_12
REMARK    8  A    between atoms: C_12  and  C_13
REMARK    9  A    between atoms: C_18  and  C_19
REMARK   10  A    between atoms: C_23  and  C_24
REMARK   11  A    between atoms: C_23  and  C_25
REMARK                            x       y       z     vdW  Elec       q    Type
REMARK                         _______ _______ _______ _____ _____    ______ ____
ROOT
ATOM      1  C   UNL     1       4.068   5.486  19.474  0.00  0.00    +0.000 C 
ATOM      2  C   UNL     1       5.582   5.515  19.269  0.00  0.00    +0.000 C 
ATOM      3  C   UNL     1       6.033   5.193  17.834  0.00  0.00    +0.000 C 
ATOM      4  C   UNL     1       7.547   4.887  17.880  0.00  0.00    +0.000 C 
ATOM      5  C   UNL     1       5.160   4.146  17.038  0.00  0.00    +0.000 C 
ATOM      6  C   UNL     1       3.857   3.494  17.838  0.00  0.00    +0.000 C 
ATOM      7  C   UNL     1       2.590   3.677  16.954  0.00  0.00    +0.000 C 
ATOM      8  C   UNL     1       3.986   1.953  18.055  0.00  0.00    +0.000 C 
ATOM      9  C   UNL     1       2.695   1.327  18.605  0.00  0.00    +0.000 C 
ATOM     10  C   UNL     1       2.023   2.070  19.779  0.00  0.00    +0.000 C 
ATOM     11  C   UNL     1       2.198   3.626  19.916  0.00  0.00    +0.000 C 
ATOM     12  C   UNL     1       0.978   4.429  19.381  0.00  0.00    +0.000 C 
ATOM     13  C   UNL     1       2.126   3.917  21.446  0.00  0.00    +0.000 C 
ATOM     14  C   UNL     1       3.610   4.029  19.311  0.00  0.00    +0.000 C 
ENDROOT
BRANCH   5  15
ATOM     15  O   UNL     1       6.012   3.071  16.605  0.00  0.00    +0.000 OA
ATOM     16  H   UNL     1       6.435   2.678  17.388  0.00  0.00    +0.000 HD
ENDBRANCH   5  15
BRANCH   1  17
ATOM     17  O   UNL     1       3.405   6.315  18.520  0.00  0.00    +0.000 OA
BRANCH  17  19
ATOM     18  C   UNL     1       2.308   8.291  17.916  0.00  0.00    +0.000 C 
ATOM     19  C   UNL     1       2.643   7.326  19.011  0.00  0.00    +0.000 C 
ATOM     20  O   UNL     1       2.263   7.440  20.167  0.00  0.00    +0.000 OA
ENDBRANCH  17  19
ENDBRANCH   1  17
BRANCH   5  21
ATOM     21  C   UNL     1       4.677   4.811  15.676  0.00  0.00    +0.000 C 
BRANCH  21  22
ATOM     22  C   UNL     1       5.644   5.397  14.634  0.00  0.00    +0.000 C 
BRANCH  22  23
ATOM     23  C   UNL     1       5.886   4.389  13.514  0.00  0.00    +0.000 A 
ATOM     24  C   UNL     1       4.919   3.579  12.845  0.00  0.00    +0.000 A 
ATOM     25  C   UNL     1       5.593   2.839  11.886  0.00  0.00    +0.000 A 
ATOM     26  O   UNL     1       6.912   3.160  11.910  0.00  0.00    +0.000 OA
ATOM     27  C   UNL     1       7.083   4.094  12.884  0.00  0.00    +0.000 A 
ENDBRANCH  22  23
ENDBRANCH  21  22
ENDBRANCH   5  21
TORSDOF 6
ENDMDL
MODEL 2
REMARK VINA RESULT:      -6.7      0.891      1.136
REMARK  Name = 
REMARK  11 active torsions:
REMARK  status: ('A' for Active; 'I' for Inactive)
REMARK    1  A    between atoms: C_1  and  C_2
REMARK    2  A    between atoms: C_2  and  O_4
REMARK    3  A    between atoms: O_4  and  C_5
REMARK    4  A    between atoms: C_7  and  C_8
REMARK    5  A    between atoms: C_9  and  O_10
REMARK    6  A    between atoms: C_9  and  C_11
REMARK    7  A    between atoms: C_11  and  C_12
REMARK    8  A    between atoms: C_12  and  C_13
REMARK    9  A    between atoms: C_18  and  C_19
REMARK   10  A    between atoms: C_23  and  C_24
REMARK   11  A    between atoms: C_23  and  C_25
REMARK                            x       y       z     vdW  Elec       q    Type
REMARK                         _______ _______ _______ _____ _____    ______ ____
ROOT
ATOM      1  C   UNL     1       4.005   5.517  19.497  0.00  0.00    +0.000 C 
ATOM      2  C   UNL     1       5.523   5.575  19.322  0.00  0.00    +0.000 C 
ATOM      3  C   UNL     1       6.011   5.223  17.907  0.00  0.00    +0.000 C 
ATOM      4  C   UNL     1       7.531   4.954  17.994  0.00  0.00    +0.000 C 
ATOM      5  C   UNL     1       5.180   4.132  17.124  0.00  0.00    +0.000 C 
ATOM      6  C   UNL     1       3.876   3.473  17.916  0.00  0.00    +0.000 C 
ATOM      7  C   UNL     1       2.624   3.600  17.000  0.00  0.00    +0.000 C 
ATOM      8  C   UNL     1       4.036   1.943  18.181  0.00  0.00    +0.000 C 
ATOM      9  C   UNL     1       2.747   1.303  18.722  0.00  0.00    +0.000 C 
ATOM     10  C   UNL     1       2.034   2.063  19.859  0.00  0.00    +0.000 C 
ATOM     11  C   UNL     1       2.170   3.627  19.955  0.00  0.00    +0.000 C 
ATOM     12  C   UNL     1       0.943   4.384  19.370  0.00  0.00    +0.000 C 
ATOM     13  C   UNL     1       2.058   3.959  21.473  0.00  0.00    +0.000 C 
ATOM     14  C   UNL     1       3.585   4.045  19.367  0.00  0.00    +0.000 C 
ENDROOT
BRANCH   5  15
ATOM     15  O   UNL     1       6.066   3.066  16.741  0.00  0.00    +0.000 OA
ATOM     16  H   UNL     1       6.021   2.959  15.776  0.00  0.00    +0.000 HD
ENDBRANCH   5  15
BRANCH   1  17
ATOM     17  O   UNL     1       3.344   6.301  18.505  0.00  0.00    +0.000 OA
BRANCH  17  19
ATOM     18  C   UNL     1       2.432   8.346  17.826  0.00  0.00    +0.000 C 
ATOM     19  C   UNL     1       2.632   7.371  18.944  0.00  0.00    +0.000 C 
ATOM     20  O   UNL     1       2.195   7.524  20.076  0.00  0.00    +0.000 OA
ENDBRANCH  17  19
ENDBRANCH   1  17
BRANCH   5  21
ATOM     21  C   UNL     1       4.711   4.746  15.733  0.00  0.00    +0.000 C 
BRANCH  21  22
ATOM     22  C   UNL     1       4.996   4.078  14.379  0.00  0.00    +0.000 C 
BRANCH  22  23
ATOM     23  C   UNL     1       6.305   4.604  13.796  0.00  0.00    +0.000 A 
ATOM     24  C   UNL     1       6.807   4.420  12.472  0.00  0.00    +0.000 A 
ATOM     25  C   UNL     1       8.015   5.095  12.391  0.00  0.00    +0.000 A 
ATOM     26  O   UNL     1       8.276   5.701  13.577  0.00  0.00    +0.000 OA
ATOM     27  C   UNL     1       7.245   5.408  14.416  0.00  0.00    +0.000 A 
ENDBRANCH  22  23
ENDBRANCH  21  22
ENDBRANCH   5  21
TORSDOF 6
ENDMDL
MODEL 3
REMARK VINA RESULT:      -6.1      6.589     10.869
REMARK  Name = 
REMARK  11 active torsions:
REMARK  status: ('A' for Active; 'I' for Inactive)
REMARK    1  A    between atoms: C_1  and  C_2
REMARK    2  A    between atoms: C_2  and  O_4
REMARK    3  A    between atoms: O_4  and  C_5
REMARK    4  A    between atoms: C_7  and  C_8
REMARK    5  A    between atoms: C_9  and  O_10
REMARK    6  A    between atoms: C_9  and  C_11
REMARK    7  A    between atoms: C_11  and  C_12
REMARK    8  A    between atoms: C_12  and  C_13
REMARK    9  A    between atoms: C_18  and  C_19
REMARK   10  A    between atoms: C_23  and  C_24
REMARK   11  A    between atoms: C_23  and  C_25
REMARK                            x       y       z     vdW  Elec       q    Type
REMARK                         _______ _______ _______ _____ _____    ______ ____
ROOT
ATOM      1  C   UNL     1      -2.323  13.353  21.365  0.00  0.00    +0.000 C 
ATOM      2  C   UNL     1      -3.133  12.656  20.272  0.00  0.00    +0.000 C 
ATOM      3  C   UNL     1      -2.279  11.958  19.200  0.00  0.00    +0.000 C 
ATOM      4  C   UNL     1      -3.203  11.649  18.000  0.00  0.00    +0.000 C 
ATOM      5  C   UNL     1      -0.908  12.647  18.831  0.00  0.00    +0.000 C 
ATOM      6  C   UNL     1      -0.539  14.058  19.630  0.00  0.00    +0.000 C 
ATOM      7  C   UNL     1       0.880  13.918  20.254  0.00  0.00    +0.000 C 
ATOM      8  C   UNL     1      -0.447  15.290  18.676  0.00  0.00    +0.000 C 
ATOM      9  C   UNL     1       0.095  16.542  19.385  0.00  0.00    +0.000 C 
ATOM     10  C   UNL     1      -0.516  16.863  20.764  0.00  0.00    +0.000 C 
ATOM     11  C   UNL     1      -1.068  15.696  21.662  0.00  0.00    +0.000 C 
ATOM     12  C   UNL     1      -0.074  15.257  22.775  0.00  0.00    +0.000 C 
ATOM     13  C   UNL     1      -2.224  16.326  22.495  0.00  0.00    +0.000 C 
ATOM     14  C   UNL     1      -1.596  14.538  20.711  0.00  0.00    +0.000 C 
ENDROOT
BRANCH   5  15
ATOM     15  O   UNL     1      -0.890  12.908  17.416  0.00  0.00    +0.000 OA
ATOM     16  H   UNL     1      -1.712  12.563  17.029  0.00  0.00    +0.000 HD
ENDBRANCH   5  15
BRANCH   1  17
ATOM     17  O   UNL     1      -1.375  12.462  21.950  0.00  0.00    +0.000 OA
BRANCH  17  19
ATOM     18  C   UNL     1      -0.909  10.484  23.110  0.00  0.00    +0.000 C 
ATOM     19  C   UNL     1      -1.824  11.658  22.948  0.00  0.00    +0.000 C 
ATOM     20  O   UNL     1      -2.816  11.857  23.636  0.00  0.00    +0.000 OA
ENDBRANCH  17  19
ENDBRANCH   1  17
BRANCH   5  21
ATOM     21  C   UNL     1       0.267  11.593  19.032  0.00  0.00    +0.000 C 
BRANCH  21  22
ATOM     22  C   UNL     1       0.053  10.203  19.652  0.00  0.00    +0.000 C 
BRANCH  22  23
ATOM     23  C   UNL     1       1.113   9.229  19.143  0.00  0.00    +0.000 A 
ATOM     24  C   UNL     1       1.768   9.237  17.874  0.00  0.00    +0.000 A 
ATOM     25  C   UNL     1       2.668   8.182  17.867  0.00  0.00    +0.000 A 
ATOM     26  O   UNL     1       2.621   7.539  19.062  0.00  0.00    +0.000 OA
ATOM     27  C   UNL     1       1.691   8.173  19.827  0.00  0.00    +0.000 A 
ENDBRANCH  22  23
ENDBRANCH  21  22
ENDBRANCH   5  21
TORSDOF 6
ENDMDL
MODEL 4
REMARK VINA RESULT:      -6.0      9.912     12.279
REMARK  Name = 
REMARK  11 active torsions:
REMARK  status: ('A' for Active; 'I' for Inactive)
REMARK    1  A    between atoms: C_1  and  C_2
REMARK    2  A    between atoms: C_2  and  O_4
REMARK    3  A    between atoms: O_4  and  C_5
REMARK    4  A    between atoms: C_7  and  C_8
REMARK    5  A    between atoms: C_9  and  O_10
REMARK    6  A    between atoms: C_9  and  C_11
REMARK    7  A    between atoms: C_11  and  C_12
REMARK    8  A    between atoms: C_12  and  C_13
REMARK    9  A    between atoms: C_18  and  C_19
REMARK   10  A    between atoms: C_23  and  C_24
REMARK   11  A    between atoms: C_23  and  C_25
REMARK                            x       y       z     vdW  Elec       q    Type
REMARK                         _______ _______ _______ _____ _____    ______ ____
ROOT
ATOM      1  C   UNL     1      10.071  13.935  20.797  0.00  0.00    +0.000 C 
ATOM      2  C   UNL     1      10.109  15.434  21.093  0.00  0.00    +0.000 C 
ATOM      3  C   UNL     1       9.176  16.278  20.210  0.00  0.00    +0.000 C 
ATOM      4  C   UNL     1       9.605  17.755  20.359  0.00  0.00    +0.000 C 
ATOM      5  C   UNL     1       8.973  15.785  18.724  0.00  0.00    +0.000 C 
ATOM      6  C   UNL     1       9.799  14.415  18.270  0.00  0.00    +0.000 C 
ATOM      7  C   UNL     1       8.787  13.407  17.653  0.00  0.00    +0.000 C 
ATOM      8  C   UNL     1      10.848  14.684  17.144  0.00  0.00    +0.000 C 
ATOM      9  C   UNL     1      11.456  13.387  16.587  0.00  0.00    +0.000 C 
ATOM     10  C   UNL     1      11.910  12.344  17.629  0.00  0.00    +0.000 C 
ATOM     11  C   UNL     1      11.189  12.273  19.025  0.00  0.00    +0.000 C 
ATOM     12  C   UNL     1      10.127  11.139  19.107  0.00  0.00    +0.000 C 
ATOM     13  C   UNL     1      12.273  11.771  20.025  0.00  0.00    +0.000 C 
ATOM     14  C   UNL     1      10.676  13.729  19.400  0.00  0.00    +0.000 C 
ENDROOT
BRANCH   5  15
ATOM     15  O   UNL     1       9.337  16.852  17.831  0.00  0.00    +0.000 OA
ATOM     16  H   UNL     1      10.008  16.520  17.211  0.00  0.00    +0.000 HD
ENDBRANCH   5  15
BRANCH   1  17
ATOM     17  O   UNL     1       8.733  13.439  20.827  0.00  0.00    +0.000 OA
BRANCH  17  19
ATOM     18  C   UNL     1       7.108  13.639  22.497  0.00  0.00    +0.000 C 
ATOM     19  C   UNL     1       8.308  12.896  21.996  0.00  0.00    +0.000 C 
ATOM     20  O   UNL     1       8.805  11.933  22.562  0.00  0.00    +0.000 OA
ENDBRANCH  17  19
ENDBRANCH   1  17
BRANCH   5  21
ATOM     21  C   UNL     1       7.417  15.587  18.456  0.00  0.00    +0.000 C 
BRANCH  21  22
ATOM     22  C   UNL     1       6.350  15.728  19.553  0.00  0.00    +0.000 C 
BRANCH  22  23
ATOM     23  C   UNL     1       4.953  15.667  18.941  0.00  0.00    +0.000 A 
ATOM     24  C   UNL     1       4.336  14.560  18.281  0.00  0.00    +0.000 A 
ATOM     25  C   UNL     1       3.060  14.958  17.914  0.00  0.00    +0.000 A 
ATOM     26  O   UNL     1       2.846  16.233  18.326  0.00  0.00    +0.000 OA
ATOM     27  C   UNL     1       3.982  16.654  18.946  0.00  0.00    +0.000 A 
ENDBRANCH  22  23
ENDBRANCH  21  22
ENDBRANCH   5  21
TORSDOF 6
ENDMDL
MODEL 5
REMARK VINA RESULT:      -5.9      5.925     10.276
REMARK  Name = 
REMARK  11 active torsions:
REMARK  status: ('A' for Active; 'I' for Inactive)
REMARK    1  A    between atoms: C_1  and  C_2
REMARK    2  A    between atoms: C_2  and  O_4
REMARK    3  A    between atoms: O_4  and  C_5
REMARK    4  A    between atoms: C_7  and  C_8
REMARK    5  A    between atoms: C_9  and  O_10
REMARK    6  A    between atoms: C_9  and  C_11
REMARK    7  A    between atoms: C_11  and  C_12
REMARK    8  A    between atoms: C_12  and  C_13
REMARK    9  A    between atoms: C_18  and  C_19
REMARK   10  A    between atoms: C_23  and  C_24
REMARK   11  A    between atoms: C_23  and  C_25
REMARK                            x       y       z     vdW  Elec       q    Type
REMARK                         _______ _______ _______ _____ _____    ______ ____
ROOT
ATOM      1  C   UNL     1      -0.243   9.642  19.306  0.00  0.00    +0.000 C 
ATOM      2  C   UNL     1      -1.299   9.989  18.258  0.00  0.00    +0.000 C 
ATOM      3  C   UNL     1      -1.409  11.489  17.942  0.00  0.00    +0.000 C 
ATOM      4  C   UNL     1      -2.739  11.709  17.185  0.00  0.00    +0.000 C 
ATOM      5  C   UNL     1      -1.147  12.484  19.139  0.00  0.00    +0.000 C 
ATOM      6  C   UNL     1      -0.793  11.804  20.614  0.00  0.00    +0.000 C 
ATOM      7  C   UNL     1       0.522  12.439  21.151  0.00  0.00    +0.000 C 
ATOM      8  C   UNL     1      -1.871  12.116  21.701  0.00  0.00    +0.000 C 
ATOM      9  C   UNL     1      -1.437  11.663  23.104  0.00  0.00    +0.000 C 
ATOM     10  C   UNL     1      -0.835  10.247  23.208  0.00  0.00    +0.000 C 
ATOM     11  C   UNL     1      -0.079   9.630  21.975  0.00  0.00    +0.000 C 
ATOM     12  C   UNL     1       1.468   9.740  22.088  0.00  0.00    +0.000 C 
ATOM     13  C   UNL     1      -0.299   8.091  22.083  0.00  0.00    +0.000 C 
ATOM     14  C   UNL     1      -0.720  10.220  20.647  0.00  0.00    +0.000 C 
ENDROOT
BRANCH   5  15
ATOM     15  O   UNL     1      -2.299  13.332  19.294  0.00  0.00    +0.000 OA
ATOM     16  H   UNL     1      -2.009  14.180  19.673  0.00  0.00    +0.000 HD
ENDBRANCH   5  15
BRANCH   1  17
ATOM     17  O   UNL     1       1.026  10.198  18.960  0.00  0.00    +0.000 OA
BRANCH  17  19
ATOM     18  C   UNL     1       2.024   8.083  18.917  0.00  0.00    +0.000 C 
ATOM     19  C   UNL     1       1.864   9.408  18.239  0.00  0.00    +0.000 C 
ATOM     20  O   UNL     1       2.401   9.710  17.184  0.00  0.00    +0.000 OA
ENDBRANCH  17  19
ENDBRANCH   1  17
BRANCH   5  21
ATOM     21  C   UNL     1       0.009  13.496  18.723  0.00  0.00    +0.000 C 
BRANCH  21  22
ATOM     22  C   UNL     1      -0.151  15.024  18.773  0.00  0.00    +0.000 C 
BRANCH  22  23
ATOM     23  C   UNL     1       1.215  15.700  18.682  0.00  0.00    +0.000 A 
ATOM     24  C   UNL     1       2.483  15.080  18.464  0.00  0.00    +0.000 A 
ATOM     25  C   UNL     1       3.434  16.088  18.433  0.00  0.00    +0.000 A 
ATOM     26  O   UNL     1       2.827  17.291  18.598  0.00  0.00    +0.000 OA
ATOM     27  C   UNL     1       1.494  17.054  18.742  0.00  0.00    +0.000 A 
ENDBRANCH  22  23
ENDBRANCH  21  22
ENDBRANCH   5  21
TORSDOF 6
ENDMDL
MODEL 6
REMARK VINA RESULT:      -5.8      9.918     12.900
REMARK  Name = 
REMARK  11 active torsions:
REMARK  status: ('A' for Active; 'I' for Inactive)
REMARK    1  A    between atoms: C_1  and  C_2
REMARK    2  A    between atoms: C_2  and  O_4
REMARK    3  A    between atoms: O_4  and  C_5
REMARK    4  A    between atoms: C_7  and  C_8
REMARK    5  A    between atoms: C_9  and  O_10
REMARK    6  A    between atoms: C_9  and  C_11
REMARK    7  A    between atoms: C_11  and  C_12
REMARK    8  A    between atoms: C_12  and  C_13
REMARK    9  A    between atoms: C_18  and  C_19
REMARK   10  A    between atoms: C_23  and  C_24
REMARK   11  A    between atoms: C_23  and  C_25
REMARK                            x       y       z     vdW  Elec       q    Type
REMARK                         _______ _______ _______ _____ _____    ______ ____
ROOT
ATOM      1  C   UNL     1      10.218  13.834  20.926  0.00  0.00    +0.000 C 
ATOM      2  C   UNL     1      10.299  15.318  21.283  0.00  0.00    +0.000 C 
ATOM      3  C   UNL     1       9.331  16.214  20.491  0.00  0.00    +0.000 C 
ATOM      4  C   UNL     1       9.793  17.676  20.677  0.00  0.00    +0.000 C 
ATOM      5  C   UNL     1       9.034  15.788  19.000  0.00  0.00    +0.000 C 
ATOM      6  C   UNL     1       9.809  14.427  18.442  0.00  0.00    +0.000 C 
ATOM      7  C   UNL     1       8.745  13.462  17.843  0.00  0.00    +0.000 C 
ATOM      8  C   UNL     1      10.795  14.728  17.269  0.00  0.00    +0.000 C 
ATOM      9  C   UNL     1      11.347  13.447  16.623  0.00  0.00    +0.000 C 
ATOM     10  C   UNL     1      11.843  12.354  17.592  0.00  0.00    +0.000 C 
ATOM     11  C   UNL     1      11.202  12.234  19.023  0.00  0.00    +0.000 C 
ATOM     12  C   UNL     1      10.127  11.113  19.120  0.00  0.00    +0.000 C 
ATOM     13  C   UNL     1      12.333  11.673  19.936  0.00  0.00    +0.000 C 
ATOM     14  C   UNL     1      10.737  13.680  19.488  0.00  0.00    +0.000 C 
ENDROOT
BRANCH   5  15
ATOM     15  O   UNL     1       9.364  16.887  18.133  0.00  0.00    +0.000 OA
ATOM     16  H   UNL     1       8.560  17.412  17.981  0.00  0.00    +0.000 HD
ENDBRANCH   5  15
BRANCH   1  17
ATOM     17  O   UNL     1       8.876  13.358  21.013  0.00  0.00    +0.000 OA
BRANCH  17  19
ATOM     18  C   UNL     1       8.081  13.559  23.204  0.00  0.00    +0.000 C 
ATOM     19  C   UNL     1       8.552  12.640  22.120  0.00  0.00    +0.000 C 
ATOM     20  O   UNL     1       8.611  11.424  22.227  0.00  0.00    +0.000 OA
ENDBRANCH  17  19
ENDBRANCH   1  17
BRANCH   5  21
ATOM     21  C   UNL     1       7.462  15.625  18.816  0.00  0.00    +0.000 C 
BRANCH  21  22
ATOM     22  C   UNL     1       6.501  15.358  19.985  0.00  0.00    +0.000 C 
BRANCH  22  23
ATOM     23  C   UNL     1       5.678  16.607  20.289  0.00  0.00    +0.000 A 
ATOM     24  C   UNL     1       6.041  17.710  21.122  0.00  0.00    +0.000 A 
ATOM     25  C   UNL     1       4.996  18.620  21.080  0.00  0.00    +0.000 A 
ATOM     26  O   UNL     1       4.023  18.155  20.256  0.00  0.00    +0.000 OA
ATOM     27  C   UNL     1       4.438  16.949  19.779  0.00  0.00    +0.000 A 
ENDBRANCH  22  23
ENDBRANCH  21  22
ENDBRANCH   5  21
TORSDOF 6
ENDMDL
MODEL 7
REMARK VINA RESULT:      -5.8      8.228     11.188
REMARK  Name = 
REMARK  11 active torsions:
REMARK  status: ('A' for Active; 'I' for Inactive)
REMARK    1  A    between atoms: C_1  and  C_2
REMARK    2  A    between atoms: C_2  and  O_4
REMARK    3  A    between atoms: O_4  and  C_5
REMARK    4  A    between atoms: C_7  and  C_8
REMARK    5  A    between atoms: C_9  and  O_10
REMARK    6  A    between atoms: C_9  and  C_11
REMARK    7  A    between atoms: C_11  and  C_12
REMARK    8  A    between atoms: C_12  and  C_13
REMARK    9  A    between atoms: C_18  and  C_19
REMARK   10  A    between atoms: C_23  and  C_24
REMARK   11  A    between atoms: C_23  and  C_25
REMARK                            x       y       z     vdW  Elec       q    Type
REMARK                         _______ _______ _______ _____ _____    ______ ____
ROOT
ATOM      1  C   UNL     1       0.363  12.599  21.763  0.00  0.00    +0.000 C 
ATOM      2  C   UNL     1      -0.952  12.523  22.539  0.00  0.00    +0.000 C 
ATOM      3  C   UNL     1      -2.195  12.309  21.661  0.00  0.00    +0.000 C 
ATOM      4  C   UNL     1      -3.435  12.636  22.523  0.00  0.00    +0.000 C 
ATOM      5  C   UNL     1      -2.175  12.982  20.232  0.00  0.00    +0.000 C 
ATOM      6  C   UNL     1      -0.819  13.858  19.837  0.00  0.00    +0.000 C 
ATOM      7  C   UNL     1      -0.279  13.347  18.470  0.00  0.00    +0.000 C 
ATOM      8  C   UNL     1      -1.119  15.375  19.617  0.00  0.00    +0.000 C 
ATOM      9  C   UNL     1       0.091  16.136  19.051  0.00  0.00    +0.000 C 
ATOM     10  C   UNL     1       1.449  15.860  19.729  0.00  0.00    +0.000 C 
ATOM     11  C   UNL     1       1.713  14.462  20.400  0.00  0.00    +0.000 C 
ATOM     12  C   UNL     1       2.544  13.500  19.503  0.00  0.00    +0.000 C 
ATOM     13  C   UNL     1       2.703  14.746  21.569  0.00  0.00    +0.000 C 
ATOM     14  C   UNL     1       0.329  13.890  20.931  0.00  0.00    +0.000 C 
ENDROOT
BRANCH   5  15
ATOM     15  O   UNL     1      -3.322  13.840  20.111  0.00  0.00    +0.000 OA
ATOM     16  H   UNL     1      -3.059  14.640  19.625  0.00  0.00    +0.000 HD
ENDBRANCH   5  15
BRANCH   1  17
ATOM     17  O   UNL     1       0.517  11.470  20.903  0.00  0.00    +0.000 OA
BRANCH  17  19
ATOM     18  C   UNL     1      -0.193   9.242  20.844  0.00  0.00    +0.000 C 
ATOM     19  C   UNL     1       0.682  10.263  21.503  0.00  0.00    +0.000 C 
ATOM     20  O   UNL     1       1.440  10.021  22.431  0.00  0.00    +0.000 OA
ENDBRANCH  17  19
ENDBRANCH   1  17
BRANCH   5  21
ATOM     21  C   UNL     1      -2.429  11.860  19.133  0.00  0.00    +0.000 C 
BRANCH  21  22
ATOM     22  C   UNL     1      -3.774  11.678  18.411  0.00  0.00    +0.000 C 
BRANCH  22  23
ATOM     23  C   UNL     1      -3.557  11.020  17.051  0.00  0.00    +0.000 A 
ATOM     24  C   UNL     1      -2.560  10.062  16.694  0.00  0.00    +0.000 A 
ATOM     25  C   UNL     1      -2.764   9.730  15.363  0.00  0.00    +0.000 A 
ATOM     26  O   UNL     1      -3.838  10.410  14.886  0.00  0.00    +0.000 OA
ATOM     27  C   UNL     1      -4.315  11.179  15.903  0.00  0.00    +0.000 A 
ENDBRANCH  22  23
ENDBRANCH  21  22
ENDBRANCH   5  21
TORSDOF 6
ENDMDL
MODEL 8
REMARK VINA RESULT:      -5.7      5.532      9.836
REMARK  Name = 
REMARK  11 active torsions:
REMARK  status: ('A' for Active; 'I' for Inactive)
REMARK    1  A    between atoms: C_1  and  C_2
REMARK    2  A    between atoms: C_2  and  O_4
REMARK    3  A    between atoms: O_4  and  C_5
REMARK    4  A    between atoms: C_7  and  C_8
REMARK    5  A    between atoms: C_9  and  O_10
REMARK    6  A    between atoms: C_9  and  C_11
REMARK    7  A    between atoms: C_11  and  C_12
REMARK    8  A    between atoms: C_12  and  C_13
REMARK    9  A    between atoms: C_18  and  C_19
REMARK   10  A    between atoms: C_23  and  C_24
REMARK   11  A    between atoms: C_23  and  C_25
REMARK                            x       y       z     vdW  Elec       q    Type
REMARK                         _______ _______ _______ _____ _____    ______ ____
ROOT
ATOM      1  C   UNL     1      -1.386  13.010  20.658  0.00  0.00    +0.000 C 
ATOM      2  C   UNL     1      -1.966  11.975  19.695  0.00  0.00    +0.000 C 
ATOM      3  C   UNL     1      -0.992  10.847  19.316  0.00  0.00    +0.000 C 
ATOM      4  C   UNL     1      -1.574  10.127  18.078  0.00  0.00    +0.000 C 
ATOM      5  C   UNL     1       0.534  11.237  19.209  0.00  0.00    +0.000 C 
ATOM      6  C   UNL     1       0.923  12.826  19.505  0.00  0.00    +0.000 C 
ATOM      7  C   UNL     1       2.047  12.870  20.580  0.00  0.00    +0.000 C 
ATOM      8  C   UNL     1       1.521  13.548  18.256  0.00  0.00    +0.000 C 
ATOM      9  C   UNL     1       2.068  14.945  18.592  0.00  0.00    +0.000 C 
ATOM     10  C   UNL     1       1.160  15.843  19.457  0.00  0.00    +0.000 C 
ATOM     11  C   UNL     1       0.159  15.185  20.476  0.00  0.00    +0.000 C 
ATOM     12  C   UNL     1       0.688  15.185  21.940  0.00  0.00    +0.000 C 
ATOM     13  C   UNL     1      -1.043  16.172  20.570  0.00  0.00    +0.000 C 
ATOM     14  C   UNL     1      -0.287  13.773  19.902  0.00  0.00    +0.000 C 
ENDROOT
BRANCH   5  15
ATOM     15  O   UNL     1       1.007  10.890  17.896  0.00  0.00    +0.000 OA
ATOM     16  H   UNL     1       1.941  10.628  17.965  0.00  0.00    +0.000 HD
ENDBRANCH   5  15
BRANCH   1  17
ATOM     17  O   UNL     1      -0.836  12.383  21.816  0.00  0.00    +0.000 OA
BRANCH  17  19
ATOM     18  C   UNL     1      -1.143  10.526  23.204  0.00  0.00    +0.000 C 
ATOM     19  C   UNL     1      -1.715  11.804  22.674  0.00  0.00    +0.000 C 
ATOM     20  O   UNL     1      -2.807  12.253  22.992  0.00  0.00    +0.000 OA
ENDBRANCH  17  19
ENDBRANCH   1  17
BRANCH   5  21
ATOM     21  C   UNL     1       1.374  10.290  20.173  0.00  0.00    +0.000 C 
BRANCH  21  22
ATOM     22  C   UNL     1       0.860   8.932  20.677  0.00  0.00    +0.000 C 
BRANCH  22  23
ATOM     23  C   UNL     1       1.670   7.797  20.058  0.00  0.00    +0.000 A 
ATOM     24  C   UNL     1       1.875   6.484  20.581  0.00  0.00    +0.000 A 
ATOM     25  C   UNL     1       2.655   5.793  19.667  0.00  0.00    +0.000 A 
ATOM     26  O   UNL     1       2.925   6.593  18.605  0.00  0.00    +0.000 OA
ATOM     27  C   UNL     1       2.328   7.793  18.840  0.00  0.00    +0.000 A 
ENDBRANCH  22  23
ENDBRANCH  21  22
ENDBRANCH   5  21
TORSDOF 6
ENDMDL
MODEL 9
REMARK VINA RESULT:      -5.7      6.160     10.133
REMARK  Name = 
REMARK  11 active torsions:
REMARK  status: ('A' for Active; 'I' for Inactive)
REMARK    1  A    between atoms: C_1  and  C_2
REMARK    2  A    between atoms: C_2  and  O_4
REMARK    3  A    between atoms: O_4  and  C_5
REMARK    4  A    between atoms: C_7  and  C_8
REMARK    5  A    between atoms: C_9  and  O_10
REMARK    6  A    between atoms: C_9  and  C_11
REMARK    7  A    between atoms: C_11  and  C_12
REMARK    8  A    between atoms: C_12  and  C_13
REMARK    9  A    between atoms: C_18  and  C_19
REMARK   10  A    between atoms: C_23  and  C_24
REMARK   11  A    between atoms: C_23  and  C_25
REMARK                            x       y       z     vdW  Elec       q    Type
REMARK                         _______ _______ _______ _____ _____    ______ ____
ROOT
ATOM      1  C   UNL     1      -1.876  13.116  19.287  0.00  0.00    +0.000 C 
ATOM      2  C   UNL     1      -0.574  13.354  18.522  0.00  0.00    +0.000 C 
ATOM      3  C   UNL     1       0.623  12.542  19.042  0.00  0.00    +0.000 C 
ATOM      4  C   UNL     1       1.903  13.165  18.441  0.00  0.00    +0.000 C 
ATOM      5  C   UNL     1       0.674  12.274  20.597  0.00  0.00    +0.000 C 
ATOM      6  C   UNL     1      -0.564  12.908  21.507  0.00  0.00    +0.000 C 
ATOM      7  C   UNL     1      -1.179  11.770  22.372  0.00  0.00    +0.000 C 
ATOM      8  C   UNL     1      -0.077  13.983  22.530  0.00  0.00    +0.000 C 
ATOM      9  C   UNL     1      -1.186  14.411  23.504  0.00  0.00    +0.000 C 
ATOM     10  C   UNL     1      -2.561  14.722  22.878  0.00  0.00    +0.000 C 
ATOM     11  C   UNL     1      -2.993  13.999  21.551  0.00  0.00    +0.000 C 
ATOM     12  C   UNL     1      -3.948  12.795  21.793  0.00  0.00    +0.000 C 
ATOM     13  C   UNL     1      -3.928  15.006  20.816  0.00  0.00    +0.000 C 
ATOM     14  C   UNL     1      -1.688  13.686  20.701  0.00  0.00    +0.000 C 
ENDROOT
BRANCH   5  15
ATOM     15  O   UNL     1       1.919  12.777  21.111  0.00  0.00    +0.000 OA
ATOM     16  H   UNL     1       2.283  12.123  21.732  0.00  0.00    +0.000 HD
ENDBRANCH   5  15
BRANCH   1  17
ATOM     17  O   UNL     1      -2.181  11.723  19.360  0.00  0.00    +0.000 OA
BRANCH  17  19
ATOM     18  C   UNL     1      -2.325  10.408  17.431  0.00  0.00    +0.000 C 
ATOM     19  C   UNL     1      -3.055  11.239  18.440  0.00  0.00    +0.000 C 
ATOM     20  O   UNL     1      -4.263  11.427  18.431  0.00  0.00    +0.000 OA
ENDBRANCH  17  19
ENDBRANCH   1  17
BRANCH   5  21
ATOM     21  C   UNL     1       0.773  10.705  20.845  0.00  0.00    +0.000 C 
BRANCH  21  22
ATOM     22  C   UNL     1       0.173   9.662  19.888  0.00  0.00    +0.000 C 
BRANCH  22  23
ATOM     23  C   UNL     1       1.285   8.846  19.233  0.00  0.00    +0.000 A 
ATOM     24  C   UNL     1       1.875   9.049  17.948  0.00  0.00    +0.000 A 
ATOM     25  C   UNL     1       2.858   8.084  17.789  0.00  0.00    +0.000 A 
ATOM     26  O   UNL     1       2.922   7.314  18.905  0.00  0.00    +0.000 OA
ATOM     27  C   UNL     1       1.980   7.777  19.771  0.00  0.00    +0.000 A 
ENDBRANCH  22  23
ENDBRANCH  21  22
ENDBRANCH   5  21
TORSDOF 6
ENDMDL
