MODEL 1
REMARK VINA RESULT:      -8.2      0.000      0.000
REMARK  Name = 
REMARK  9 active torsions:
REMARK  status: ('A' for Active; 'I' for Inactive)
REMARK    1  A    between atoms: C_2  and  C_19
REMARK    2  A    between atoms: N_3  and  C_4
REMARK    3  A    between atoms: C_4  and  C_5
REMARK    4  A    between atoms: C_5  and  N_6
REMARK    5  A    between atoms: C_5  and  C_16
REMARK    6  A    between atoms: N_6  and  S_7
REMARK    7  A    between atoms: S_7  and  C_10
REMARK    8  A    between atoms: C_16  and  O_18
REMARK    9  A    between atoms: C_22  and  N_23
REMARK                            x       y       z     vdW  Elec       q    Type
REMARK                         _______ _______ _______ _____ _____    ______ ____
ROOT
ATOM      1  O   UNL     1       5.216   7.102  17.392  0.00  0.00    +0.000 OA
ATOM      2  C   UNL     1       4.151   6.538  17.607  0.00  0.00    +0.000 C 
ATOM      3  N   UNL     1       3.865   5.259  17.139  0.00  0.00    +0.000 N 
ATOM      4  H   UNL     1       2.880   5.089  16.952  0.00  0.00    +0.000 HD
ENDROOT
BRANCH   2   5
ATOM      5  C   UNL     1       3.092   7.222  18.394  0.00  0.00    +0.000 A 
ATOM      6  C   UNL     1       2.548   8.416  17.918  0.00  0.00    +0.000 A 
ATOM      7  C   UNL     1       1.581   9.101  18.671  0.00  0.00    +0.000 A 
ATOM      8  C   UNL     1       1.137   8.624  19.915  0.00  0.00    +0.000 A 
ATOM      9  C   UNL     1       1.721   7.435  20.377  0.00  0.00    +0.000 A 
ATOM     10  C   UNL     1       2.687   6.738  19.638  0.00  0.00    +0.000 A 
BRANCH   8  11
ATOM     11  N   UNL     1       0.164   9.287  20.632  0.00  0.00    +0.000 N 
ATOM     12  C   UNL     1      -0.425   8.740  21.864  0.00  0.00    +0.000 C 
ATOM     13  C   UNL     1      -0.105   9.646  23.072  0.00  0.00    +0.000 C 
ATOM     14  N   UNL     1      -0.524  11.045  22.867  0.00  0.00    +0.000 NA
ATOM     15  C   UNL     1       0.101  11.564  21.633  0.00  0.00    +0.000 C 
ATOM     16  C   UNL     1      -0.175  10.699  20.374  0.00  0.00    +0.000 C 
ATOM     17  H   UNL     1      -0.212  11.606  23.660  0.00  0.00    +0.000 HD
ENDBRANCH   8  11
ENDBRANCH   2   5
BRANCH   3  18
ATOM     18  C   UNL     1       4.866   4.537  16.349  0.00  0.00    +0.000 C 
BRANCH  18  19
ATOM     19  C   UNL     1       5.969   3.852  17.206  0.00  0.00    +0.000 C 
BRANCH  19  20
ATOM     20  N   UNL     1       5.451   3.702  18.615  0.00  0.00    +0.000 NA
ATOM     21  H   UNL     1       6.200   3.753  19.309  0.00  0.00    +0.000 HD
BRANCH  20  22
ATOM     22  S   UNL     1       4.560   2.285  19.001  0.00  0.00    +0.000 S 
ATOM     23  O   UNL     1       4.426   1.536  17.771  0.00  0.00    +0.000 OA
ATOM     24  O   UNL     1       5.217   1.694  20.143  0.00  0.00    +0.000 OA
BRANCH  22  25
ATOM     25  C   UNL     1       2.985   2.900  19.527  0.00  0.00    +0.000 A 
ATOM     26  C   UNL     1       2.740   3.185  20.872  0.00  0.00    +0.000 A 
ATOM     27  C   UNL     1       1.426   3.420  21.284  0.00  0.00    +0.000 A 
ATOM     28  C   UNL     1       0.381   3.370  20.360  0.00  0.00    +0.000 A 
ATOM     29  C   UNL     1       0.645   3.144  19.009  0.00  0.00    +0.000 A 
ATOM     30  C   UNL     1       1.953   2.931  18.584  0.00  0.00    +0.000 A 
ENDBRANCH  22  25
ENDBRANCH  20  22
ENDBRANCH  19  20
BRANCH  19  31
ATOM     31  C   UNL     1       7.349   4.503  17.106  0.00  0.00    +0.000 C 
ATOM     32  O   UNL     1       8.323   4.110  17.737  0.00  0.00    +0.000 OA
BRANCH  31  33
ATOM     33  O   UNL     1       7.482   5.554  16.267  0.00  0.00    +0.000 OA
ATOM     34  H   UNL     1       6.890   6.309  16.430  0.00  0.00    +0.000 HD
ENDBRANCH  31  33
ENDBRANCH  19  31
ENDBRANCH  18  19
ENDBRANCH   3  18
TORSDOF 9
ENDMDL
MODEL 2
REMARK VINA RESULT:      -8.1      2.679      5.130
REMARK  Name = 
REMARK  9 active torsions:
REMARK  status: ('A' for Active; 'I' for Inactive)
REMARK    1  A    between atoms: C_2  and  C_19
REMARK    2  A    between atoms: N_3  and  C_4
REMARK    3  A    between atoms: C_4  and  C_5
REMARK    4  A    between atoms: C_5  and  N_6
REMARK    5  A    between atoms: C_5  and  C_16
REMARK    6  A    between atoms: N_6  and  S_7
REMARK    7  A    between atoms: S_7  and  C_10
REMARK    8  A    between atoms: C_16  and  O_18
REMARK    9  A    between atoms: C_22  and  N_23
REMARK                            x       y       z     vdW  Elec       q    Type
REMARK                         _______ _______ _______ _____ _____    ______ ____
ROOT
ATOM      1  O   UNL     1       2.321   5.020  20.038  0.00  0.00    +0.000 OA
ATOM      2  C   UNL     1       2.905   6.016  19.631  0.00  0.00    +0.000 C 
ATOM      3  N   UNL     1       4.220   5.989  19.177  0.00  0.00    +0.000 N 
ATOM      4  H   UNL     1       4.732   6.856  19.318  0.00  0.00    +0.000 HD
ENDROOT
BRANCH   2   5
ATOM      5  C   UNL     1       2.210   7.330  19.610  0.00  0.00    +0.000 A 
ATOM      6  C   UNL     1       1.512   7.753  20.742  0.00  0.00    +0.000 A 
ATOM      7  C   UNL     1       0.810   8.969  20.725  0.00  0.00    +0.000 A 
ATOM      8  C   UNL     1       0.776   9.788  19.585  0.00  0.00    +0.000 A 
ATOM      9  C   UNL     1       1.467   9.323  18.455  0.00  0.00    +0.000 A 
ATOM     10  C   UNL     1       2.173   8.112  18.456  0.00  0.00    +0.000 A 
BRANCH   8  11
ATOM     11  N   UNL     1       0.110  10.995  19.587  0.00  0.00    +0.000 N 
ATOM     12  C   UNL     1       0.810  12.288  19.655  0.00  0.00    +0.000 C 
ATOM     13  C   UNL     1       0.563  13.111  18.373  0.00  0.00    +0.000 C 
ATOM     14  N   UNL     1      -0.870  13.305  18.083  0.00  0.00    +0.000 NA
ATOM     15  C   UNL     1      -1.533  11.988  18.005  0.00  0.00    +0.000 C 
ATOM     16  C   UNL     1      -1.324  11.100  19.261  0.00  0.00    +0.000 C 
ATOM     17  H   UNL     1      -0.967  13.781  17.186  0.00  0.00    +0.000 HD
ENDBRANCH   8  11
ENDBRANCH   2   5
BRANCH   3  18
ATOM     18  C   UNL     1       4.961   4.725  19.181  0.00  0.00    +0.000 C 
BRANCH  18  19
ATOM     19  C   UNL     1       4.931   3.973  17.820  0.00  0.00    +0.000 C 
BRANCH  19  20
ATOM     20  N   UNL     1       5.155   4.978  16.717  0.00  0.00    +0.000 NA
ATOM     21  H   UNL     1       4.692   4.705  15.847  0.00  0.00    +0.000 HD
BRANCH  20  22
ATOM     22  S   UNL     1       6.773   5.352  16.282  0.00  0.00    +0.000 S 
ATOM     23  O   UNL     1       6.882   6.795  16.304  0.00  0.00    +0.000 OA
ATOM     24  O   UNL     1       7.616   4.547  17.135  0.00  0.00    +0.000 OA
BRANCH  22  25
ATOM     25  C   UNL     1       6.923   4.745  14.625  0.00  0.00    +0.000 A 
ATOM     26  C   UNL     1       7.792   5.351  13.716  0.00  0.00    +0.000 A 
ATOM     27  C   UNL     1       7.696   5.014  12.363  0.00  0.00    +0.000 A 
ATOM     28  C   UNL     1       6.747   4.084  11.937  0.00  0.00    +0.000 A 
ATOM     29  C   UNL     1       5.925   3.440  12.863  0.00  0.00    +0.000 A 
ATOM     30  C   UNL     1       6.027   3.752  14.215  0.00  0.00    +0.000 A 
ENDBRANCH  22  25
ENDBRANCH  20  22
ENDBRANCH  19  20
BRANCH  19  31
ATOM     31  C   UNL     1       3.711   3.073  17.617  0.00  0.00    +0.000 C 
ATOM     32  O   UNL     1       3.725   1.867  17.832  0.00  0.00    +0.000 OA
BRANCH  31  33
ATOM     33  O   UNL     1       2.569   3.658  17.193  0.00  0.00    +0.000 OA
ATOM     34  H   UNL     1       2.166   3.277  16.394  0.00  0.00    +0.000 HD
ENDBRANCH  31  33
ENDBRANCH  19  31
ENDBRANCH  18  19
ENDBRANCH   3  18
TORSDOF 9
ENDMDL
MODEL 3
REMARK VINA RESULT:      -7.9      1.778      2.302
REMARK  Name = 
REMARK  9 active torsions:
REMARK  status: ('A' for Active; 'I' for Inactive)
REMARK    1  A    between atoms: C_2  and  C_19
REMARK    2  A    between atoms: N_3  and  C_4
REMARK    3  A    between atoms: C_4  and  C_5
REMARK    4  A    between atoms: C_5  and  N_6
REMARK    5  A    between atoms: C_5  and  C_16
REMARK    6  A    between atoms: N_6  and  S_7
REMARK    7  A    between atoms: S_7  and  C_10
REMARK    8  A    between atoms: C_16  and  O_18
REMARK    9  A    between atoms: C_22  and  N_23
REMARK                            x       y       z     vdW  Elec       q    Type
REMARK                         _______ _______ _______ _____ _____    ______ ____
ROOT
ATOM      1  O   UNL     1       3.903   5.833  19.613  0.00  0.00    +0.000 OA
ATOM      2  C   UNL     1       3.677   6.691  18.770  0.00  0.00    +0.000 C 
ATOM      3  N   UNL     1       4.450   6.847  17.624  0.00  0.00    +0.000 N 
ATOM      4  H   UNL     1       4.494   7.799  17.271  0.00  0.00    +0.000 HD
ENDROOT
BRANCH   2   5
ATOM      5  C   UNL     1       2.537   7.629  18.949  0.00  0.00    +0.000 A 
ATOM      6  C   UNL     1       2.149   8.445  17.886  0.00  0.00    +0.000 A 
ATOM      7  C   UNL     1       1.106   9.371  18.051  0.00  0.00    +0.000 A 
ATOM      8  C   UNL     1       0.432   9.516  19.274  0.00  0.00    +0.000 A 
ATOM      9  C   UNL     1       0.862   8.698  20.331  0.00  0.00    +0.000 A 
ATOM     10  C   UNL     1       1.901   7.768  20.182  0.00  0.00    +0.000 A 
BRANCH   8  11
ATOM     11  N   UNL     1      -0.612  10.405  19.417  0.00  0.00    +0.000 N 
ATOM     12  C   UNL     1      -0.576  11.525  20.371  0.00  0.00    +0.000 C 
ATOM     13  C   UNL     1      -0.632  12.876  19.629  0.00  0.00    +0.000 C 
ATOM     14  N   UNL     1      -1.797  12.990  18.731  0.00  0.00    +0.000 NA
ATOM     15  C   UNL     1      -1.789  11.861  17.780  0.00  0.00    +0.000 C 
ATOM     16  C   UNL     1      -1.728  10.465  18.455  0.00  0.00    +0.000 C 
ATOM     17  H   UNL     1      -1.734  13.865  18.212  0.00  0.00    +0.000 HD
ENDBRANCH   8  11
ENDBRANCH   2   5
BRANCH   3  18
ATOM     18  C   UNL     1       5.592   5.958  17.395  0.00  0.00    +0.000 C 
BRANCH  18  19
ATOM     19  C   UNL     1       5.221   4.626  16.683  0.00  0.00    +0.000 C 
BRANCH  19  20
ATOM     20  N   UNL     1       4.962   3.579  17.738  0.00  0.00    +0.000 NA
ATOM     21  H   UNL     1       5.698   2.870  17.766  0.00  0.00    +0.000 HD
BRANCH  20  22
ATOM     22  S   UNL     1       3.484   2.708  17.666  0.00  0.00    +0.000 S 
ATOM     23  O   UNL     1       2.699   3.317  16.615  0.00  0.00    +0.000 OA
ATOM     24  O   UNL     1       3.843   1.311  17.587  0.00  0.00    +0.000 OA
BRANCH  22  25
ATOM     25  C   UNL     1       2.738   2.998  19.245  0.00  0.00    +0.000 A 
ATOM     26  C   UNL     1       3.353   2.560  20.419  0.00  0.00    +0.000 A 
ATOM     27  C   UNL     1       2.624   2.577  21.611  0.00  0.00    +0.000 A 
ATOM     28  C   UNL     1       1.303   3.029  21.619  0.00  0.00    +0.000 A 
ATOM     29  C   UNL     1       0.719   3.520  20.451  0.00  0.00    +0.000 A 
ATOM     30  C   UNL     1       1.444   3.529  19.264  0.00  0.00    +0.000 A 
ENDBRANCH  22  25
ENDBRANCH  20  22
ENDBRANCH  19  20
BRANCH  19  31
ATOM     31  C   UNL     1       6.200   4.194  15.590  0.00  0.00    +0.000 C 
ATOM     32  O   UNL     1       5.880   3.478  14.649  0.00  0.00    +0.000 OA
BRANCH  31  33
ATOM     33  O   UNL     1       7.471   4.644  15.680  0.00  0.00    +0.000 OA
ATOM     34  H   UNL     1       7.647   5.512  15.276  0.00  0.00    +0.000 HD
ENDBRANCH  31  33
ENDBRANCH  19  31
ENDBRANCH  18  19
ENDBRANCH   3  18
TORSDOF 9
ENDMDL
MODEL 4
REMARK VINA RESULT:      -7.8      1.127      1.550
REMARK  Name = 
REMARK  9 active torsions:
REMARK  status: ('A' for Active; 'I' for Inactive)
REMARK    1  A    between atoms: C_2  and  C_19
REMARK    2  A    between atoms: N_3  and  C_4
REMARK    3  A    between atoms: C_4  and  C_5
REMARK    4  A    between atoms: C_5  and  N_6
REMARK    5  A    between atoms: C_5  and  C_16
REMARK    6  A    between atoms: N_6  and  S_7
REMARK    7  A    between atoms: S_7  and  C_10
REMARK    8  A    between atoms: C_16  and  O_18
REMARK    9  A    between atoms: C_22  and  N_23
REMARK                            x       y       z     vdW  Elec       q    Type
REMARK                         _______ _______ _______ _____ _____    ______ ____
ROOT
ATOM      1  O   UNL     1       4.635   6.885  16.642  0.00  0.00    +0.000 OA
ATOM      2  C   UNL     1       3.809   6.440  17.427  0.00  0.00    +0.000 C 
ATOM      3  N   UNL     1       3.670   5.080  17.690  0.00  0.00    +0.000 N 
ATOM      4  H   UNL     1       2.728   4.794  17.943  0.00  0.00    +0.000 HD
ENDROOT
BRANCH   2   5
ATOM      5  C   UNL     1       2.892   7.364  18.147  0.00  0.00    +0.000 A 
ATOM      6  C   UNL     1       2.493   8.550  17.530  0.00  0.00    +0.000 A 
ATOM      7  C   UNL     1       1.666   9.457  18.212  0.00  0.00    +0.000 A 
ATOM      8  C   UNL     1       1.224   9.214  19.523  0.00  0.00    +0.000 A 
ATOM      9  C   UNL     1       1.663   8.024  20.124  0.00  0.00    +0.000 A 
ATOM     10  C   UNL     1       2.488   7.107  19.457  0.00  0.00    +0.000 A 
BRANCH   8  11
ATOM     11  N   UNL     1       0.387  10.095  20.173  0.00  0.00    +0.000 N 
ATOM     12  C   UNL     1       0.863  11.030  21.204  0.00  0.00    +0.000 C 
ATOM     13  C   UNL     1       0.668  12.491  20.748  0.00  0.00    +0.000 C 
ATOM     14  N   UNL     1      -0.726  12.794  20.371  0.00  0.00    +0.000 NA
ATOM     15  C   UNL     1      -1.161  11.847  19.324  0.00  0.00    +0.000 C 
ATOM     16  C   UNL     1      -0.990  10.354  19.711  0.00  0.00    +0.000 C 
ATOM     17  H   UNL     1      -0.773  13.743  20.003  0.00  0.00    +0.000 HD
ENDBRANCH   8  11
ENDBRANCH   2   5
BRANCH   3  18
ATOM     18  C   UNL     1       4.539   4.119  17.006  0.00  0.00    +0.000 C 
BRANCH  18  19
ATOM     19  C   UNL     1       5.764   3.664  17.850  0.00  0.00    +0.000 C 
BRANCH  19  20
ATOM     20  N   UNL     1       5.332   3.554  19.292  0.00  0.00    +0.000 NA
ATOM     21  H   UNL     1       6.111   3.687  19.939  0.00  0.00    +0.000 HD
BRANCH  20  22
ATOM     22  S   UNL     1       4.555   2.106  19.794  0.00  0.00    +0.000 S 
ATOM     23  O   UNL     1       4.737   1.150  18.723  0.00  0.00    +0.000 OA
ATOM     24  O   UNL     1       5.057   1.819  21.117  0.00  0.00    +0.000 OA
BRANCH  22  25
ATOM     25  C   UNL     1       2.850   2.562  19.935  0.00  0.00    +0.000 A 
ATOM     26  C   UNL     1       1.897   2.054  19.050  0.00  0.00    +0.000 A 
ATOM     27  C   UNL     1       0.623   2.626  19.029  0.00  0.00    +0.000 A 
ATOM     28  C   UNL     1       0.314   3.686  19.884  0.00  0.00    +0.000 A 
ATOM     29  C   UNL     1       1.256   4.145  20.805  0.00  0.00    +0.000 A 
ATOM     30  C   UNL     1       2.521   3.568  20.850  0.00  0.00    +0.000 A 
ENDBRANCH  22  25
ENDBRANCH  20  22
ENDBRANCH  19  20
BRANCH  19  31
ATOM     31  C   UNL     1       7.030   4.492  17.631  0.00  0.00    +0.000 C 
ATOM     32  O   UNL     1       7.920   4.590  18.468  0.00  0.00    +0.000 OA
BRANCH  31  33
ATOM     33  O   UNL     1       7.160   5.130  16.447  0.00  0.00    +0.000 OA
ATOM     34  H   UNL     1       7.471   6.051  16.489  0.00  0.00    +0.000 HD
ENDBRANCH  31  33
ENDBRANCH  19  31
ENDBRANCH  18  19
ENDBRANCH   3  18
TORSDOF 9
ENDMDL
MODEL 5
REMARK VINA RESULT:      -7.8      2.677      5.071
REMARK  Name = 
REMARK  9 active torsions:
REMARK  status: ('A' for Active; 'I' for Inactive)
REMARK    1  A    between atoms: C_2  and  C_19
REMARK    2  A    between atoms: N_3  and  C_4
REMARK    3  A    between atoms: C_4  and  C_5
REMARK    4  A    between atoms: C_5  and  N_6
REMARK    5  A    between atoms: C_5  and  C_16
REMARK    6  A    between atoms: N_6  and  S_7
REMARK    7  A    between atoms: S_7  and  C_10
REMARK    8  A    between atoms: C_16  and  O_18
REMARK    9  A    between atoms: C_22  and  N_23
REMARK                            x       y       z     vdW  Elec       q    Type
REMARK                         _______ _______ _______ _____ _____    ______ ____
ROOT
ATOM      1  O   UNL     1       2.274   5.004  19.750  0.00  0.00    +0.000 OA
ATOM      2  C   UNL     1       2.876   6.061  19.616  0.00  0.00    +0.000 C 
ATOM      3  N   UNL     1       4.257   6.129  19.452  0.00  0.00    +0.000 N 
ATOM      4  H   UNL     1       4.683   6.977  19.817  0.00  0.00    +0.000 HD
ENDROOT
BRANCH   2   5
ATOM      5  C   UNL     1       2.134   7.349  19.630  0.00  0.00    +0.000 A 
ATOM      6  C   UNL     1       2.078   8.120  18.468  0.00  0.00    +0.000 A 
ATOM      7  C   UNL     1       1.422   9.361  18.475  0.00  0.00    +0.000 A 
ATOM      8  C   UNL     1       0.815   9.871  19.634  0.00  0.00    +0.000 A 
ATOM      9  C   UNL     1       0.911   9.084  20.793  0.00  0.00    +0.000 A 
ATOM     10  C   UNL     1       1.561   7.842  20.802  0.00  0.00    +0.000 A 
BRANCH   8  11
ATOM     11  N   UNL     1       0.146  11.076  19.624  0.00  0.00    +0.000 N 
ATOM     12  C   UNL     1       0.842  12.372  19.664  0.00  0.00    +0.000 C 
ATOM     13  C   UNL     1       0.580  13.173  18.371  0.00  0.00    +0.000 C 
ATOM     14  N   UNL     1      -0.857  13.359  18.093  0.00  0.00    +0.000 NA
ATOM     15  C   UNL     1      -1.516  12.038  18.043  0.00  0.00    +0.000 C 
ATOM     16  C   UNL     1      -1.292  11.172  19.311  0.00  0.00    +0.000 C 
ATOM     17  H   UNL     1      -0.964  13.820  17.190  0.00  0.00    +0.000 HD
ENDBRANCH   8  11
ENDBRANCH   2   5
BRANCH   3  18
ATOM     18  C   UNL     1       5.045   4.894  19.439  0.00  0.00    +0.000 C 
BRANCH  18  19
ATOM     19  C   UNL     1       5.141   4.223  18.039  0.00  0.00    +0.000 C 
BRANCH  19  20
ATOM     20  N   UNL     1       5.435   5.295  17.018  0.00  0.00    +0.000 NA
ATOM     21  H   UNL     1       4.795   5.255  16.222  0.00  0.00    +0.000 HD
BRANCH  20  22
ATOM     22  S   UNL     1       7.012   5.353  16.340  0.00  0.00    +0.000 S 
ATOM     23  O   UNL     1       7.462   6.723  16.464  0.00  0.00    +0.000 OA
ATOM     24  O   UNL     1       7.757   4.284  16.961  0.00  0.00    +0.000 OA
BRANCH  22  25
ATOM     25  C   UNL     1       6.762   4.935  14.637  0.00  0.00    +0.000 A 
ATOM     26  C   UNL     1       5.750   4.051  14.258  0.00  0.00    +0.000 A 
ATOM     27  C   UNL     1       5.744   3.550  12.954  0.00  0.00    +0.000 A 
ATOM     28  C   UNL     1       6.737   3.934  12.050  0.00  0.00    +0.000 A 
ATOM     29  C   UNL     1       7.708   4.864  12.423  0.00  0.00    +0.000 A 
ATOM     30  C   UNL     1       7.709   5.386  13.713  0.00  0.00    +0.000 A 
ENDBRANCH  22  25
ENDBRANCH  20  22
ENDBRANCH  19  20
BRANCH  19  31
ATOM     31  C   UNL     1       3.960   3.319  17.684  0.00  0.00    +0.000 C 
ATOM     32  O   UNL     1       3.327   3.421  16.639  0.00  0.00    +0.000 OA
BRANCH  31  33
ATOM     33  O   UNL     1       3.620   2.361  18.574  0.00  0.00    +0.000 OA
ATOM     34  H   UNL     1       3.070   2.649  19.324  0.00  0.00    +0.000 HD
ENDBRANCH  31  33
ENDBRANCH  19  31
ENDBRANCH  18  19
ENDBRANCH   3  18
TORSDOF 9
ENDMDL
MODEL 6
REMARK VINA RESULT:      -7.8      2.618      5.031
REMARK  Name = 
REMARK  9 active torsions:
REMARK  status: ('A' for Active; 'I' for Inactive)
REMARK    1  A    between atoms: C_2  and  C_19
REMARK    2  A    between atoms: N_3  and  C_4
REMARK    3  A    between atoms: C_4  and  C_5
REMARK    4  A    between atoms: C_5  and  N_6
REMARK    5  A    between atoms: C_5  and  C_16
REMARK    6  A    between atoms: N_6  and  S_7
REMARK    7  A    between atoms: S_7  and  C_10
REMARK    8  A    between atoms: C_16  and  O_18
REMARK    9  A    between atoms: C_22  and  N_23
REMARK                            x       y       z     vdW  Elec       q    Type
REMARK                         _______ _______ _______ _____ _____    ______ ____
ROOT
ATOM      1  O   UNL     1       2.647   5.352  20.542  0.00  0.00    +0.000 OA
ATOM      2  C   UNL     1       2.994   6.147  19.679  0.00  0.00    +0.000 C 
ATOM      3  N   UNL     1       4.110   5.949  18.872  0.00  0.00    +0.000 N 
ATOM      4  H   UNL     1       4.564   6.804  18.563  0.00  0.00    +0.000 HD
ENDROOT
BRANCH   2   5
ATOM      5  C   UNL     1       2.214   7.394  19.458  0.00  0.00    +0.000 A 
ATOM      6  C   UNL     1       2.174   7.960  18.183  0.00  0.00    +0.000 A 
ATOM      7  C   UNL     1       1.483   9.163  17.966  0.00  0.00    +0.000 A 
ATOM      8  C   UNL     1       0.824   9.836  19.008  0.00  0.00    +0.000 A 
ATOM      9  C   UNL     1       0.904   9.254  20.283  0.00  0.00    +0.000 A 
ATOM     10  C   UNL     1       1.589   8.054  20.516  0.00  0.00    +0.000 A 
BRANCH   8  11
ATOM     11  N   UNL     1       0.121  11.000  18.780  0.00  0.00    +0.000 N 
ATOM     12  C   UNL     1      -1.069  11.053  17.916  0.00  0.00    +0.000 C 
ATOM     13  C   UNL     1      -2.318  11.450  18.730  0.00  0.00    +0.000 C 
ATOM     14  N   UNL     1      -2.146  12.719  19.463  0.00  0.00    +0.000 NA
ATOM     15  C   UNL     1      -0.954  12.621  20.331  0.00  0.00    +0.000 C 
ATOM     16  C   UNL     1       0.343  12.219  19.579  0.00  0.00    +0.000 C 
ATOM     17  H   UNL     1      -2.968  12.883  20.043  0.00  0.00    +0.000 HD
ENDBRANCH   8  11
ENDBRANCH   2   5
BRANCH   3  18
ATOM     18  C   UNL     1       4.924   4.743  19.047  0.00  0.00    +0.000 C 
BRANCH  18  19
ATOM     19  C   UNL     1       4.720   3.679  17.931  0.00  0.00    +0.000 C 
BRANCH  19  20
ATOM     20  N   UNL     1       4.760   4.378  16.595  0.00  0.00    +0.000 NA
ATOM     21  H   UNL     1       4.529   3.748  15.823  0.00  0.00    +0.000 HD
BRANCH  20  22
ATOM     22  S   UNL     1       6.219   5.158  16.134  0.00  0.00    +0.000 S 
ATOM     23  O   UNL     1       6.004   6.577  16.325  0.00  0.00    +0.000 OA
ATOM     24  O   UNL     1       7.279   4.483  16.845  0.00  0.00    +0.000 OA
BRANCH  22  25
ATOM     25  C   UNL     1       6.381   4.782  14.411  0.00  0.00    +0.000 A 
ATOM     26  C   UNL     1       5.544   3.845  13.802  0.00  0.00    +0.000 A 
ATOM     27  C   UNL     1       5.863   3.388  12.520  0.00  0.00    +0.000 A 
ATOM     28  C   UNL     1       6.999   3.868  11.866  0.00  0.00    +0.000 A 
ATOM     29  C   UNL     1       7.794   4.848  12.462  0.00  0.00    +0.000 A 
ATOM     30  C   UNL     1       7.473   5.326  13.728  0.00  0.00    +0.000 A 
ENDBRANCH  22  25
ENDBRANCH  20  22
ENDBRANCH  19  20
BRANCH  19  31
ATOM     31  C   UNL     1       3.508   2.769  18.133  0.00  0.00    +0.000 C 
ATOM     32  O   UNL     1       3.602   1.570  18.369  0.00  0.00    +0.000 OA
BRANCH  31  33
ATOM     33  O   UNL     1       2.284   3.336  18.056  0.00  0.00    +0.000 OA
ATOM     34  H   UNL     1       2.143   4.125  18.607  0.00  0.00    +0.000 HD
ENDBRANCH  31  33
ENDBRANCH  19  31
ENDBRANCH  18  19
ENDBRANCH   3  18
TORSDOF 9
ENDMDL
MODEL 7
REMARK VINA RESULT:      -7.8      1.794      2.378
REMARK  Name = 
REMARK  9 active torsions:
REMARK  status: ('A' for Active; 'I' for Inactive)
REMARK    1  A    between atoms: C_2  and  C_19
REMARK    2  A    between atoms: N_3  and  C_4
REMARK    3  A    between atoms: C_4  and  C_5
REMARK    4  A    between atoms: C_5  and  N_6
REMARK    5  A    between atoms: C_5  and  C_16
REMARK    6  A    between atoms: N_6  and  S_7
REMARK    7  A    between atoms: S_7  and  C_10
REMARK    8  A    between atoms: C_16  and  O_18
REMARK    9  A    between atoms: C_22  and  N_23
REMARK                            x       y       z     vdW  Elec       q    Type
REMARK                         _______ _______ _______ _____ _____    ______ ____
ROOT
ATOM      1  O   UNL     1       2.896   5.400  17.576  0.00  0.00    +0.000 OA
ATOM      2  C   UNL     1       3.421   6.451  17.918  0.00  0.00    +0.000 C 
ATOM      3  N   UNL     1       4.799   6.646  17.909  0.00  0.00    +0.000 N 
ATOM      4  H   UNL     1       5.138   7.299  18.610  0.00  0.00    +0.000 HD
ENDROOT
BRANCH   2   5
ATOM      5  C   UNL     1       2.582   7.590  18.376  0.00  0.00    +0.000 A 
ATOM      6  C   UNL     1       2.362   8.667  17.517  0.00  0.00    +0.000 A 
ATOM      7  C   UNL     1       1.612   9.773  17.949  0.00  0.00    +0.000 A 
ATOM      8  C   UNL     1       1.070   9.840  19.242  0.00  0.00    +0.000 A 
ATOM      9  C   UNL     1       1.329   8.752  20.090  0.00  0.00    +0.000 A 
ATOM     10  C   UNL     1       2.076   7.640  19.675  0.00  0.00    +0.000 A 
BRANCH   8  11
ATOM     11  N   UNL     1       0.308  10.915  19.647  0.00  0.00    +0.000 N 
ATOM     12  C   UNL     1       0.872  12.260  19.844  0.00  0.00    +0.000 C 
ATOM     13  C   UNL     1       0.249  13.264  18.853  0.00  0.00    +0.000 C 
ATOM     14  N   UNL     1      -1.225  13.299  18.921  0.00  0.00    +0.000 NA
ATOM     15  C   UNL     1      -1.753  11.938  18.702  0.00  0.00    +0.000 C 
ATOM     16  C   UNL     1      -1.166  10.869  19.662  0.00  0.00    +0.000 C 
ATOM     17  H   UNL     1      -1.578  13.917  18.191  0.00  0.00    +0.000 HD
ENDBRANCH   8  11
ENDBRANCH   2   5
BRANCH   3  18
ATOM     18  C   UNL     1       5.680   5.558  17.476  0.00  0.00    +0.000 C 
BRANCH  18  19
ATOM     19  C   UNL     1       6.413   4.838  18.644  0.00  0.00    +0.000 C 
BRANCH  19  20
ATOM     20  N   UNL     1       5.374   4.316  19.606  0.00  0.00    +0.000 NA
ATOM     21  H   UNL     1       5.725   4.272  20.565  0.00  0.00    +0.000 HD
BRANCH  20  22
ATOM     22  S   UNL     1       4.687   2.773  19.294  0.00  0.00    +0.000 S 
ATOM     23  O   UNL     1       4.843   2.534  17.875  0.00  0.00    +0.000 OA
ATOM     24  O   UNL     1       5.277   1.868  20.252  0.00  0.00    +0.000 OA
BRANCH  22  25
ATOM     25  C   UNL     1       2.977   2.975  19.704  0.00  0.00    +0.000 A 
ATOM     26  C   UNL     1       1.985   2.298  18.992  0.00  0.00    +0.000 A 
ATOM     27  C   UNL     1       0.651   2.672  19.170  0.00  0.00    +0.000 A 
ATOM     28  C   UNL     1       0.323   3.707  20.048  0.00  0.00    +0.000 A 
ATOM     29  C   UNL     1       1.317   4.336  20.798  0.00  0.00    +0.000 A 
ATOM     30  C   UNL     1       2.647   3.955  20.645  0.00  0.00    +0.000 A 
ENDBRANCH  22  25
ENDBRANCH  20  22
ENDBRANCH  19  20
BRANCH  19  31
ATOM     31  C   UNL     1       7.525   5.658  19.298  0.00  0.00    +0.000 C 
ATOM     32  O   UNL     1       8.025   6.647  18.775  0.00  0.00    +0.000 OA
BRANCH  31  33
ATOM     33  O   UNL     1       7.956   5.263  20.517  0.00  0.00    +0.000 OA
ATOM     34  H   UNL     1       7.268   5.130  21.191  0.00  0.00    +0.000 HD
ENDBRANCH  31  33
ENDBRANCH  19  31
ENDBRANCH  18  19
ENDBRANCH   3  18
TORSDOF 9
ENDMDL
MODEL 8
REMARK VINA RESULT:      -7.7      2.194      4.552
REMARK  Name = 
REMARK  9 active torsions:
REMARK  status: ('A' for Active; 'I' for Inactive)
REMARK    1  A    between atoms: C_2  and  C_19
REMARK    2  A    between atoms: N_3  and  C_4
REMARK    3  A    between atoms: C_4  and  C_5
REMARK    4  A    between atoms: C_5  and  N_6
REMARK    5  A    between atoms: C_5  and  C_16
REMARK    6  A    between atoms: N_6  and  S_7
REMARK    7  A    between atoms: S_7  and  C_10
REMARK    8  A    between atoms: C_16  and  O_18
REMARK    9  A    between atoms: C_22  and  N_23
REMARK                            x       y       z     vdW  Elec       q    Type
REMARK                         _______ _______ _______ _____ _____    ______ ____
ROOT
ATOM      1  O   UNL     1       1.846   4.845  20.170  0.00  0.00    +0.000 OA
ATOM      2  C   UNL     1       2.587   5.729  19.758  0.00  0.00    +0.000 C 
ATOM      3  N   UNL     1       3.887   5.485  19.326  0.00  0.00    +0.000 N 
ATOM      4  H   UNL     1       4.529   6.261  19.463  0.00  0.00    +0.000 HD
ENDROOT
BRANCH   2   5
ATOM      5  C   UNL     1       2.111   7.137  19.709  0.00  0.00    +0.000 A 
ATOM      6  C   UNL     1       1.493   7.690  20.831  0.00  0.00    +0.000 A 
ATOM      7  C   UNL     1       0.995   9.002  20.787  0.00  0.00    +0.000 A 
ATOM      8  C   UNL     1       1.090   9.792  19.630  0.00  0.00    +0.000 A 
ATOM      9  C   UNL     1       1.695   9.198  18.511  0.00  0.00    +0.000 A 
ATOM     10  C   UNL     1       2.198   7.890  18.538  0.00  0.00    +0.000 A 
BRANCH   8  11
ATOM     11  N   UNL     1       0.627  11.090  19.606  0.00  0.00    +0.000 N 
ATOM     12  C   UNL     1      -0.459  11.530  18.716  0.00  0.00    +0.000 C 
ATOM     13  C   UNL     1      -1.680  11.998  19.534  0.00  0.00    +0.000 C 
ATOM     14  N   UNL     1      -1.347  13.050  20.513  0.00  0.00    +0.000 NA
ATOM     15  C   UNL     1      -0.268  12.566  21.398  0.00  0.00    +0.000 C 
ATOM     16  C   UNL     1       0.995  12.072  20.643  0.00  0.00    +0.000 C 
ATOM     17  H   UNL     1      -2.172  13.257  21.075  0.00  0.00    +0.000 HD
ENDBRANCH   8  11
ENDBRANCH   2   5
BRANCH   3  18
ATOM     18  C   UNL     1       4.416   4.119  19.358  0.00  0.00    +0.000 C 
BRANCH  18  19
ATOM     19  C   UNL     1       4.379   3.396  17.981  0.00  0.00    +0.000 C 
BRANCH  19  20
ATOM     20  N   UNL     1       4.298   4.443  16.898  0.00  0.00    +0.000 NA
ATOM     21  H   UNL     1       3.515   4.279  16.261  0.00  0.00    +0.000 HD
BRANCH  20  22
ATOM     22  S   UNL     1       5.671   4.673  15.893  0.00  0.00    +0.000 S 
ATOM     23  O   UNL     1       6.175   3.354  15.578  0.00  0.00    +0.000 OA
ATOM     24  O   UNL     1       5.252   5.562  14.835  0.00  0.00    +0.000 OA
BRANCH  22  25
ATOM     25  C   UNL     1       6.816   5.544  16.925  0.00  0.00    +0.000 A 
ATOM     26  C   UNL     1       7.435   4.908  18.003  0.00  0.00    +0.000 A 
ATOM     27  C   UNL     1       8.126   5.684  18.938  0.00  0.00    +0.000 A 
ATOM     28  C   UNL     1       8.192   7.070  18.789  0.00  0.00    +0.000 A 
ATOM     29  C   UNL     1       7.620   7.687  17.675  0.00  0.00    +0.000 A 
ATOM     30  C   UNL     1       6.950   6.922  16.726  0.00  0.00    +0.000 A 
ENDBRANCH  22  25
ENDBRANCH  20  22
ENDBRANCH  19  20
BRANCH  19  31
ATOM     31  C   UNL     1       3.329   2.290  17.872  0.00  0.00    +0.000 C 
ATOM     32  O   UNL     1       2.196   2.481  17.447  0.00  0.00    +0.000 OA
BRANCH  31  33
ATOM     33  O   UNL     1       3.692   1.047  18.256  0.00  0.00    +0.000 OA
ATOM     34  H   UNL     1       4.410   0.994  18.911  0.00  0.00    +0.000 HD
ENDBRANCH  31  33
ENDBRANCH  19  31
ENDBRANCH  18  19
ENDBRANCH   3  18
TORSDOF 9
ENDMDL
MODEL 9
REMARK VINA RESULT:      -7.7      0.733      1.515
REMARK  Name = 
REMARK  9 active torsions:
REMARK  status: ('A' for Active; 'I' for Inactive)
REMARK    1  A    between atoms: C_2  and  C_19
REMARK    2  A    between atoms: N_3  and  C_4
REMARK    3  A    between atoms: C_4  and  C_5
REMARK    4  A    between atoms: C_5  and  N_6
REMARK    5  A    between atoms: C_5  and  C_16
REMARK    6  A    between atoms: N_6  and  S_7
REMARK    7  A    between atoms: S_7  and  C_10
REMARK    8  A    between atoms: C_16  and  O_18
REMARK    9  A    between atoms: C_22  and  N_23
REMARK                            x       y       z     vdW  Elec       q    Type
REMARK                         _______ _______ _______ _____ _____    ______ ____
ROOT
ATOM      1  O   UNL     1       5.045   7.094  17.015  0.00  0.00    +0.000 OA
ATOM      2  C   UNL     1       4.034   6.577  17.473  0.00  0.00    +0.000 C 
ATOM      3  N   UNL     1       3.759   5.218  17.356  0.00  0.00    +0.000 N 
ATOM      4  H   UNL     1       2.769   4.989  17.324  0.00  0.00    +0.000 HD
ENDROOT
BRANCH   2   5
ATOM      5  C   UNL     1       3.030   7.410  18.187  0.00  0.00    +0.000 A 
ATOM      6  C   UNL     1       2.645   7.058  19.481  0.00  0.00    +0.000 A 
ATOM      7  C   UNL     1       1.663   7.805  20.153  0.00  0.00    +0.000 A 
ATOM      8  C   UNL     1       1.036   8.910  19.555  0.00  0.00    +0.000 A 
ATOM      9  C   UNL     1       1.427   9.223  18.244  0.00  0.00    +0.000 A 
ATOM     10  C   UNL     1       2.406   8.489  17.560  0.00  0.00    +0.000 A 
BRANCH   8  11
ATOM     11  N   UNL     1       0.096   9.656  20.234  0.00  0.00    +0.000 N 
ATOM     12  C   UNL     1       0.272  10.073  21.633  0.00  0.00    +0.000 C 
ATOM     13  C   UNL     1       0.343  11.610  21.741  0.00  0.00    +0.000 C 
ATOM     14  N   UNL     1      -0.824  12.282  21.138  0.00  0.00    +0.000 NA
ATOM     15  C   UNL     1      -0.957  11.853  19.731  0.00  0.00    +0.000 C 
ATOM     16  C   UNL     1      -1.029  10.314  19.544  0.00  0.00    +0.000 C 
ATOM     17  H   UNL     1      -0.680  13.291  21.167  0.00  0.00    +0.000 HD
ENDBRANCH   8  11
ENDBRANCH   2   5
BRANCH   3  18
ATOM     18  C   UNL     1       4.707   4.347  16.655  0.00  0.00    +0.000 C 
BRANCH  18  19
ATOM     19  C   UNL     1       5.824   3.767  17.569  0.00  0.00    +0.000 C 
BRANCH  19  20
ATOM     20  N   UNL     1       5.273   3.637  18.968  0.00  0.00    +0.000 NA
ATOM     21  H   UNL     1       5.985   3.807  19.680  0.00  0.00    +0.000 HD
BRANCH  20  22
ATOM     22  S   UNL     1       4.527   2.153  19.406  0.00  0.00    +0.000 S 
ATOM     23  O   UNL     1       4.580   1.304  18.235  0.00  0.00    +0.000 OA
ATOM     24  O   UNL     1       5.156   1.734  20.636  0.00  0.00    +0.000 OA
BRANCH  22  25
ATOM     25  C   UNL     1       2.853   2.606  19.768  0.00  0.00    +0.000 A 
ATOM     26  C   UNL     1       1.817   2.279  18.891  0.00  0.00    +0.000 A 
ATOM     27  C   UNL     1       0.564   2.867  19.077  0.00  0.00    +0.000 A 
ATOM     28  C   UNL     1       0.359   3.765  20.126  0.00  0.00    +0.000 A 
ATOM     29  C   UNL     1       1.385   4.038  21.031  0.00  0.00    +0.000 A 
ATOM     30  C   UNL     1       2.630   3.439  20.868  0.00  0.00    +0.000 A 
ENDBRANCH  22  25
ENDBRANCH  20  22
ENDBRANCH  19  20
BRANCH  19  31
ATOM     31  C   UNL     1       7.161   4.503  17.483  0.00  0.00    +0.000 C 
ATOM     32  O   UNL     1       8.020   4.438  18.355  0.00  0.00    +0.000 OA
BRANCH  31  33
ATOM     33  O   UNL     1       7.393   5.246  16.379  0.00  0.00    +0.000 OA
ATOM     34  H   UNL     1       7.936   6.044  16.506  0.00  0.00    +0.000 HD
ENDBRANCH  31  33
ENDBRANCH  19  31
ENDBRANCH  18  19
ENDBRANCH   3  18
TORSDOF 9
ENDMDL
