MODEL 1
REMARK VINA RESULT:      -6.9      0.000      0.000
REMARK  Name = 
REMARK  5 active torsions:
REMARK  status: ('A' for Active; 'I' for Inactive)
REMARK    1  A    between atoms: C_1  and  C_2
REMARK    2  A    between atoms: C_7  and  C_8
REMARK    3  A    between atoms: C_9  and  N_10
REMARK    4  A    between atoms: N_13  and  C_14
REMARK    5  A    between atoms: C_14  and  C_15
REMARK                            x       y       z     vdW  Elec       q    Type
REMARK                         _______ _______ _______ _____ _____    ______ ____
ROOT
ATOM      1  N   UNL     1       2.771   6.420  18.690  0.00  0.00    +0.000 N 
ATOM      2  C   UNL     1       3.314   7.447  17.810  0.00  0.00    +0.000 C 
ATOM      3  C   UNL     1       2.295   8.559  17.624  0.00  0.00    +0.000 C 
ATOM      4  N   UNL     1       1.881   9.110  18.906  0.00  0.00    +0.000 N 
ATOM      5  C   UNL     1       1.589   8.243  19.965  0.00  0.00    +0.000 C 
ATOM      6  O   UNL     1       0.938   8.586  20.946  0.00  0.00    +0.000 OA
ATOM      7  C   UNL     1       2.132   6.788  19.875  0.00  0.00    +0.000 C 
ATOM      8  O   UNL     1       1.965   6.039  20.833  0.00  0.00    +0.000 OA
ENDROOT
BRANCH   1  17
ATOM      9  C   UNL     1       0.763   4.658  17.328  0.00  0.00    +0.000 C 
ATOM     10  C   UNL     1       2.102   4.182  17.825  0.00  0.00    +0.000 A 
ATOM     11  C   UNL     1       2.439   2.835  17.590  0.00  0.00    +0.000 A 
ATOM     12  C   UNL     1       3.704   2.360  17.926  0.00  0.00    +0.000 A 
ATOM     13  F   UNL     1       4.015   1.084  17.675  0.00  0.00    +0.000 F 
ATOM     14  C   UNL     1       4.643   3.194  18.511  0.00  0.00    +0.000 A 
ATOM     15  C   UNL     1       4.337   4.538  18.780  0.00  0.00    +0.000 A 
ATOM     16  C   UNL     1       5.384   5.373  19.468  0.00  0.00    +0.000 C 
ATOM     17  C   UNL     1       3.053   5.041  18.425  0.00  0.00    +0.000 A 
ENDBRANCH   1  17
BRANCH   4  18
ATOM     18  C   UNL     1       1.427  10.499  18.951  0.00  0.00    +0.000 C 
BRANCH  18  19
ATOM     19  C   UNL     1      -0.036  10.614  18.563  0.00  0.00    +0.000 A 
ATOM     20  C   UNL     1      -0.528   9.773  17.542  0.00  0.00    +0.000 A 
ATOM     21  C   UNL     1      -1.889   9.733  17.234  0.00  0.00    +0.000 A 
ATOM     22  C   UNL     1      -2.786  10.534  17.935  0.00  0.00    +0.000 A 
ATOM     23  C   UNL     1      -2.314  11.416  18.910  0.00  0.00    +0.000 A 
ATOM     24 CL   UNL     1      -3.495  12.362  19.752  0.00  0.00    +0.000 Cl
ATOM     25  C   UNL     1      -0.941  11.482  19.210  0.00  0.00    +0.000 A 
ATOM     26 CL   UNL     1      -0.369  12.630  20.380  0.00  0.00    +0.000 Cl
ENDBRANCH  18  19
ENDBRANCH   4  18
TORSDOF 3
ENDMDL
MODEL 2
REMARK VINA RESULT:      -6.9      0.150      1.723
REMARK  Name = 
REMARK  5 active torsions:
REMARK  status: ('A' for Active; 'I' for Inactive)
REMARK    1  A    between atoms: C_1  and  C_2
REMARK    2  A    between atoms: C_7  and  C_8
REMARK    3  A    between atoms: C_9  and  N_10
REMARK    4  A    between atoms: N_13  and  C_14
REMARK    5  A    between atoms: C_14  and  C_15
REMARK                            x       y       z     vdW  Elec       q    Type
REMARK                         _______ _______ _______ _____ _____    ______ ____
ROOT
ATOM      1  N   UNL     1       2.809   6.540  18.679  0.00  0.00    +0.000 N 
ATOM      2  C   UNL     1       3.300   7.591  17.796  0.00  0.00    +0.000 C 
ATOM      3  C   UNL     1       2.235   8.661  17.625  0.00  0.00    +0.000 C 
ATOM      4  N   UNL     1       1.815   9.191  18.914  0.00  0.00    +0.000 N 
ATOM      5  C   UNL     1       1.570   8.311  19.973  0.00  0.00    +0.000 C 
ATOM      6  O   UNL     1       0.917   8.625  20.963  0.00  0.00    +0.000 OA
ATOM      7  C   UNL     1       2.170   6.879  19.872  0.00  0.00    +0.000 C 
ATOM      8  O   UNL     1       2.045   6.121  20.830  0.00  0.00    +0.000 OA
ENDROOT
BRANCH   1  17
ATOM      9  C   UNL     1       5.481   5.414  19.445  0.00  0.00    +0.000 C 
ATOM     10  C   UNL     1       4.415   4.637  18.717  0.00  0.00    +0.000 A 
ATOM     11  C   UNL     1       4.685   3.286  18.424  0.00  0.00    +0.000 A 
ATOM     12  C   UNL     1       3.702   2.483  17.852  0.00  0.00    +0.000 A 
ATOM     13  F   UNL     1       3.968   1.197  17.601  0.00  0.00    +0.000 F 
ATOM     14  C   UNL     1       2.453   3.000  17.546  0.00  0.00    +0.000 A 
ATOM     15  C   UNL     1       2.154   4.347  17.804  0.00  0.00    +0.000 A 
ATOM     16  C   UNL     1       0.797   4.857  17.395  0.00  0.00    +0.000 C 
ATOM     17  C   UNL     1       3.144   5.175  18.406  0.00  0.00    +0.000 A 
ENDBRANCH   1  17
BRANCH   4  18
ATOM     18  C   UNL     1       1.305  10.561  18.969  0.00  0.00    +0.000 C 
BRANCH  18  19
ATOM     19  C   UNL     1      -0.147  10.627  18.533  0.00  0.00    +0.000 A 
ATOM     20  C   UNL     1      -0.579   9.768  17.501  0.00  0.00    +0.000 A 
ATOM     21  C   UNL     1      -1.928   9.682  17.150  0.00  0.00    +0.000 A 
ATOM     22  C   UNL     1      -2.871  10.457  17.819  0.00  0.00    +0.000 A 
ATOM     23  C   UNL     1      -2.459  11.357  18.804  0.00  0.00    +0.000 A 
ATOM     24 CL   UNL     1      -3.697  12.266  19.604  0.00  0.00    +0.000 Cl
ATOM     25  C   UNL     1      -1.099  11.468  19.147  0.00  0.00    +0.000 A 
ATOM     26 CL   UNL     1      -0.602  12.638  20.330  0.00  0.00    +0.000 Cl
ENDBRANCH  18  19
ENDBRANCH   4  18
TORSDOF 3
ENDMDL
MODEL 3
REMARK VINA RESULT:      -6.8      3.679      5.907
REMARK  Name = 
REMARK  5 active torsions:
REMARK  status: ('A' for Active; 'I' for Inactive)
REMARK    1  A    between atoms: C_1  and  C_2
REMARK    2  A    between atoms: C_7  and  C_8
REMARK    3  A    between atoms: C_9  and  N_10
REMARK    4  A    between atoms: N_13  and  C_14
REMARK    5  A    between atoms: C_14  and  C_15
REMARK                            x       y       z     vdW  Elec       q    Type
REMARK                         _______ _______ _______ _____ _____    ______ ____
ROOT
ATOM      1  N   UNL     1       0.008  10.820  20.167  0.00  0.00    +0.000 N 
ATOM      2  C   UNL     1      -1.192  11.046  19.372  0.00  0.00    +0.000 C 
ATOM      3  C   UNL     1      -2.245  11.747  20.214  0.00  0.00    +0.000 C 
ATOM      4  N   UNL     1      -1.727  12.987  20.772  0.00  0.00    +0.000 N 
ATOM      5  C   UNL     1      -0.446  13.007  21.333  0.00  0.00    +0.000 C 
ATOM      6  O   UNL     1      -0.067  13.888  22.098  0.00  0.00    +0.000 OA
ATOM      7  C   UNL     1       0.525  11.853  20.950  0.00  0.00    +0.000 C 
ATOM      8  O   UNL     1       1.682  11.900  21.358  0.00  0.00    +0.000 OA
ENDROOT
BRANCH   1  17
ATOM      9  C   UNL     1       1.841  10.428  17.827  0.00  0.00    +0.000 C 
ATOM     10  C   UNL     1       1.583   9.383  18.879  0.00  0.00    +0.000 A 
ATOM     11  C   UNL     1       2.285   8.167  18.771  0.00  0.00    +0.000 A 
ATOM     12  C   UNL     1       2.174   7.202  19.769  0.00  0.00    +0.000 A 
ATOM     13  F   UNL     1       2.866   6.064  19.662  0.00  0.00    +0.000 F 
ATOM     14  C   UNL     1       1.362   7.413  20.872  0.00  0.00    +0.000 A 
ATOM     15  C   UNL     1       0.630   8.604  21.004  0.00  0.00    +0.000 A 
ATOM     16  C   UNL     1      -0.277   8.742  22.199  0.00  0.00    +0.000 C 
ATOM     17  C   UNL     1       0.748   9.606  20.000  0.00  0.00    +0.000 A 
ENDBRANCH   1  17
BRANCH   4  18
ATOM     18  C   UNL     1      -2.672  14.063  21.069  0.00  0.00    +0.000 C 
BRANCH  18  19
ATOM     19  C   UNL     1      -3.790  13.581  21.975  0.00  0.00    +0.000 A 
ATOM     20  C   UNL     1      -3.490  13.306  23.325  0.00  0.00    +0.000 A 
ATOM     21  C   UNL     1      -4.498  12.993  24.240  0.00  0.00    +0.000 A 
ATOM     22  C   UNL     1      -5.825  12.943  23.823  0.00  0.00    +0.000 A 
ATOM     23  C   UNL     1      -6.139  13.154  22.478  0.00  0.00    +0.000 A 
ATOM     24 CL   UNL     1      -7.815  13.097  22.045  0.00  0.00    +0.000 Cl
ATOM     25  C   UNL     1      -5.128  13.446  21.545  0.00  0.00    +0.000 A 
ATOM     26 CL   UNL     1      -5.533  13.643  19.868  0.00  0.00    +0.000 Cl
ENDBRANCH  18  19
ENDBRANCH   4  18
TORSDOF 3
ENDMDL
MODEL 4
REMARK VINA RESULT:      -6.7      3.650      5.802
REMARK  Name = 
REMARK  5 active torsions:
REMARK  status: ('A' for Active; 'I' for Inactive)
REMARK    1  A    between atoms: C_1  and  C_2
REMARK    2  A    between atoms: C_7  and  C_8
REMARK    3  A    between atoms: C_9  and  N_10
REMARK    4  A    between atoms: N_13  and  C_14
REMARK    5  A    between atoms: C_14  and  C_15
REMARK                            x       y       z     vdW  Elec       q    Type
REMARK                         _______ _______ _______ _____ _____    ______ ____
ROOT
ATOM      1  N   UNL     1       0.092  10.982  20.099  0.00  0.00    +0.000 N 
ATOM      2  C   UNL     1      -1.132  11.192  19.336  0.00  0.00    +0.000 C 
ATOM      3  C   UNL     1      -2.109  12.026  20.147  0.00  0.00    +0.000 C 
ATOM      4  N   UNL     1      -1.507  13.285  20.558  0.00  0.00    +0.000 N 
ATOM      5  C   UNL     1      -0.201  13.292  21.060  0.00  0.00    +0.000 C 
ATOM      6  O   UNL     1       0.255  14.222  21.717  0.00  0.00    +0.000 OA
ATOM      7  C   UNL     1       0.694  12.057  20.754  0.00  0.00    +0.000 C 
ATOM      8  O   UNL     1       1.869  12.082  21.107  0.00  0.00    +0.000 OA
ENDROOT
BRANCH   1  17
ATOM      9  C   UNL     1       1.887  10.314  17.792  0.00  0.00    +0.000 C 
ATOM     10  C   UNL     1       1.577   9.367  18.921  0.00  0.00    +0.000 A 
ATOM     11  C   UNL     1       2.212   8.109  18.904  0.00  0.00    +0.000 A 
ATOM     12  C   UNL     1       2.054   7.230  19.972  0.00  0.00    +0.000 A 
ATOM     13  F   UNL     1       2.682   6.051  19.950  0.00  0.00    +0.000 F 
ATOM     14  C   UNL     1       1.261   7.567  21.057  0.00  0.00    +0.000 A 
ATOM     15  C   UNL     1       0.596   8.803  21.100  0.00  0.00    +0.000 A 
ATOM     16  C   UNL     1      -0.294   9.081  22.283  0.00  0.00    +0.000 C 
ATOM     17  C   UNL     1       0.763   9.719  20.023  0.00  0.00    +0.000 A 
ENDBRANCH   1  17
BRANCH   4  18
ATOM     18  C   UNL     1      -2.383  14.434  20.785  0.00  0.00    +0.000 C 
BRANCH  18  19
ATOM     19  C   UNL     1      -3.680  14.014  21.453  0.00  0.00    +0.000 A 
ATOM     20  C   UNL     1      -4.864  14.025  20.688  0.00  0.00    +0.000 A 
ATOM     21  C   UNL     1      -6.061  13.521  21.202  0.00  0.00    +0.000 A 
ATOM     22  C   UNL     1      -6.099  13.001  22.492  0.00  0.00    +0.000 A 
ATOM     23  C   UNL     1      -4.952  13.033  23.289  0.00  0.00    +0.000 A 
ATOM     24 CL   UNL     1      -5.077  12.345  24.873  0.00  0.00    +0.000 Cl
ATOM     25  C   UNL     1      -3.749  13.562  22.788  0.00  0.00    +0.000 A 
ATOM     26 CL   UNL     1      -2.353  13.649  23.816  0.00  0.00    +0.000 Cl
ENDBRANCH  18  19
ENDBRANCH   4  18
TORSDOF 3
ENDMDL
MODEL 5
REMARK VINA RESULT:      -6.6      5.544      8.510
REMARK  Name = 
REMARK  5 active torsions:
REMARK  status: ('A' for Active; 'I' for Inactive)
REMARK    1  A    between atoms: C_1  and  C_2
REMARK    2  A    between atoms: C_7  and  C_8
REMARK    3  A    between atoms: C_9  and  N_10
REMARK    4  A    between atoms: N_13  and  C_14
REMARK    5  A    between atoms: C_14  and  C_15
REMARK                            x       y       z     vdW  Elec       q    Type
REMARK                         _______ _______ _______ _____ _____    ______ ____
ROOT
ATOM      1  N   UNL     1       1.444  12.702  19.158  0.00  0.00    +0.000 N 
ATOM      2  C   UNL     1       2.239  13.285  18.084  0.00  0.00    +0.000 C 
ATOM      3  C   UNL     1       2.741  14.657  18.500  0.00  0.00    +0.000 C 
ATOM      4  N   UNL     1       3.488  14.585  19.747  0.00  0.00    +0.000 N 
ATOM      5  C   UNL     1       2.989  13.818  20.804  0.00  0.00    +0.000 C 
ATOM      6  O   UNL     1       3.365  13.957  21.964  0.00  0.00    +0.000 OA
ATOM      7  C   UNL     1       1.916  12.743  20.470  0.00  0.00    +0.000 C 
ATOM      8  O   UNL     1       1.531  11.999  21.368  0.00  0.00    +0.000 OA
ENDROOT
BRANCH   1  17
ATOM      9  C   UNL     1       1.663   9.874  18.187  0.00  0.00    +0.000 C 
ATOM     10  C   UNL     1       0.361  10.616  18.334  0.00  0.00    +0.000 A 
ATOM     11  C   UNL     1      -0.823   9.913  18.036  0.00  0.00    +0.000 A 
ATOM     12  C   UNL     1      -2.063  10.505  18.255  0.00  0.00    +0.000 A 
ATOM     13  F   UNL     1      -3.177   9.815  17.989  0.00  0.00    +0.000 F 
ATOM     14  C   UNL     1      -2.156  11.796  18.750  0.00  0.00    +0.000 A 
ATOM     15  C   UNL     1      -0.998  12.536  19.039  0.00  0.00    +0.000 A 
ATOM     16  C   UNL     1      -1.171  13.953  19.521  0.00  0.00    +0.000 C 
ATOM     17  C   UNL     1       0.277  11.936  18.837  0.00  0.00    +0.000 A 
ENDBRANCH   1  17
BRANCH   4  18
ATOM     18  C   UNL     1       4.524  15.587  19.995  0.00  0.00    +0.000 C 
BRANCH  18  19
ATOM     19  C   UNL     1       5.897  15.068  19.608  0.00  0.00    +0.000 A 
ATOM     20  C   UNL     1       6.191  14.901  18.238  0.00  0.00    +0.000 A 
ATOM     21  C   UNL     1       7.476  14.560  17.812  0.00  0.00    +0.000 A 
ATOM     22  C   UNL     1       8.492  14.375  18.745  0.00  0.00    +0.000 A 
ATOM     23  C   UNL     1       8.211  14.478  20.109  0.00  0.00    +0.000 A 
ATOM     24 CL   UNL     1       9.535  14.256  21.203  0.00  0.00    +0.000 Cl
ATOM     25  C   UNL     1       6.913  14.797  20.549  0.00  0.00    +0.000 A 
ATOM     26 CL   UNL     1       6.571  14.858  22.250  0.00  0.00    +0.000 Cl
ENDBRANCH  18  19
ENDBRANCH   4  18
TORSDOF 3
ENDMDL
MODEL 6
REMARK VINA RESULT:      -6.6      3.593      5.715
REMARK  Name = 
REMARK  5 active torsions:
REMARK  status: ('A' for Active; 'I' for Inactive)
REMARK    1  A    between atoms: C_1  and  C_2
REMARK    2  A    between atoms: C_7  and  C_8
REMARK    3  A    between atoms: C_9  and  N_10
REMARK    4  A    between atoms: N_13  and  C_14
REMARK    5  A    between atoms: C_14  and  C_15
REMARK                            x       y       z     vdW  Elec       q    Type
REMARK                         _______ _______ _______ _____ _____    ______ ____
ROOT
ATOM      1  N   UNL     1       0.107  10.908  20.109  0.00  0.00    +0.000 N 
ATOM      2  C   UNL     1      -1.090  11.126  19.307  0.00  0.00    +0.000 C 
ATOM      3  C   UNL     1      -2.090  11.962  20.088  0.00  0.00    +0.000 C 
ATOM      4  N   UNL     1      -1.495  13.218  20.523  0.00  0.00    +0.000 N 
ATOM      5  C   UNL     1      -0.207  13.217  21.067  0.00  0.00    +0.000 C 
ATOM      6  O   UNL     1       0.232  14.143  21.742  0.00  0.00    +0.000 OA
ATOM      7  C   UNL     1       0.692  11.979  20.787  0.00  0.00    +0.000 C 
ATOM      8  O   UNL     1       1.856  11.997  21.178  0.00  0.00    +0.000 OA
ENDROOT
BRANCH   1  17
ATOM      9  C   UNL     1      -0.272   8.854  22.260  0.00  0.00    +0.000 C 
ATOM     10  C   UNL     1       0.646   8.679  21.079  0.00  0.00    +0.000 A 
ATOM     11  C   UNL     1       1.329   7.452  20.966  0.00  0.00    +0.000 A 
ATOM     12  C   UNL     1       2.108   7.184  19.843  0.00  0.00    +0.000 A 
ATOM     13  F   UNL     1       2.730   6.006  19.741  0.00  0.00    +0.000 F 
ATOM     14  C   UNL     1       2.238   8.121  18.831  0.00  0.00    +0.000 A 
ATOM     15  C   UNL     1       1.589   9.363  18.918  0.00  0.00    +0.000 A 
ATOM     16  C   UNL     1       1.820  10.356  17.809  0.00  0.00    +0.000 C 
ATOM     17  C   UNL     1       0.775   9.643  20.052  0.00  0.00    +0.000 A 
ENDBRANCH   1  17
BRANCH   4  18
ATOM     18  C   UNL     1      -2.374  14.369  20.724  0.00  0.00    +0.000 C 
BRANCH  18  19
ATOM     19  C   UNL     1      -3.682  13.957  21.373  0.00  0.00    +0.000 A 
ATOM     20  C   UNL     1      -4.850  13.942  20.581  0.00  0.00    +0.000 A 
ATOM     21  C   UNL     1      -6.054  13.443  21.080  0.00  0.00    +0.000 A 
ATOM     22  C   UNL     1      -6.119  12.953  22.381  0.00  0.00    +0.000 A 
ATOM     23  C   UNL     1      -4.991  13.012  23.203  0.00  0.00    +0.000 A 
ATOM     24 CL   UNL     1      -5.147  12.362  24.800  0.00  0.00    +0.000 Cl
ATOM     25  C   UNL     1      -3.779  13.537  22.717  0.00  0.00    +0.000 A 
ATOM     26 CL   UNL     1      -2.407  13.658  23.774  0.00  0.00    +0.000 Cl
ENDBRANCH  18  19
ENDBRANCH   4  18
TORSDOF 3
ENDMDL
MODEL 7
REMARK VINA RESULT:      -6.6      5.491      8.391
REMARK  Name = 
REMARK  5 active torsions:
REMARK  status: ('A' for Active; 'I' for Inactive)
REMARK    1  A    between atoms: C_1  and  C_2
REMARK    2  A    between atoms: C_7  and  C_8
REMARK    3  A    between atoms: C_9  and  N_10
REMARK    4  A    between atoms: N_13  and  C_14
REMARK    5  A    between atoms: C_14  and  C_15
REMARK                            x       y       z     vdW  Elec       q    Type
REMARK                         _______ _______ _______ _____ _____    ______ ____
ROOT
ATOM      1  N   UNL     1       1.379  12.668  19.166  0.00  0.00    +0.000 N 
ATOM      2  C   UNL     1       2.137  13.266  18.074  0.00  0.00    +0.000 C 
ATOM      3  C   UNL     1       2.638  14.641  18.485  0.00  0.00    +0.000 C 
ATOM      4  N   UNL     1       3.421  14.568  19.709  0.00  0.00    +0.000 N 
ATOM      5  C   UNL     1       2.960  13.789  20.775  0.00  0.00    +0.000 C 
ATOM      6  O   UNL     1       3.367  13.925  21.925  0.00  0.00    +0.000 OA
ATOM      7  C   UNL     1       1.888  12.706  20.465  0.00  0.00    +0.000 C 
ATOM      8  O   UNL     1       1.536  11.952  21.368  0.00  0.00    +0.000 OA
ENDROOT
BRANCH   1  17
ATOM      9  C   UNL     1      -1.372  13.783  19.592  0.00  0.00    +0.000 C 
ATOM     10  C   UNL     1      -1.094  12.383  19.111  0.00  0.00    +0.000 A 
ATOM     11  C   UNL     1      -2.204  11.572  18.803  0.00  0.00    +0.000 A 
ATOM     12  C   UNL     1      -2.017  10.307  18.252  0.00  0.00    +0.000 A 
ATOM     13  F   UNL     1      -3.081   9.560  17.945  0.00  0.00    +0.000 F 
ATOM     14  C   UNL     1      -0.742   9.820  18.013  0.00  0.00    +0.000 A 
ATOM     15  C   UNL     1       0.389  10.591  18.326  0.00  0.00    +0.000 A 
ATOM     16  C   UNL     1       1.745   9.976  18.093  0.00  0.00    +0.000 C 
ATOM     17  C   UNL     1       0.211  11.893  18.874  0.00  0.00    +0.000 A 
ENDBRANCH   1  17
BRANCH   4  18
ATOM     18  C   UNL     1       4.453  15.579  19.934  0.00  0.00    +0.000 C 
BRANCH  18  19
ATOM     19  C   UNL     1       5.825  15.063  19.539  0.00  0.00    +0.000 A 
ATOM     20  C   UNL     1       6.083  14.814  18.175  0.00  0.00    +0.000 A 
ATOM     21  C   UNL     1       7.362  14.471  17.732  0.00  0.00    +0.000 A 
ATOM     22  C   UNL     1       8.408  14.366  18.644  0.00  0.00    +0.000 A 
ATOM     23  C   UNL     1       8.165  14.551  20.007  0.00  0.00    +0.000 A 
ATOM     24 CL   UNL     1       9.524  14.425  21.072  0.00  0.00    +0.000 Cl
ATOM     25  C   UNL     1       6.874  14.872  20.465  0.00  0.00    +0.000 A 
ATOM     26 CL   UNL     1       6.580  15.036  22.168  0.00  0.00    +0.000 Cl
ENDBRANCH  18  19
ENDBRANCH   4  18
TORSDOF 3
ENDMDL
MODEL 8
REMARK VINA RESULT:      -6.6      1.946      2.755
REMARK  Name = 
REMARK  5 active torsions:
REMARK  status: ('A' for Active; 'I' for Inactive)
REMARK    1  A    between atoms: C_1  and  C_2
REMARK    2  A    between atoms: C_7  and  C_8
REMARK    3  A    between atoms: C_9  and  N_10
REMARK    4  A    between atoms: N_13  and  C_14
REMARK    5  A    between atoms: C_14  and  C_15
REMARK                            x       y       z     vdW  Elec       q    Type
REMARK                         _______ _______ _______ _____ _____    ______ ____
ROOT
ATOM      1  N   UNL     1       2.890   7.043  18.284  0.00  0.00    +0.000 N 
ATOM      2  C   UNL     1       2.679   8.264  17.517  0.00  0.00    +0.000 C 
ATOM      3  C   UNL     1       1.297   8.824  17.808  0.00  0.00    +0.000 C 
ATOM      4  N   UNL     1       1.111   9.044  19.235  0.00  0.00    +0.000 N 
ATOM      5  C   UNL     1       1.530   8.065  20.142  0.00  0.00    +0.000 C 
ATOM      6  O   UNL     1       1.130   8.015  21.301  0.00  0.00    +0.000 OA
ATOM      7  C   UNL     1       2.553   7.007  19.638  0.00  0.00    +0.000 C 
ATOM      8  O   UNL     1       3.003   6.195  20.442  0.00  0.00    +0.000 OA
ENDROOT
BRANCH   1  17
ATOM      9  C   UNL     1       1.544   4.420  17.737  0.00  0.00    +0.000 C 
ATOM     10  C   UNL     1       3.001   4.692  17.469  0.00  0.00    +0.000 A 
ATOM     11  C   UNL     1       3.756   3.657  16.884  0.00  0.00    +0.000 A 
ATOM     12  C   UNL     1       5.079   3.879  16.511  0.00  0.00    +0.000 A 
ATOM     13  F   UNL     1       5.774   2.893  15.936  0.00  0.00    +0.000 F 
ATOM     14  C   UNL     1       5.678   5.111  16.723  0.00  0.00    +0.000 A 
ATOM     15  C   UNL     1       4.964   6.160  17.323  0.00  0.00    +0.000 A 
ATOM     16  C   UNL     1       5.694   7.453  17.575  0.00  0.00    +0.000 C 
ATOM     17  C   UNL     1       3.605   5.952  17.693  0.00  0.00    +0.000 A 
ENDBRANCH   1  17
BRANCH   4  18
ATOM     18  C   UNL     1       0.177  10.084  19.661  0.00  0.00    +0.000 C 
BRANCH  18  19
ATOM     19  C   UNL     1       0.877  11.420  19.827  0.00  0.00    +0.000 A 
ATOM     20  C   UNL     1       1.793  11.826  18.834  0.00  0.00    +0.000 A 
ATOM     21  C   UNL     1       2.365  13.100  18.856  0.00  0.00    +0.000 A 
ATOM     22  C   UNL     1       2.038  13.992  19.874  0.00  0.00    +0.000 A 
ATOM     23  C   UNL     1       1.178  13.591  20.899  0.00  0.00    +0.000 A 
ATOM     24 CL   UNL     1       0.804  14.767  22.114  0.00  0.00    +0.000 Cl
ATOM     25  C   UNL     1       0.617  12.301  20.898  0.00  0.00    +0.000 A 
ATOM     26 CL   UNL     1      -0.398  11.803  22.215  0.00  0.00    +0.000 Cl
ENDBRANCH  18  19
ENDBRANCH   4  18
TORSDOF 3
ENDMDL
MODEL 9
REMARK VINA RESULT:      -6.6      4.354      8.039
REMARK  Name = 
REMARK  5 active torsions:
REMARK  status: ('A' for Active; 'I' for Inactive)
REMARK    1  A    between atoms: C_1  and  C_2
REMARK    2  A    between atoms: C_7  and  C_8
REMARK    3  A    between atoms: C_9  and  N_10
REMARK    4  A    between atoms: N_13  and  C_14
REMARK    5  A    between atoms: C_14  and  C_15
REMARK                            x       y       z     vdW  Elec       q    Type
REMARK                         _______ _______ _______ _____ _____    ______ ____
ROOT
ATOM      1  N   UNL     1       0.423   9.901  19.180  0.00  0.00    +0.000 N 
ATOM      2  C   UNL     1       0.792   9.671  17.789  0.00  0.00    +0.000 C 
ATOM      3  C   UNL     1       2.226   9.174  17.710  0.00  0.00    +0.000 C 
ATOM      4  N   UNL     1       2.412   7.981  18.523  0.00  0.00    +0.000 N 
ATOM      5  C   UNL     1       1.864   7.932  19.808  0.00  0.00    +0.000 C 
ATOM      6  O   UNL     1       2.235   7.131  20.661  0.00  0.00    +0.000 OA
ATOM      7  C   UNL     1       0.730   8.942  20.147  0.00  0.00    +0.000 C 
ATOM      8  O   UNL     1       0.173   8.856  21.237  0.00  0.00    +0.000 OA
ENDROOT
BRANCH   1  17
ATOM      9  C   UNL     1       1.502  12.219  20.747  0.00  0.00    +0.000 C 
ATOM     10  C   UNL     1       0.071  12.100  20.293  0.00  0.00    +0.000 A 
ATOM     11  C   UNL     1      -0.794  13.172  20.591  0.00  0.00    +0.000 A 
ATOM     12  C   UNL     1      -2.099  13.175  20.106  0.00  0.00    +0.000 A 
ATOM     13  F   UNL     1      -2.899  14.211  20.378  0.00  0.00    +0.000 F 
ATOM     14  C   UNL     1      -2.574  12.121  19.341  0.00  0.00    +0.000 A 
ATOM     15  C   UNL     1      -1.748  11.026  19.041  0.00  0.00    +0.000 A 
ATOM     16  C   UNL     1      -2.346   9.890  18.253  0.00  0.00    +0.000 C 
ATOM     17  C   UNL     1      -0.406  11.019  19.516  0.00  0.00    +0.000 A 
ENDBRANCH   1  17
BRANCH   4  18
ATOM     18  C   UNL     1       3.457   7.033  18.136  0.00  0.00    +0.000 C 
BRANCH  18  19
ATOM     19  C   UNL     1       2.984   5.599  18.288  0.00  0.00    +0.000 A 
ATOM     20  C   UNL     1       1.706   5.257  17.797  0.00  0.00    +0.000 A 
ATOM     21  C   UNL     1       1.270   3.931  17.782  0.00  0.00    +0.000 A 
ATOM     22  C   UNL     1       2.098   2.920  18.262  0.00  0.00    +0.000 A 
ATOM     23  C   UNL     1       3.344   3.242  18.806  0.00  0.00    +0.000 A 
ATOM     24 CL   UNL     1       4.323   1.926  19.360  0.00  0.00    +0.000 Cl
ATOM     25  C   UNL     1       3.781   4.579  18.848  0.00  0.00    +0.000 A 
ATOM     26 CL   UNL     1       5.305   4.963  19.586  0.00  0.00    +0.000 Cl
ENDBRANCH  18  19
ENDBRANCH   4  18
TORSDOF 3
ENDMDL
