MODEL 1
REMARK VINA RESULT:      -7.3      0.000      0.000
REMARK  Name = 
REMARK  7 active torsions:
REMARK  status: ('A' for Active; 'I' for Inactive)
REMARK    1  A    between atoms: C_1  and  S_2
REMARK    2  A    between atoms: S_2  and  C_3
REMARK    3  A    between atoms: N_7  and  C_8
REMARK    4  A    between atoms: C_11  and  C_12
REMARK    5  A    between atoms: C_25  and  C_26
REMARK    6  A    between atoms: C_26  and  C_27
REMARK    7  A    between atoms: C_26  and  C_28
REMARK                            x       y       z     vdW  Elec       q    Type
REMARK                         _______ _______ _______ _____ _____    ______ ____
ROOT
ATOM      1  C   UNL     1       3.546   3.583  20.254  0.00  0.00    +0.000 A 
ATOM      2  N   UNL     1       4.628   3.022  19.753  0.00  0.00    +0.000 NA
ATOM      3  N   UNL     1       4.982   3.694  18.644  0.00  0.00    +0.000 NA
ATOM      4  C   UNL     1       4.160   4.709  18.523  0.00  0.00    +0.000 A 
ATOM      5  N   UNL     1       4.150   5.639  17.504  0.00  0.00    +0.000 N 
ATOM      6  C   UNL     1       3.503   6.845  17.628  0.00  0.00    +0.000 A 
ATOM      7  O   UNL     1       3.551   7.745  16.786  0.00  0.00    +0.000 OA
ATOM      8  C   UNL     1       2.682   6.993  18.823  0.00  0.00    +0.000 A 
ATOM      9  C   UNL     1       1.981   8.176  19.202  0.00  0.00    +0.000 A 
ATOM     10  C   UNL     1       1.301   8.013  20.386  0.00  0.00    +0.000 A 
ATOM     11  S   UNL     1       1.531   6.421  21.042  0.00  0.00    +0.000 S 
ATOM     12  C   UNL     1       2.549   5.981  19.764  0.00  0.00    +0.000 A 
ATOM     13  N   UNL     1       3.300   4.796  19.617  0.00  0.00    +0.000 N 
ATOM     14  C   UNL     1       0.474   9.117  20.994  0.00  0.00    +0.000 C 
ATOM     15  O   UNL     1       0.885  10.406  20.438  0.00  0.00    +0.000 OA
ATOM     16  C   UNL     1       0.903  10.447  18.988  0.00  0.00    +0.000 C 
ATOM     17  C   UNL     1       2.010   9.499  18.492  0.00  0.00    +0.000 C 
ENDROOT
BRANCH   5  18
ATOM     18  C   UNL     1       5.065   5.407  16.463  0.00  0.00    +0.000 A 
ATOM     19  C   UNL     1       4.707   4.590  15.390  0.00  0.00    +0.000 A 
ATOM     20  C   UNL     1       5.600   4.407  14.342  0.00  0.00    +0.000 A 
ATOM     21  C   UNL     1       6.864   5.011  14.382  0.00  0.00    +0.000 A 
ATOM     22  C   UNL     1       7.831   4.822  13.256  0.00  0.00    +0.000 C 
ATOM     23  C   UNL     1       7.228   5.796  15.485  0.00  0.00    +0.000 A 
ATOM     24  C   UNL     1       6.325   6.010  16.517  0.00  0.00    +0.000 A 
ENDBRANCH   5  18
BRANCH  16  25
ATOM     25  C   UNL     1       1.159  11.903  18.471  0.00  0.00    +0.000 C 
ATOM     26  C   UNL     1       0.840  12.984  19.521  0.00  0.00    +0.000 C 
ATOM     27  C   UNL     1       2.601  12.118  18.001  0.00  0.00    +0.000 C 
ENDBRANCH  16  25
BRANCH   1  29
ATOM     28  C   UNL     1       0.985   2.710  20.449  0.00  0.00    +0.000 C 
ATOM     29  S   UNL     1       2.594   2.681  21.384  0.00  0.00    +0.000 S 
ENDBRANCH   1  29
TORSDOF 3
ENDMDL
MODEL 2
REMARK VINA RESULT:      -6.1      5.591      8.526
REMARK  Name = 
REMARK  7 active torsions:
REMARK  status: ('A' for Active; 'I' for Inactive)
REMARK    1  A    between atoms: C_1  and  S_2
REMARK    2  A    between atoms: S_2  and  C_3
REMARK    3  A    between atoms: N_7  and  C_8
REMARK    4  A    between atoms: C_11  and  C_12
REMARK    5  A    between atoms: C_25  and  C_26
REMARK    6  A    between atoms: C_26  and  C_27
REMARK    7  A    between atoms: C_26  and  C_28
REMARK                            x       y       z     vdW  Elec       q    Type
REMARK                         _______ _______ _______ _____ _____    ______ ____
ROOT
ATOM      1  C   UNL     1      -4.023  11.131  17.966  0.00  0.00    +0.000 A 
ATOM      2  N   UNL     1      -3.586   9.943  17.604  0.00  0.00    +0.000 NA
ATOM      3  N   UNL     1      -2.344   9.779  18.093  0.00  0.00    +0.000 NA
ATOM      4  C   UNL     1      -2.067  10.837  18.817  0.00  0.00    +0.000 A 
ATOM      5  N   UNL     1      -0.881  11.092  19.475  0.00  0.00    +0.000 N 
ATOM      6  C   UNL     1      -0.794  12.029  20.477  0.00  0.00    +0.000 A 
ATOM      7  O   UNL     1       0.215  12.220  21.159  0.00  0.00    +0.000 OA
ATOM      8  C   UNL     1      -1.979  12.857  20.661  0.00  0.00    +0.000 A 
ATOM      9  C   UNL     1      -2.149  13.839  21.682  0.00  0.00    +0.000 A 
ATOM     10  C   UNL     1      -3.379  14.450  21.607  0.00  0.00    +0.000 A 
ATOM     11  S   UNL     1      -4.332  13.812  20.301  0.00  0.00    +0.000 S 
ATOM     12  C   UNL     1      -3.113  12.719  19.872  0.00  0.00    +0.000 A 
ATOM     13  N   UNL     1      -3.168  11.686  18.913  0.00  0.00    +0.000 N 
ATOM     14  C   UNL     1      -3.796  15.533  22.569  0.00  0.00    +0.000 C 
ATOM     15  O   UNL     1      -2.965  15.473  23.771  0.00  0.00    +0.000 OA
ATOM     16  C   UNL     1      -1.540  15.471  23.507  0.00  0.00    +0.000 C 
ATOM     17  C   UNL     1      -1.184  14.158  22.787  0.00  0.00    +0.000 C 
ENDROOT
BRANCH   5  18
ATOM     18  C   UNL     1       0.142  10.151  19.267  0.00  0.00    +0.000 A 
ATOM     19  C   UNL     1       0.465   9.241  20.274  0.00  0.00    +0.000 A 
ATOM     20  C   UNL     1       1.444   8.283  20.041  0.00  0.00    +0.000 A 
ATOM     21  C   UNL     1       2.122   8.255  18.815  0.00  0.00    +0.000 A 
ATOM     22  C   UNL     1       3.176   7.225  18.554  0.00  0.00    +0.000 C 
ATOM     23  C   UNL     1       1.818   9.201  17.826  0.00  0.00    +0.000 A 
ATOM     24  C   UNL     1       0.817  10.137  18.043  0.00  0.00    +0.000 A 
ENDBRANCH   5  18
BRANCH  16  25
ATOM     25  C   UNL     1      -0.722  15.604  24.836  0.00  0.00    +0.000 C 
ATOM     26  C   UNL     1       0.093  16.908  24.919  0.00  0.00    +0.000 C 
ATOM     27  C   UNL     1      -1.606  15.525  26.084  0.00  0.00    +0.000 C 
ENDBRANCH  16  25
BRANCH   1  29
ATOM     28  C   UNL     1      -6.718  11.239  18.258  0.00  0.00    +0.000 C 
ATOM     29  S   UNL     1      -5.367  11.812  17.113  0.00  0.00    +0.000 S 
ENDBRANCH   1  29
TORSDOF 3
ENDMDL
MODEL 3
REMARK VINA RESULT:      -6.1      8.249     11.445
REMARK  Name = 
REMARK  7 active torsions:
REMARK  status: ('A' for Active; 'I' for Inactive)
REMARK    1  A    between atoms: C_1  and  S_2
REMARK    2  A    between atoms: S_2  and  C_3
REMARK    3  A    between atoms: N_7  and  C_8
REMARK    4  A    between atoms: C_11  and  C_12
REMARK    5  A    between atoms: C_25  and  C_26
REMARK    6  A    between atoms: C_26  and  C_27
REMARK    7  A    between atoms: C_26  and  C_28
REMARK                            x       y       z     vdW  Elec       q    Type
REMARK                         _______ _______ _______ _____ _____    ______ ____
ROOT
ATOM      1  C   UNL     1       1.354  13.125  20.107  0.00  0.00    +0.000 A 
ATOM      2  N   UNL     1       1.987  13.525  21.191  0.00  0.00    +0.000 NA
ATOM      3  N   UNL     1       1.101  14.124  22.005  0.00  0.00    +0.000 NA
ATOM      4  C   UNL     1      -0.080  14.013  21.445  0.00  0.00    +0.000 A 
ATOM      5  N   UNL     1      -1.268  14.518  21.932  0.00  0.00    +0.000 N 
ATOM      6  C   UNL     1      -2.487  14.068  21.482  0.00  0.00    +0.000 A 
ATOM      7  O   UNL     1      -3.570  14.416  21.957  0.00  0.00    +0.000 OA
ATOM      8  C   UNL     1      -2.436  13.169  20.336  0.00  0.00    +0.000 A 
ATOM      9  C   UNL     1      -3.560  12.520  19.746  0.00  0.00    +0.000 A 
ATOM     10  C   UNL     1      -3.195  11.723  18.685  0.00  0.00    +0.000 A 
ATOM     11  S   UNL     1      -1.478  11.757  18.421  0.00  0.00    +0.000 S 
ATOM     12  C   UNL     1      -1.241  12.802  19.731  0.00  0.00    +0.000 A 
ATOM     13  N   UNL     1      -0.020  13.236  20.288  0.00  0.00    +0.000 N 
ATOM     14  C   UNL     1      -4.205  10.939  17.887  0.00  0.00    +0.000 C 
ATOM     15  O   UNL     1      -5.435  10.785  18.662  0.00  0.00    +0.000 OA
ATOM     16  C   UNL     1      -5.970  12.029  19.180  0.00  0.00    +0.000 C 
ATOM     17  C   UNL     1      -4.982  12.580  20.225  0.00  0.00    +0.000 C 
ENDROOT
BRANCH   5  18
ATOM     18  C   UNL     1      -1.164  15.294  23.099  0.00  0.00    +0.000 A 
ATOM     19  C   UNL     1      -0.886  16.658  23.005  0.00  0.00    +0.000 A 
ATOM     20  C   UNL     1      -0.834  17.427  24.161  0.00  0.00    +0.000 A 
ATOM     21  C   UNL     1      -1.026  16.827  25.412  0.00  0.00    +0.000 A 
ATOM     22  C   UNL     1      -0.975  17.648  26.663  0.00  0.00    +0.000 C 
ATOM     23  C   UNL     1      -1.265  15.448  25.497  0.00  0.00    +0.000 A 
ATOM     24  C   UNL     1      -1.352  14.684  24.343  0.00  0.00    +0.000 A 
ENDBRANCH   5  18
BRANCH  16  25
ATOM     25  C   UNL     1      -7.379  11.809  19.825  0.00  0.00    +0.000 C 
ATOM     26  C   UNL     1      -7.540  10.419  20.471  0.00  0.00    +0.000 C 
ATOM     27  C   UNL     1      -7.714  12.860  20.888  0.00  0.00    +0.000 C 
ENDBRANCH  16  25
BRANCH   1  29
ATOM     28  C   UNL     1       2.903  14.471  18.332  0.00  0.00    +0.000 C 
ATOM     29  S   UNL     1       2.286  12.753  18.696  0.00  0.00    +0.000 S 
ENDBRANCH   1  29
TORSDOF 3
ENDMDL
MODEL 4
REMARK VINA RESULT:      -6.0      5.615      8.696
REMARK  Name = 
REMARK  7 active torsions:
REMARK  status: ('A' for Active; 'I' for Inactive)
REMARK    1  A    between atoms: C_1  and  S_2
REMARK    2  A    between atoms: S_2  and  C_3
REMARK    3  A    between atoms: N_7  and  C_8
REMARK    4  A    between atoms: C_11  and  C_12
REMARK    5  A    between atoms: C_25  and  C_26
REMARK    6  A    between atoms: C_26  and  C_27
REMARK    7  A    between atoms: C_26  and  C_28
REMARK                            x       y       z     vdW  Elec       q    Type
REMARK                         _______ _______ _______ _____ _____    ______ ____
ROOT
ATOM      1  C   UNL     1       1.420  14.458  21.258  0.00  0.00    +0.000 A 
ATOM      2  N   UNL     1       2.490  13.891  20.741  0.00  0.00    +0.000 NA
ATOM      3  N   UNL     1       2.145  12.681  20.267  0.00  0.00    +0.000 NA
ATOM      4  C   UNL     1       0.850  12.555  20.426  0.00  0.00    +0.000 A 
ATOM      5  N   UNL     1       0.088  11.451  20.102  0.00  0.00    +0.000 N 
ATOM      6  C   UNL     1      -1.278  11.525  19.973  0.00  0.00    +0.000 A 
ATOM      7  O   UNL     1      -1.987  10.592  19.588  0.00  0.00    +0.000 OA
ATOM      8  C   UNL     1      -1.877  12.788  20.383  0.00  0.00    +0.000 A 
ATOM      9  C   UNL     1      -3.259  13.122  20.270  0.00  0.00    +0.000 A 
ATOM     10  C   UNL     1      -3.520  14.392  20.730  0.00  0.00    +0.000 A 
ATOM     11  S   UNL     1      -2.074  15.181  21.285  0.00  0.00    +0.000 S 
ATOM     12  C   UNL     1      -1.122  13.841  20.882  0.00  0.00    +0.000 A 
ATOM     13  N   UNL     1       0.284  13.731  20.917  0.00  0.00    +0.000 N 
ATOM     14  C   UNL     1      -4.910  14.975  20.728  0.00  0.00    +0.000 C 
ATOM     15  O   UNL     1      -5.754  14.238  19.788  0.00  0.00    +0.000 OA
ATOM     16  C   UNL     1      -5.745  12.802  19.985  0.00  0.00    +0.000 C 
ATOM     17  C   UNL     1      -4.336  12.278  19.653  0.00  0.00    +0.000 C 
ENDROOT
BRANCH   5  18
ATOM     18  C   UNL     1       0.805  10.336  19.634  0.00  0.00    +0.000 A 
ATOM     19  C   UNL     1       1.064   9.266  20.491  0.00  0.00    +0.000 A 
ATOM     20  C   UNL     1       1.730   8.147  20.006  0.00  0.00    +0.000 A 
ATOM     21  C   UNL     1       2.167   8.112  18.675  0.00  0.00    +0.000 A 
ATOM     22  C   UNL     1       2.883   6.910  18.143  0.00  0.00    +0.000 C 
ATOM     23  C   UNL     1       1.937   9.211  17.835  0.00  0.00    +0.000 A 
ATOM     24  C   UNL     1       1.242  10.315  18.306  0.00  0.00    +0.000 A 
ENDBRANCH   5  18
BRANCH  16  25
ATOM     25  C   UNL     1      -6.814  12.105  19.077  0.00  0.00    +0.000 C 
ATOM     26  C   UNL     1      -6.576  12.336  17.573  0.00  0.00    +0.000 C 
ATOM     27  C   UNL     1      -6.893  10.593  19.311  0.00  0.00    +0.000 C 
ENDBRANCH  16  25
BRANCH   1  29
ATOM     28  C   UNL     1       1.295  17.165  21.145  0.00  0.00    +0.000 C 
ATOM     29  S   UNL     1       1.632  15.786  22.348  0.00  0.00    +0.000 S 
ENDBRANCH   1  29
TORSDOF 3
ENDMDL
MODEL 5
REMARK VINA RESULT:      -6.0      7.854     11.358
REMARK  Name = 
REMARK  7 active torsions:
REMARK  status: ('A' for Active; 'I' for Inactive)
REMARK    1  A    between atoms: C_1  and  S_2
REMARK    2  A    between atoms: S_2  and  C_3
REMARK    3  A    between atoms: N_7  and  C_8
REMARK    4  A    between atoms: C_11  and  C_12
REMARK    5  A    between atoms: C_25  and  C_26
REMARK    6  A    between atoms: C_26  and  C_27
REMARK    7  A    between atoms: C_26  and  C_28
REMARK                            x       y       z     vdW  Elec       q    Type
REMARK                         _______ _______ _______ _____ _____    ______ ____
ROOT
ATOM      1  C   UNL     1      -1.858  15.707  24.338  0.00  0.00    +0.000 A 
ATOM      2  N   UNL     1      -0.652  15.181  24.377  0.00  0.00    +0.000 NA
ATOM      3  N   UNL     1      -0.659  14.044  23.660  0.00  0.00    +0.000 NA
ATOM      4  C   UNL     1      -1.851  13.929  23.123  0.00  0.00    +0.000 A 
ATOM      5  N   UNL     1      -2.297  12.888  22.335  0.00  0.00    +0.000 N 
ATOM      6  C   UNL     1      -3.411  13.008  21.539  0.00  0.00    +0.000 A 
ATOM      7  O   UNL     1      -3.789  12.144  20.745  0.00  0.00    +0.000 OA
ATOM      8  C   UNL     1      -4.186  14.228  21.728  0.00  0.00    +0.000 A 
ATOM      9  C   UNL     1      -5.332  14.604  20.968  0.00  0.00    +0.000 A 
ATOM     10  C   UNL     1      -5.842  15.816  21.372  0.00  0.00    +0.000 A 
ATOM     11  S   UNL     1      -4.910  16.501  22.669  0.00  0.00    +0.000 S 
ATOM     12  C   UNL     1      -3.832  15.197  22.657  0.00  0.00    +0.000 A 
ATOM     13  N   UNL     1      -2.634  15.051  23.388  0.00  0.00    +0.000 N 
ATOM     14  C   UNL     1      -7.061  16.427  20.730  0.00  0.00    +0.000 C 
ATOM     15  O   UNL     1      -7.282  15.826  19.415  0.00  0.00    +0.000 OA
ATOM     16  C   UNL     1      -7.316  14.376  19.425  0.00  0.00    +0.000 C 
ATOM     17  C   UNL     1      -5.913  13.863  19.798  0.00  0.00    +0.000 C 
ENDROOT
BRANCH   5  18
ATOM     18  C   UNL     1      -1.398  11.821  22.173  0.00  0.00    +0.000 A 
ATOM     19  C   UNL     1      -1.310  10.830  23.152  0.00  0.00    +0.000 A 
ATOM     20  C   UNL     1      -0.454   9.754  22.961  0.00  0.00    +0.000 A 
ATOM     21  C   UNL     1       0.339   9.683  21.807  0.00  0.00    +0.000 A 
ATOM     22  C   UNL     1       1.262   8.524  21.591  0.00  0.00    +0.000 C 
ATOM     23  C   UNL     1       0.272  10.704  20.850  0.00  0.00    +0.000 A 
ATOM     24  C   UNL     1      -0.607  11.764  21.022  0.00  0.00    +0.000 A 
ENDBRANCH   5  18
BRANCH  16  25
ATOM     25  C   UNL     1      -7.748  13.815  18.028  0.00  0.00    +0.000 C 
ATOM     26  C   UNL     1      -7.524  14.816  16.878  0.00  0.00    +0.000 C 
ATOM     27  C   UNL     1      -7.026  12.515  17.664  0.00  0.00    +0.000 C 
ENDBRANCH  16  25
BRANCH   1  29
ATOM     28  C   UNL     1      -2.053  18.409  24.475  0.00  0.00    +0.000 C 
ATOM     29  S   UNL     1      -2.282  16.892  25.527  0.00  0.00    +0.000 S 
ENDBRANCH   1  29
TORSDOF 3
ENDMDL
MODEL 6
REMARK VINA RESULT:      -5.9      8.981     11.499
REMARK  Name = 
REMARK  7 active torsions:
REMARK  status: ('A' for Active; 'I' for Inactive)
REMARK    1  A    between atoms: C_1  and  S_2
REMARK    2  A    between atoms: S_2  and  C_3
REMARK    3  A    between atoms: N_7  and  C_8
REMARK    4  A    between atoms: C_11  and  C_12
REMARK    5  A    between atoms: C_25  and  C_26
REMARK    6  A    between atoms: C_26  and  C_27
REMARK    7  A    between atoms: C_26  and  C_28
REMARK                            x       y       z     vdW  Elec       q    Type
REMARK                         _______ _______ _______ _____ _____    ______ ____
ROOT
ATOM      1  C   UNL     1       4.120  15.951  22.803  0.00  0.00    +0.000 A 
ATOM      2  N   UNL     1       3.973  15.895  24.111  0.00  0.00    +0.000 NA
ATOM      3  N   UNL     1       4.815  14.965  24.594  0.00  0.00    +0.000 NA
ATOM      4  C   UNL     1       5.525  14.519  23.586  0.00  0.00    +0.000 A 
ATOM      5  N   UNL     1       6.488  13.531  23.635  0.00  0.00    +0.000 N 
ATOM      6  C   UNL     1       7.414  13.371  22.632  0.00  0.00    +0.000 A 
ATOM      7  O   UNL     1       8.351  12.571  22.678  0.00  0.00    +0.000 OA
ATOM      8  C   UNL     1       7.192  14.182  21.442  0.00  0.00    +0.000 A 
ATOM      9  C   UNL     1       8.058  14.240  20.310  0.00  0.00    +0.000 A 
ATOM     10  C   UNL     1       7.588  15.105  19.348  0.00  0.00    +0.000 A 
ATOM     11  S   UNL     1       6.099  15.856  19.835  0.00  0.00    +0.000 S 
ATOM     12  C   UNL     1       6.113  15.048  21.322  0.00  0.00    +0.000 A 
ATOM     13  N   UNL     1       5.243  15.225  22.417  0.00  0.00    +0.000 N 
ATOM     14  C   UNL     1       8.319  15.333  18.049  0.00  0.00    +0.000 C 
ATOM     15  O   UNL     1       9.714  14.916  18.188  0.00  0.00    +0.000 OA
ATOM     16  C   UNL     1       9.883  13.570  18.701  0.00  0.00    +0.000 C 
ATOM     17  C   UNL     1       9.378  13.542  20.155  0.00  0.00    +0.000 C 
ENDROOT
BRANCH   5  18
ATOM     18  C   UNL     1       6.646  12.900  24.880  0.00  0.00    +0.000 A 
ATOM     19  C   UNL     1       7.429  13.498  25.869  0.00  0.00    +0.000 A 
ATOM     20  C   UNL     1       7.540  12.892  27.113  0.00  0.00    +0.000 A 
ATOM     21  C   UNL     1       6.896  11.672  27.360  0.00  0.00    +0.000 A 
ATOM     22  C   UNL     1       7.007  11.012  28.699  0.00  0.00    +0.000 C 
ATOM     23  C   UNL     1       6.146  11.060  26.346  0.00  0.00    +0.000 A 
ATOM     24  C   UNL     1       6.005  11.680  25.113  0.00  0.00    +0.000 A 
ENDBRANCH   5  18
BRANCH  16  25
ATOM     25  C   UNL     1      11.384  13.129  18.635  0.00  0.00    +0.000 C 
ATOM     26  C   UNL     1      12.323  14.056  19.429  0.00  0.00    +0.000 C 
ATOM     27  C   UNL     1      11.601  11.699  19.140  0.00  0.00    +0.000 C 
ENDBRANCH  16  25
BRANCH   1  29
ATOM     28  C   UNL     1       2.343  15.190  20.899  0.00  0.00    +0.000 C 
ATOM     29  S   UNL     1       2.870  16.693  21.862  0.00  0.00    +0.000 S 
ENDBRANCH   1  29
TORSDOF 3
ENDMDL
MODEL 7
REMARK VINA RESULT:      -5.8      5.334      8.488
REMARK  Name = 
REMARK  7 active torsions:
REMARK  status: ('A' for Active; 'I' for Inactive)
REMARK    1  A    between atoms: C_1  and  S_2
REMARK    2  A    between atoms: S_2  and  C_3
REMARK    3  A    between atoms: N_7  and  C_8
REMARK    4  A    between atoms: C_11  and  C_12
REMARK    5  A    between atoms: C_25  and  C_26
REMARK    6  A    between atoms: C_26  and  C_27
REMARK    7  A    between atoms: C_26  and  C_28
REMARK                            x       y       z     vdW  Elec       q    Type
REMARK                         _______ _______ _______ _____ _____    ______ ____
ROOT
ATOM      1  C   UNL     1       2.279  14.450  18.890  0.00  0.00    +0.000 A 
ATOM      2  N   UNL     1       3.020  13.608  18.200  0.00  0.00    +0.000 NA
ATOM      3  N   UNL     1       2.543  12.366  18.389  0.00  0.00    +0.000 NA
ATOM      4  C   UNL     1       1.464  12.470  19.128  0.00  0.00    +0.000 A 
ATOM      5  N   UNL     1       0.679  11.431  19.584  0.00  0.00    +0.000 N 
ATOM      6  C   UNL     1      -0.600  11.635  20.044  0.00  0.00    +0.000 A 
ATOM      7  O   UNL     1      -1.371  10.729  20.366  0.00  0.00    +0.000 OA
ATOM      8  C   UNL     1      -0.994  13.030  20.192  0.00  0.00    +0.000 A 
ATOM      9  C   UNL     1      -2.289  13.485  20.580  0.00  0.00    +0.000 A 
ATOM     10  C   UNL     1      -2.360  14.859  20.621  0.00  0.00    +0.000 A 
ATOM     11  S   UNL     1      -0.850  15.591  20.172  0.00  0.00    +0.000 S 
ATOM     12  C   UNL     1      -0.134  14.081  19.903  0.00  0.00    +0.000 A 
ATOM     13  N   UNL     1       1.138  13.806  19.360  0.00  0.00    +0.000 N 
ATOM     14  C   UNL     1      -3.621  15.584  21.015  0.00  0.00    +0.000 C 
ATOM     15  O   UNL     1      -4.771  14.693  20.866  0.00  0.00    +0.000 OA
ATOM     16  C   UNL     1      -4.623  13.417  21.538  0.00  0.00    +0.000 C 
ATOM     17  C   UNL     1      -3.497  12.632  20.839  0.00  0.00    +0.000 C 
ENDROOT
BRANCH   5  18
ATOM     18  C   UNL     1       1.148  10.140  19.283  0.00  0.00    +0.000 A 
ATOM     19  C   UNL     1       1.388   9.779  17.957  0.00  0.00    +0.000 A 
ATOM     20  C   UNL     1       1.898   8.518  17.674  0.00  0.00    +0.000 A 
ATOM     21  C   UNL     1       2.135   7.607  18.711  0.00  0.00    +0.000 A 
ATOM     22  C   UNL     1       2.687   6.248  18.415  0.00  0.00    +0.000 C 
ATOM     23  C   UNL     1       1.852   7.967  20.036  0.00  0.00    +0.000 A 
ATOM     24  C   UNL     1       1.375   9.238  20.326  0.00  0.00    +0.000 A 
ENDBRANCH   5  18
BRANCH  16  25
ATOM     25  C   UNL     1      -5.960  12.603  21.499  0.00  0.00    +0.000 C 
ATOM     26  C   UNL     1      -7.097  13.267  22.298  0.00  0.00    +0.000 C 
ATOM     27  C   UNL     1      -6.467  12.366  20.073  0.00  0.00    +0.000 C 
ENDBRANCH  16  25
BRANCH   1  29
ATOM     28  C   UNL     1       1.946  16.971  17.948  0.00  0.00    +0.000 C 
ATOM     29  S   UNL     1       2.912  16.025  19.226  0.00  0.00    +0.000 S 
ENDBRANCH   1  29
TORSDOF 3
ENDMDL
MODEL 8
REMARK VINA RESULT:      -5.7      5.362      8.462
REMARK  Name = 
REMARK  7 active torsions:
REMARK  status: ('A' for Active; 'I' for Inactive)
REMARK    1  A    between atoms: C_1  and  S_2
REMARK    2  A    between atoms: S_2  and  C_3
REMARK    3  A    between atoms: N_7  and  C_8
REMARK    4  A    between atoms: C_11  and  C_12
REMARK    5  A    between atoms: C_25  and  C_26
REMARK    6  A    between atoms: C_26  and  C_27
REMARK    7  A    between atoms: C_26  and  C_28
REMARK                            x       y       z     vdW  Elec       q    Type
REMARK                         _______ _______ _______ _____ _____    ______ ____
ROOT
ATOM      1  C   UNL     1       2.287  14.458  18.861  0.00  0.00    +0.000 A 
ATOM      2  N   UNL     1       3.046  13.608  18.200  0.00  0.00    +0.000 NA
ATOM      3  N   UNL     1       2.578  12.366  18.413  0.00  0.00    +0.000 NA
ATOM      4  C   UNL     1       1.489  12.477  19.136  0.00  0.00    +0.000 A 
ATOM      5  N   UNL     1       0.709  11.441  19.608  0.00  0.00    +0.000 N 
ATOM      6  C   UNL     1      -0.577  11.644  20.047  0.00  0.00    +0.000 A 
ATOM      7  O   UNL     1      -1.344  10.738  20.382  0.00  0.00    +0.000 OA
ATOM      8  C   UNL     1      -0.987  13.038  20.157  0.00  0.00    +0.000 A 
ATOM      9  C   UNL     1      -2.291  13.489  20.518  0.00  0.00    +0.000 A 
ATOM     10  C   UNL     1      -2.376  14.862  20.526  0.00  0.00    +0.000 A 
ATOM     11  S   UNL     1      -0.867  15.599  20.077  0.00  0.00    +0.000 S 
ATOM     12  C   UNL     1      -0.134  14.091  19.853  0.00  0.00    +0.000 A 
ATOM     13  N   UNL     1       1.148  13.815  19.333  0.00  0.00    +0.000 N 
ATOM     14  C   UNL     1      -3.649  15.585  20.887  0.00  0.00    +0.000 C 
ATOM     15  O   UNL     1      -4.788  14.679  20.746  0.00  0.00    +0.000 OA
ATOM     16  C   UNL     1      -4.635  13.420  21.449  0.00  0.00    +0.000 C 
ATOM     17  C   UNL     1      -3.494  12.631  20.783  0.00  0.00    +0.000 C 
ENDROOT
BRANCH   5  18
ATOM     18  C   UNL     1       1.193  10.149  19.343  0.00  0.00    +0.000 A 
ATOM     19  C   UNL     1       1.402   9.256  20.395  0.00  0.00    +0.000 A 
ATOM     20  C   UNL     1       1.833   7.965  20.120  0.00  0.00    +0.000 A 
ATOM     21  C   UNL     1       2.089   7.576  18.798  0.00  0.00    +0.000 A 
ATOM     22  C   UNL     1       2.552   6.186  18.492  0.00  0.00    +0.000 C 
ATOM     23  C   UNL     1       1.915   8.495  17.754  0.00  0.00    +0.000 A 
ATOM     24  C   UNL     1       1.451   9.775  18.021  0.00  0.00    +0.000 A 
ENDBRANCH   5  18
BRANCH  16  25
ATOM     25  C   UNL     1      -5.964  12.593  21.414  0.00  0.00    +0.000 C 
ATOM     26  C   UNL     1      -7.215  13.442  21.707  0.00  0.00    +0.000 C 
ATOM     27  C   UNL     1      -6.183  11.883  20.075  0.00  0.00    +0.000 C 
ENDBRANCH  16  25
BRANCH   1  29
ATOM     28  C   UNL     1       4.488  15.903  18.206  0.00  0.00    +0.000 C 
ATOM     29  S   UNL     1       2.901  16.048  19.167  0.00  0.00    +0.000 S 
ENDBRANCH   1  29
TORSDOF 3
ENDMDL
MODEL 9
REMARK VINA RESULT:      -5.7      7.870     10.241
REMARK  Name = 
REMARK  7 active torsions:
REMARK  status: ('A' for Active; 'I' for Inactive)
REMARK    1  A    between atoms: C_1  and  S_2
REMARK    2  A    between atoms: S_2  and  C_3
REMARK    3  A    between atoms: N_7  and  C_8
REMARK    4  A    between atoms: C_11  and  C_12
REMARK    5  A    between atoms: C_25  and  C_26
REMARK    6  A    between atoms: C_26  and  C_27
REMARK    7  A    between atoms: C_26  and  C_28
REMARK                            x       y       z     vdW  Elec       q    Type
REMARK                         _______ _______ _______ _____ _____    ______ ____
ROOT
ATOM      1  C   UNL     1      -2.039  10.566  17.729  0.00  0.00    +0.000 A 
ATOM      2  N   UNL     1      -0.731  10.557  17.879  0.00  0.00    +0.000 NA
ATOM      3  N   UNL     1      -0.381  11.605  18.643  0.00  0.00    +0.000 NA
ATOM      4  C   UNL     1      -1.488  12.200  19.020  0.00  0.00    +0.000 A 
ATOM      5  N   UNL     1      -1.584  13.340  19.792  0.00  0.00    +0.000 N 
ATOM      6  C   UNL     1      -2.753  13.691  20.425  0.00  0.00    +0.000 A 
ATOM      7  O   UNL     1      -2.859  14.642  21.202  0.00  0.00    +0.000 OA
ATOM      8  C   UNL     1      -3.918  12.889  20.074  0.00  0.00    +0.000 A 
ATOM      9  C   UNL     1      -5.214  13.018  20.654  0.00  0.00    +0.000 A 
ATOM     10  C   UNL     1      -6.106  12.114  20.127  0.00  0.00    +0.000 A 
ATOM     11  S   UNL     1      -5.356  11.097  18.934  0.00  0.00    +0.000 S 
ATOM     12  C   UNL     1      -3.856  11.850  19.154  0.00  0.00    +0.000 A 
ATOM     13  N   UNL     1      -2.611  11.490  18.598  0.00  0.00    +0.000 N 
ATOM     14  C   UNL     1      -7.546  12.057  20.569  0.00  0.00    +0.000 C 
ATOM     15  O   UNL     1      -7.690  12.709  21.870  0.00  0.00    +0.000 OA
ATOM     16  C   UNL     1      -7.135  14.048  21.927  0.00  0.00    +0.000 C 
ATOM     17  C   UNL     1      -5.607  13.943  21.770  0.00  0.00    +0.000 C 
ENDROOT
BRANCH   5  18
ATOM     18  C   UNL     1      -0.363  13.951  20.125  0.00  0.00    +0.000 A 
ATOM     19  C   UNL     1       0.321  13.559  21.276  0.00  0.00    +0.000 A 
ATOM     20  C   UNL     1       1.550  14.134  21.570  0.00  0.00    +0.000 A 
ATOM     21  C   UNL     1       2.081  15.124  20.733  0.00  0.00    +0.000 A 
ATOM     22  C   UNL     1       3.407  15.747  21.041  0.00  0.00    +0.000 C 
ATOM     23  C   UNL     1       1.366  15.539  19.601  0.00  0.00    +0.000 A 
ATOM     24  C   UNL     1       0.153  14.943  19.286  0.00  0.00    +0.000 A 
ENDBRANCH   5  18
BRANCH  16  25
ATOM     25  C   UNL     1      -7.498  14.749  23.279  0.00  0.00    +0.000 C 
ATOM     26  C   UNL     1      -7.910  13.758  24.384  0.00  0.00    +0.000 C 
ATOM     27  C   UNL     1      -6.354  15.609  23.825  0.00  0.00    +0.000 C 
ENDBRANCH  16  25
BRANCH   1  29
ATOM     28  C   UNL     1      -3.339  11.065  15.401  0.00  0.00    +0.000 C 
ATOM     29  S   UNL     1      -2.731   9.644  16.438  0.00  0.00    +0.000 S 
ENDBRANCH   1  29
TORSDOF 3
ENDMDL
