MODEL 1
REMARK VINA RESULT:      -9.0      0.000      0.000
REMARK  Name = 
REMARK  4 active torsions:
REMARK  status: ('A' for Active; 'I' for Inactive)
REMARK    1  A    between atoms: C_5  and  C_6
REMARK    2  A    between atoms: C_6  and  C_7
REMARK    3  A    between atoms: C_10  and  C_11
REMARK    4  A    between atoms: C_11  and  C_12
REMARK                            x       y       z     vdW  Elec       q    Type
REMARK                         _______ _______ _______ _____ _____    ______ ____
ROOT
ATOM      1  C   UNL     1       7.960   8.242  17.798  0.00  0.00    +0.000 A 
ATOM      2  N   UNL     1       8.426   7.572  18.858  0.00  0.00    +0.000 NA
ATOM      3  S   UNL     1       7.794   6.029  18.766  0.00  0.00    +0.000 S 
ATOM      4  C   UNL     1       6.888   6.368  17.347  0.00  0.00    +0.000 A 
ATOM      5  N   UNL     1       7.071   7.604  16.928  0.00  0.00    +0.000 NA
ENDROOT
BRANCH   1   6
ATOM      6  C   UNL     1       8.245   9.701  17.617  0.00  0.00    +0.000 C 
BRANCH   6  11
ATOM      7  C   UNL     1      12.333  12.974  18.994  0.00  0.00    +0.000 A 
ATOM      8  C   UNL     1      11.924  12.671  17.698  0.00  0.00    +0.000 A 
ATOM      9  C   UNL     1      10.844  11.808  17.471  0.00  0.00    +0.000 A 
ATOM     10  C   UNL     1      10.168  11.234  18.568  0.00  0.00    +0.000 A 
ATOM     11  C   UNL     1       9.065  10.324  18.706  0.00  0.00    +0.000 A 
ATOM     12  C   UNL     1       8.857  10.160  20.066  0.00  0.00    +0.000 A 
ATOM     13  N   UNL     1       9.784  10.904  20.740  0.00  0.00    +0.000 N 
ATOM     14  C   UNL     1      10.598  11.568  19.855  0.00  0.00    +0.000 A 
ATOM     15  C   UNL     1      11.673  12.431  20.099  0.00  0.00    +0.000 A 
ATOM     16  H   UNL     1       9.861  10.968  21.745  0.00  0.00    +0.000 HD
ENDBRANCH   6  11
ENDBRANCH   1   6
BRANCH   4  17
ATOM     17  C   UNL     1       5.922   5.383  16.777  0.00  0.00    +0.000 C 
BRANCH  17  18
ATOM     18  C   UNL     1       4.556   5.443  17.386  0.00  0.00    +0.000 A 
ATOM     19  C   UNL     1       3.842   6.582  17.706  0.00  0.00    +0.000 A 
ATOM     20  N   UNL     1       2.609   6.202  18.167  0.00  0.00    +0.000 N 
ATOM     21  C   UNL     1       2.493   4.831  18.142  0.00  0.00    +0.000 A 
ATOM     22  C   UNL     1       1.410   4.012  18.484  0.00  0.00    +0.000 A 
ATOM     23  C   UNL     1       1.578   2.630  18.356  0.00  0.00    +0.000 A 
ATOM     24  C   UNL     1       2.784   2.092  17.915  0.00  0.00    +0.000 A 
ATOM     25  C   UNL     1       3.856   2.926  17.578  0.00  0.00    +0.000 A 
ATOM     26  C   UNL     1       3.708   4.325  17.683  0.00  0.00    +0.000 A 
ATOM     27  H   UNL     1       1.877   6.830  18.465  0.00  0.00    +0.000 HD
ENDBRANCH  17  18
ENDBRANCH   4  17
TORSDOF 4
ENDMDL
MODEL 2
REMARK VINA RESULT:      -8.9      5.552      7.602
REMARK  Name = 
REMARK  4 active torsions:
REMARK  status: ('A' for Active; 'I' for Inactive)
REMARK    1  A    between atoms: C_5  and  C_6
REMARK    2  A    between atoms: C_6  and  C_7
REMARK    3  A    between atoms: C_10  and  C_11
REMARK    4  A    between atoms: C_11  and  C_12
REMARK                            x       y       z     vdW  Elec       q    Type
REMARK                         _______ _______ _______ _____ _____    ______ ____
ROOT
ATOM      1  C   UNL     1       3.713   3.846  17.110  0.00  0.00    +0.000 A 
ATOM      2  N   UNL     1       2.444   3.448  16.972  0.00  0.00    +0.000 NA
ATOM      3  S   UNL     1       1.520   4.443  17.943  0.00  0.00    +0.000 S 
ATOM      4  C   UNL     1       2.881   5.308  18.536  0.00  0.00    +0.000 A 
ATOM      5  N   UNL     1       4.008   4.882  18.001  0.00  0.00    +0.000 NA
ENDROOT
BRANCH   1   6
ATOM      6  C   UNL     1       4.834   3.100  16.454  0.00  0.00    +0.000 C 
BRANCH   6  11
ATOM      7  C   UNL     1       7.355   4.565  11.891  0.00  0.00    +0.000 A 
ATOM      8  C   UNL     1       6.365   3.593  12.008  0.00  0.00    +0.000 A 
ATOM      9  C   UNL     1       5.785   3.307  13.250  0.00  0.00    +0.000 A 
ATOM     10  C   UNL     1       6.214   4.006  14.397  0.00  0.00    +0.000 A 
ATOM     11  C   UNL     1       5.864   3.964  15.790  0.00  0.00    +0.000 A 
ATOM     12  C   UNL     1       6.635   4.928  16.419  0.00  0.00    +0.000 A 
ATOM     13  N   UNL     1       7.432   5.525  15.484  0.00  0.00    +0.000 N 
ATOM     14  C   UNL     1       7.201   4.982  14.243  0.00  0.00    +0.000 A 
ATOM     15  C   UNL     1       7.789   5.283  13.008  0.00  0.00    +0.000 A 
ATOM     16  H   UNL     1       8.095   6.263  15.669  0.00  0.00    +0.000 HD
ENDBRANCH   6  11
ENDBRANCH   1   6
BRANCH   4  17
ATOM     17  C   UNL     1       2.755   6.319  19.627  0.00  0.00    +0.000 C 
BRANCH  17  18
ATOM     18  C   UNL     1       2.207   7.637  19.179  0.00  0.00    +0.000 A 
ATOM     19  C   UNL     1       2.329   8.202  17.924  0.00  0.00    +0.000 A 
ATOM     20  N   UNL     1       1.619   9.374  17.906  0.00  0.00    +0.000 N 
ATOM     21  C   UNL     1       1.017   9.583  19.126  0.00  0.00    +0.000 A 
ATOM     22  C   UNL     1       0.176  10.619  19.549  0.00  0.00    +0.000 A 
ATOM     23  C   UNL     1      -0.296  10.573  20.864  0.00  0.00    +0.000 A 
ATOM     24  C   UNL     1       0.070   9.539  21.722  0.00  0.00    +0.000 A 
ATOM     25  C   UNL     1       0.912   8.512  21.282  0.00  0.00    +0.000 A 
ATOM     26  C   UNL     1       1.390   8.526  19.954  0.00  0.00    +0.000 A 
ATOM     27  H   UNL     1       1.527   9.990  17.113  0.00  0.00    +0.000 HD
ENDBRANCH  17  18
ENDBRANCH   4  17
TORSDOF 4
ENDMDL
MODEL 3
REMARK VINA RESULT:      -8.8      4.876      7.609
REMARK  Name = 
REMARK  4 active torsions:
REMARK  status: ('A' for Active; 'I' for Inactive)
REMARK    1  A    between atoms: C_5  and  C_6
REMARK    2  A    between atoms: C_6  and  C_7
REMARK    3  A    between atoms: C_10  and  C_11
REMARK    4  A    between atoms: C_11  and  C_12
REMARK                            x       y       z     vdW  Elec       q    Type
REMARK                         _______ _______ _______ _____ _____    ______ ____
ROOT
ATOM      1  C   UNL     1       2.138   6.598  18.702  0.00  0.00    +0.000 A 
ATOM      2  N   UNL     1       2.029   6.707  20.030  0.00  0.00    +0.000 NA
ATOM      3  S   UNL     1       1.622   8.295  20.349  0.00  0.00    +0.000 S 
ATOM      4  C   UNL     1       1.673   8.753  18.694  0.00  0.00    +0.000 A 
ATOM      5  N   UNL     1       1.964   7.735  17.909  0.00  0.00    +0.000 NA
ENDROOT
BRANCH   1   6
ATOM      6  C   UNL     1       2.597   5.322  18.065  0.00  0.00    +0.000 C 
BRANCH   6  11
ATOM      7  C   UNL     1       7.839   6.662  17.858  0.00  0.00    +0.000 A 
ATOM      8  C   UNL     1       6.775   7.429  17.391  0.00  0.00    +0.000 A 
ATOM      9  C   UNL     1       5.457   6.972  17.506  0.00  0.00    +0.000 A 
ATOM     10  C   UNL     1       5.204   5.715  18.095  0.00  0.00    +0.000 A 
ATOM     11  C   UNL     1       4.019   4.947  18.356  0.00  0.00    +0.000 A 
ATOM     12  C   UNL     1       4.433   3.786  18.988  0.00  0.00    +0.000 A 
ATOM     13  N   UNL     1       5.794   3.814  19.100  0.00  0.00    +0.000 N 
ATOM     14  C   UNL     1       6.293   4.976  18.563  0.00  0.00    +0.000 A 
ATOM     15  C   UNL     1       7.617   5.420  18.459  0.00  0.00    +0.000 A 
ATOM     16  H   UNL     1       6.359   3.092  19.522  0.00  0.00    +0.000 HD
ENDBRANCH   6  11
ENDBRANCH   1   6
BRANCH   4  17
ATOM     17  C   UNL     1       1.530  10.177  18.268  0.00  0.00    +0.000 C 
BRANCH  17  18
ATOM     18  C   UNL     1       0.286  10.843  18.765  0.00  0.00    +0.000 A 
ATOM     19  C   UNL     1       0.200  11.803  19.755  0.00  0.00    +0.000 A 
ATOM     20  N   UNL     1      -1.106  12.207  19.852  0.00  0.00    +0.000 N 
ATOM     21  C   UNL     1      -1.880  11.538  18.932  0.00  0.00    +0.000 A 
ATOM     22  C   UNL     1      -3.246  11.654  18.650  0.00  0.00    +0.000 A 
ATOM     23  C   UNL     1      -3.772  10.837  17.645  0.00  0.00    +0.000 A 
ATOM     24  C   UNL     1      -2.964   9.934  16.960  0.00  0.00    +0.000 A 
ATOM     25  C   UNL     1      -1.599   9.831  17.254  0.00  0.00    +0.000 A 
ATOM     26  C   UNL     1      -1.041  10.656  18.254  0.00  0.00    +0.000 A 
ATOM     27  H   UNL     1      -1.456  12.907  20.489  0.00  0.00    +0.000 HD
ENDBRANCH  17  18
ENDBRANCH   4  17
TORSDOF 4
ENDMDL
MODEL 4
REMARK VINA RESULT:      -8.8      5.620      8.559
REMARK  Name = 
REMARK  4 active torsions:
REMARK  status: ('A' for Active; 'I' for Inactive)
REMARK    1  A    between atoms: C_5  and  C_6
REMARK    2  A    between atoms: C_6  and  C_7
REMARK    3  A    between atoms: C_10  and  C_11
REMARK    4  A    between atoms: C_11  and  C_12
REMARK                            x       y       z     vdW  Elec       q    Type
REMARK                         _______ _______ _______ _____ _____    ______ ____
ROOT
ATOM      1  C   UNL     1       1.828   8.759  18.804  0.00  0.00    +0.000 A 
ATOM      2  N   UNL     1       1.502   8.541  20.083  0.00  0.00    +0.000 NA
ATOM      3  S   UNL     1       1.817   6.930  20.390  0.00  0.00    +0.000 S 
ATOM      4  C   UNL     1       2.315   6.608  18.778  0.00  0.00    +0.000 A 
ATOM      5  N   UNL     1       2.274   7.688  18.024  0.00  0.00    +0.000 NA
ENDROOT
BRANCH   1   6
ATOM      6  C   UNL     1       1.575  10.085  18.155  0.00  0.00    +0.000 C 
BRANCH   6  11
ATOM      7  C   UNL     1      -3.784  10.768  17.795  0.00  0.00    +0.000 A 
ATOM      8  C   UNL     1      -3.015   9.892  17.034  0.00  0.00    +0.000 A 
ATOM      9  C   UNL     1      -1.630   9.804  17.225  0.00  0.00    +0.000 A 
ATOM     10  C   UNL     1      -1.007  10.618  18.195  0.00  0.00    +0.000 A 
ATOM     11  C   UNL     1       0.348  10.799  18.637  0.00  0.00    +0.000 A 
ATOM     12  C   UNL     1       0.309  11.741  19.651  0.00  0.00    +0.000 A 
ATOM     13  N   UNL     1      -0.985  12.142  19.822  0.00  0.00    +0.000 N 
ATOM     14  C   UNL     1      -1.811  11.477  18.948  0.00  0.00    +0.000 A 
ATOM     15  C   UNL     1      -3.196  11.575  18.772  0.00  0.00    +0.000 A 
ATOM     16  H   UNL     1      -1.300  12.824  20.497  0.00  0.00    +0.000 HD
ENDBRANCH   6  11
ENDBRANCH   1   6
BRANCH   4  17
ATOM     17  C   UNL     1       2.618   5.223  18.311  0.00  0.00    +0.000 C 
BRANCH  17  18
ATOM     18  C   UNL     1       4.075   4.882  18.312  0.00  0.00    +0.000 A 
ATOM     19  C   UNL     1       4.795   4.327  19.353  0.00  0.00    +0.000 A 
ATOM     20  N   UNL     1       6.075   4.101  18.920  0.00  0.00    +0.000 N 
ATOM     21  C   UNL     1       6.207   4.484  17.605  0.00  0.00    +0.000 A 
ATOM     22  C   UNL     1       7.313   4.404  16.750  0.00  0.00    +0.000 A 
ATOM     23  C   UNL     1       7.156   4.876  15.443  0.00  0.00    +0.000 A 
ATOM     24  C   UNL     1       5.945   5.415  15.016  0.00  0.00    +0.000 A 
ATOM     25  C   UNL     1       4.850   5.487  15.884  0.00  0.00    +0.000 A 
ATOM     26  C   UNL     1       4.977   5.004  17.204  0.00  0.00    +0.000 A 
ATOM     27  H   UNL     1       6.816   3.693  19.471  0.00  0.00    +0.000 HD
ENDBRANCH  17  18
ENDBRANCH   4  17
TORSDOF 4
ENDMDL
MODEL 5
REMARK VINA RESULT:      -8.7      5.501      9.066
REMARK  Name = 
REMARK  4 active torsions:
REMARK  status: ('A' for Active; 'I' for Inactive)
REMARK    1  A    between atoms: C_5  and  C_6
REMARK    2  A    between atoms: C_6  and  C_7
REMARK    3  A    between atoms: C_10  and  C_11
REMARK    4  A    between atoms: C_11  and  C_12
REMARK                            x       y       z     vdW  Elec       q    Type
REMARK                         _______ _______ _______ _____ _____    ______ ____
ROOT
ATOM      1  C   UNL     1       2.118   8.033  18.947  0.00  0.00    +0.000 A 
ATOM      2  N   UNL     1       2.176   7.421  20.135  0.00  0.00    +0.000 NA
ATOM      3  S   UNL     1       1.216   8.304  21.177  0.00  0.00    +0.000 S 
ATOM      4  C   UNL     1       0.828   9.485  19.992  0.00  0.00    +0.000 A 
ATOM      5  N   UNL     1       1.382   9.215  18.827  0.00  0.00    +0.000 NA
ENDROOT
BRANCH   1   6
ATOM      6  C   UNL     1       2.950   7.565  17.793  0.00  0.00    +0.000 C 
BRANCH   6  11
ATOM      7  C   UNL     1       2.402   2.198  18.257  0.00  0.00    +0.000 A 
ATOM      8  C   UNL     1       1.370   3.118  18.085  0.00  0.00    +0.000 A 
ATOM      9  C   UNL     1       1.643   4.487  17.973  0.00  0.00    +0.000 A 
ATOM     10  C   UNL     1       2.977   4.940  18.045  0.00  0.00    +0.000 A 
ATOM     11  C   UNL     1       3.606   6.231  17.987  0.00  0.00    +0.000 A 
ATOM     12  C   UNL     1       4.969   6.011  18.095  0.00  0.00    +0.000 A 
ATOM     13  N   UNL     1       5.182   4.668  18.232  0.00  0.00    +0.000 N 
ATOM     14  C   UNL     1       3.988   3.990  18.207  0.00  0.00    +0.000 A 
ATOM     15  C   UNL     1       3.733   2.618  18.317  0.00  0.00    +0.000 A 
ATOM     16  H   UNL     1       6.086   4.229  18.331  0.00  0.00    +0.000 HD
ENDBRANCH   6  11
ENDBRANCH   1   6
BRANCH   4  17
ATOM     17  C   UNL     1       0.060  10.719  20.334  0.00  0.00    +0.000 C 
BRANCH  17  18
ATOM     18  C   UNL     1      -0.568  11.394  19.156  0.00  0.00    +0.000 A 
ATOM     19  C   UNL     1      -0.211  12.614  18.613  0.00  0.00    +0.000 A 
ATOM     20  N   UNL     1      -0.980  12.833  17.500  0.00  0.00    +0.000 N 
ATOM     21  C   UNL     1      -1.828  11.770  17.292  0.00  0.00    +0.000 A 
ATOM     22  C   UNL     1      -2.757  11.546  16.269  0.00  0.00    +0.000 A 
ATOM     23  C   UNL     1      -3.493  10.358  16.311  0.00  0.00    +0.000 A 
ATOM     24  C   UNL     1      -3.314   9.440  17.343  0.00  0.00    +0.000 A 
ATOM     25  C   UNL     1      -2.381   9.681  18.358  0.00  0.00    +0.000 A 
ATOM     26  C   UNL     1      -1.614  10.865  18.330  0.00  0.00    +0.000 A 
ATOM     27  H   UNL     1      -0.925  13.643  16.901  0.00  0.00    +0.000 HD
ENDBRANCH  17  18
ENDBRANCH   4  17
TORSDOF 4
ENDMDL
MODEL 6
REMARK VINA RESULT:      -8.7      5.790      9.234
REMARK  Name = 
REMARK  4 active torsions:
REMARK  status: ('A' for Active; 'I' for Inactive)
REMARK    1  A    between atoms: C_5  and  C_6
REMARK    2  A    between atoms: C_6  and  C_7
REMARK    3  A    between atoms: C_10  and  C_11
REMARK    4  A    between atoms: C_11  and  C_12
REMARK                            x       y       z     vdW  Elec       q    Type
REMARK                         _______ _______ _______ _____ _____    ______ ____
ROOT
ATOM      1  C   UNL     1       2.295   8.082  18.308  0.00  0.00    +0.000 A 
ATOM      2  N   UNL     1       1.966   7.839  19.582  0.00  0.00    +0.000 NA
ATOM      3  S   UNL     1       1.183   9.204  20.142  0.00  0.00    +0.000 S 
ATOM      4  C   UNL     1       1.385  10.058  18.666  0.00  0.00    +0.000 A 
ATOM      5  N   UNL     1       2.003   9.331  17.756  0.00  0.00    +0.000 NA
ENDROOT
BRANCH   1   6
ATOM      6  C   UNL     1       3.109   7.102  17.519  0.00  0.00    +0.000 C 
BRANCH   6  11
ATOM      7  C   UNL     1       1.896   2.101  19.205  0.00  0.00    +0.000 A 
ATOM      8  C   UNL     1       1.073   2.938  18.456  0.00  0.00    +0.000 A 
ATOM      9  C   UNL     1       1.505   4.215  18.076  0.00  0.00    +0.000 A 
ATOM     10  C   UNL     1       2.786   4.662  18.465  0.00  0.00    +0.000 A 
ATOM     11  C   UNL     1       3.528   5.877  18.274  0.00  0.00    +0.000 A 
ATOM     12  C   UNL     1       4.756   5.689  18.888  0.00  0.00    +0.000 A 
ATOM     13  N   UNL     1       4.776   4.442  19.445  0.00  0.00    +0.000 N 
ATOM     14  C   UNL     1       3.589   3.793  19.207  0.00  0.00    +0.000 A 
ATOM     15  C   UNL     1       3.174   2.512  19.591  0.00  0.00    +0.000 A 
ATOM     16  H   UNL     1       5.552   4.044  19.955  0.00  0.00    +0.000 HD
ENDBRANCH   6  11
ENDBRANCH   1   6
BRANCH   4  17
ATOM     17  C   UNL     1       1.005  11.495  18.531  0.00  0.00    +0.000 C 
BRANCH  17  18
ATOM     18  C   UNL     1      -0.439  11.775  18.806  0.00  0.00    +0.000 A 
ATOM     19  C   UNL     1      -0.948  12.720  19.676  0.00  0.00    +0.000 A 
ATOM     20  N   UNL     1      -2.315  12.708  19.575  0.00  0.00    +0.000 N 
ATOM     21  C   UNL     1      -2.714  11.781  18.641  0.00  0.00    +0.000 A 
ATOM     22  C   UNL     1      -3.998  11.454  18.188  0.00  0.00    +0.000 A 
ATOM     23  C   UNL     1      -4.106  10.456  17.215  0.00  0.00    +0.000 A 
ATOM     24  C   UNL     1      -2.977   9.805  16.726  0.00  0.00    +0.000 A 
ATOM     25  C   UNL     1      -1.701  10.144  17.191  0.00  0.00    +0.000 A 
ATOM     26  C   UNL     1      -1.562  11.159  18.161  0.00  0.00    +0.000 A 
ATOM     27  H   UNL     1      -2.944  13.304  20.092  0.00  0.00    +0.000 HD
ENDBRANCH  17  18
ENDBRANCH   4  17
TORSDOF 4
ENDMDL
MODEL 7
REMARK VINA RESULT:      -8.6      3.992      7.806
REMARK  Name = 
REMARK  4 active torsions:
REMARK  status: ('A' for Active; 'I' for Inactive)
REMARK    1  A    between atoms: C_5  and  C_6
REMARK    2  A    between atoms: C_6  and  C_7
REMARK    3  A    between atoms: C_10  and  C_11
REMARK    4  A    between atoms: C_11  and  C_12
REMARK                            x       y       z     vdW  Elec       q    Type
REMARK                         _______ _______ _______ _____ _____    ______ ____
ROOT
ATOM      1  C   UNL     1       2.118   4.821  19.837  0.00  0.00    +0.000 A 
ATOM      2  N   UNL     1       1.138   4.019  19.406  0.00  0.00    +0.000 NA
ATOM      3  S   UNL     1       1.790   3.077  18.190  0.00  0.00    +0.000 S 
ATOM      4  C   UNL     1       3.326   3.840  18.274  0.00  0.00    +0.000 A 
ATOM      5  N   UNL     1       3.367   4.766  19.211  0.00  0.00    +0.000 NA
ENDROOT
BRANCH   1   6
ATOM      6  C   UNL     1       1.857   5.879  20.864  0.00  0.00    +0.000 C 
BRANCH   6  11
ATOM      7  C   UNL     1      -0.290  10.805  21.537  0.00  0.00    +0.000 A 
ATOM      8  C   UNL     1      -0.365   9.745  22.437  0.00  0.00    +0.000 A 
ATOM      9  C   UNL     1       0.238   8.515  22.148  0.00  0.00    +0.000 A 
ATOM     10  C   UNL     1       0.923   8.345  20.926  0.00  0.00    +0.000 A 
ATOM     11  C   UNL     1       1.624   7.253  20.310  0.00  0.00    +0.000 A 
ATOM     12  C   UNL     1       2.103   7.725  19.099  0.00  0.00    +0.000 A 
ATOM     13  N   UNL     1       1.711   9.026  18.955  0.00  0.00    +0.000 N 
ATOM     14  C   UNL     1       0.989   9.431  20.051  0.00  0.00    +0.000 A 
ATOM     15  C   UNL     1       0.395  10.669  20.326  0.00  0.00    +0.000 A 
ATOM     16  H   UNL     1       1.924   9.615  18.163  0.00  0.00    +0.000 HD
ENDBRANCH   6  11
ENDBRANCH   1   6
BRANCH   4  17
ATOM     17  C   UNL     1       4.407   3.542  17.289  0.00  0.00    +0.000 C 
BRANCH  17  18
ATOM     18  C   UNL     1       5.196   4.740  16.864  0.00  0.00    +0.000 A 
ATOM     19  C   UNL     1       5.018   5.484  15.713  0.00  0.00    +0.000 A 
ATOM     20  N   UNL     1       5.892   6.539  15.742  0.00  0.00    +0.000 N 
ATOM     21  C   UNL     1       6.633   6.511  16.901  0.00  0.00    +0.000 A 
ATOM     22  C   UNL     1       7.610   7.400  17.367  0.00  0.00    +0.000 A 
ATOM     23  C   UNL     1       8.206   7.118  18.600  0.00  0.00    +0.000 A 
ATOM     24  C   UNL     1       7.846   5.987  19.328  0.00  0.00    +0.000 A 
ATOM     25  C   UNL     1       6.868   5.109  18.847  0.00  0.00    +0.000 A 
ATOM     26  C   UNL     1       6.240   5.379  17.612  0.00  0.00    +0.000 A 
ATOM     27  H   UNL     1       5.973   7.251  15.031  0.00  0.00    +0.000 HD
ENDBRANCH  17  18
ENDBRANCH   4  17
TORSDOF 4
ENDMDL
MODEL 8
REMARK VINA RESULT:      -8.6      5.800      9.520
REMARK  Name = 
REMARK  4 active torsions:
REMARK  status: ('A' for Active; 'I' for Inactive)
REMARK    1  A    between atoms: C_5  and  C_6
REMARK    2  A    between atoms: C_6  and  C_7
REMARK    3  A    between atoms: C_10  and  C_11
REMARK    4  A    between atoms: C_11  and  C_12
REMARK                            x       y       z     vdW  Elec       q    Type
REMARK                         _______ _______ _______ _____ _____    ______ ____
ROOT
ATOM      1  C   UNL     1       2.307   7.896  18.606  0.00  0.00    +0.000 A 
ATOM      2  N   UNL     1       2.122   7.644  19.906  0.00  0.00    +0.000 NA
ATOM      3  S   UNL     1       1.060   8.802  20.472  0.00  0.00    +0.000 S 
ATOM      4  C   UNL     1       0.959   9.605  18.957  0.00  0.00    +0.000 A 
ATOM      5  N   UNL     1       1.684   9.007  18.032  0.00  0.00    +0.000 NA
ENDROOT
BRANCH   1   6
ATOM      6  C   UNL     1       3.290   7.106  17.797  0.00  0.00    +0.000 C 
BRANCH   6  11
ATOM      7  C   UNL     1       1.925   2.022  19.067  0.00  0.00    +0.000 A 
ATOM      8  C   UNL     1       1.101   2.968  18.462  0.00  0.00    +0.000 A 
ATOM      9  C   UNL     1       1.575   4.255  18.180  0.00  0.00    +0.000 A 
ATOM     10  C   UNL     1       2.900   4.600  18.520  0.00  0.00    +0.000 A 
ATOM     11  C   UNL     1       3.692   5.793  18.398  0.00  0.00    +0.000 A 
ATOM     12  C   UNL     1       4.945   5.487  18.903  0.00  0.00    +0.000 A 
ATOM     13  N   UNL     1       4.935   4.191  19.333  0.00  0.00    +0.000 N 
ATOM     14  C   UNL     1       3.702   3.625  19.116  0.00  0.00    +0.000 A 
ATOM     15  C   UNL     1       3.245   2.332  19.401  0.00  0.00    +0.000 A 
ATOM     16  H   UNL     1       5.719   3.708  19.747  0.00  0.00    +0.000 HD
ENDBRANCH   6  11
ENDBRANCH   1   6
BRANCH   4  17
ATOM     17  C   UNL     1       0.229  10.898  18.800  0.00  0.00    +0.000 C 
BRANCH  17  18
ATOM     18  C   UNL     1      -1.159  10.755  18.262  0.00  0.00    +0.000 A 
ATOM     19  C   UNL     1      -1.569   9.921  17.239  0.00  0.00    +0.000 A 
ATOM     20  N   UNL     1      -2.929  10.035  17.108  0.00  0.00    +0.000 N 
ATOM     21  C   UNL     1      -3.424  10.919  18.038  0.00  0.00    +0.000 A 
ATOM     22  C   UNL     1      -4.742  11.313  18.294  0.00  0.00    +0.000 A 
ATOM     23  C   UNL     1      -4.954  12.242  19.317  0.00  0.00    +0.000 A 
ATOM     24  C   UNL     1      -3.887  12.763  20.045  0.00  0.00    +0.000 A 
ATOM     25  C   UNL     1      -2.574  12.358  19.775  0.00  0.00    +0.000 A 
ATOM     26  C   UNL     1      -2.335  11.410  18.758  0.00  0.00    +0.000 A 
ATOM     27  H   UNL     1      -3.496   9.531  16.443  0.00  0.00    +0.000 HD
ENDBRANCH  17  18
ENDBRANCH   4  17
TORSDOF 4
ENDMDL
MODEL 9
REMARK VINA RESULT:      -8.5      6.442      9.767
REMARK  Name = 
REMARK  4 active torsions:
REMARK  status: ('A' for Active; 'I' for Inactive)
REMARK    1  A    between atoms: C_5  and  C_6
REMARK    2  A    between atoms: C_6  and  C_7
REMARK    3  A    between atoms: C_10  and  C_11
REMARK    4  A    between atoms: C_11  and  C_12
REMARK                            x       y       z     vdW  Elec       q    Type
REMARK                         _______ _______ _______ _____ _____    ______ ____
ROOT
ATOM      1  C   UNL     1       2.049   8.004  19.202  0.00  0.00    +0.000 A 
ATOM      2  N   UNL     1       1.628   7.991  20.472  0.00  0.00    +0.000 NA
ATOM      3  S   UNL     1       0.785   9.412  20.712  0.00  0.00    +0.000 S 
ATOM      4  C   UNL     1       1.085   9.985  19.121  0.00  0.00    +0.000 A 
ATOM      5  N   UNL     1       1.781   9.122  18.408  0.00  0.00    +0.000 NA
ENDROOT
BRANCH   1   6
ATOM      6  C   UNL     1       2.934   6.919  18.669  0.00  0.00    +0.000 C 
BRANCH   6  11
ATOM      7  C   UNL     1       1.520   2.415  21.320  0.00  0.00    +0.000 A 
ATOM      8  C   UNL     1       2.169   3.519  21.865  0.00  0.00    +0.000 A 
ATOM      9  C   UNL     1       2.479   4.631  21.072  0.00  0.00    +0.000 A 
ATOM     10  C   UNL     1       2.135   4.629  19.703  0.00  0.00    +0.000 A 
ATOM     11  C   UNL     1       2.306   5.558  18.622  0.00  0.00    +0.000 A 
ATOM     12  C   UNL     1       1.726   4.977  17.506  0.00  0.00    +0.000 A 
ATOM     13  N   UNL     1       1.238   3.751  17.861  0.00  0.00    +0.000 N 
ATOM     14  C   UNL     1       1.475   3.509  19.192  0.00  0.00    +0.000 A 
ATOM     15  C   UNL     1       1.155   2.391  19.972  0.00  0.00    +0.000 A 
ATOM     16  H   UNL     1       0.765   3.110  17.240  0.00  0.00    +0.000 HD
ENDBRANCH   6  11
ENDBRANCH   1   6
BRANCH   4  17
ATOM     17  C   UNL     1       0.695  11.362  18.695  0.00  0.00    +0.000 C 
BRANCH  17  18
ATOM     18  C   UNL     1      -0.768  11.650  18.818  0.00  0.00    +0.000 A 
ATOM     19  C   UNL     1      -1.366  12.539  19.691  0.00  0.00    +0.000 A 
ATOM     20  N   UNL     1      -2.711  12.561  19.430  0.00  0.00    +0.000 N 
ATOM     21  C   UNL     1      -3.007  11.713  18.388  0.00  0.00    +0.000 A 
ATOM     22  C   UNL     1      -4.231  11.445  17.764  0.00  0.00    +0.000 A 
ATOM     23  C   UNL     1      -4.235  10.523  16.713  0.00  0.00    +0.000 A 
ATOM     24  C   UNL     1      -3.063   9.888  16.313  0.00  0.00    +0.000 A 
ATOM     25  C   UNL     1      -1.847  10.167  16.949  0.00  0.00    +0.000 A 
ATOM     26  C   UNL     1      -1.814  11.105  18.002  0.00  0.00    +0.000 A 
ATOM     27  H   UNL     1      -3.391  13.130  19.912  0.00  0.00    +0.000 HD
ENDBRANCH  17  18
ENDBRANCH   4  17
TORSDOF 4
ENDMDL
