MODEL 1
REMARK VINA RESULT:      -7.2      0.000      0.000
REMARK  Name = 
REMARK  8 active torsions:
REMARK  status: ('A' for Active; 'I' for Inactive)
REMARK    1  A    between atoms: C_1  and  C_2
REMARK    2  A    between atoms: C_2  and  C_3
REMARK    3  A    between atoms: C_2  and  C_4
REMARK    4  A    between atoms: C_2  and  C_5
REMARK    5  A    between atoms: N_7  and  C_8
REMARK    6  A    between atoms: C_11  and  N_12
REMARK    7  A    between atoms: N_15  and  C_16
REMARK    8  A    between atoms: C_16  and  C_17
REMARK                            x       y       z     vdW  Elec       q    Type
REMARK                         _______ _______ _______ _____ _____    ______ ____
ROOT
ATOM      1  C   UNL     1       2.576   7.075  18.642  0.00  0.00    +0.000 A 
ATOM      2  C   UNL     1       2.401   8.012  17.631  0.00  0.00    +0.000 A 
ATOM      3  C   UNL     1       1.759   9.225  17.889  0.00  0.00    +0.000 A 
ATOM      4  C   UNL     1       1.279   9.579  19.155  0.00  0.00    +0.000 A 
ATOM      5  C   UNL     1       1.419   8.587  20.159  0.00  0.00    +0.000 A 
ATOM      6 CL   UNL     1       0.991   8.840  21.826  0.00  0.00    +0.000 Cl
ATOM      7  C   UNL     1       2.028   7.345  19.894  0.00  0.00    +0.000 A 
ENDROOT
BRANCH   4   8
ATOM      8  N   UNL     1       0.719  10.836  19.332  0.00  0.00    +0.000 N 
ATOM      9  C   UNL     1       1.534  12.069  19.331  0.00  0.00    +0.000 C 
ATOM     10  C   UNL     1       0.974  13.116  18.334  0.00  0.00    +0.000 C 
ATOM     11  N   UNL     1      -0.479  13.404  18.468  0.00  0.00    +0.000 NA
ATOM     12  C   UNL     1      -1.187  12.105  18.388  0.00  0.00    +0.000 C 
ATOM     13  C   UNL     1      -0.735  11.043  19.414  0.00  0.00    +0.000 C 
BRANCH  11  14
ATOM     14  C   UNL     1      -0.740  14.122  19.729  0.00  0.00    +0.000 C 
BRANCH  14  15
ATOM     15  C   UNL     1      -0.240  15.553  19.765  0.00  0.00    +0.000 A 
ATOM     16  C   UNL     1       0.597  15.981  20.809  0.00  0.00    +0.000 A 
ATOM     17  C   UNL     1       1.092  17.287  20.833  0.00  0.00    +0.000 A 
ATOM     18  C   UNL     1       0.767  18.173  19.810  0.00  0.00    +0.000 A 
ATOM     19  C   UNL     1      -0.064  17.760  18.768  0.00  0.00    +0.000 A 
ATOM     20  C   UNL     1      -0.565  16.458  18.745  0.00  0.00    +0.000 A 
ENDBRANCH  14  15
ENDBRANCH  11  14
ENDBRANCH   4   8
BRANCH   1  23
ATOM     21  C   UNL     1       2.736   4.676  18.042  0.00  0.00    +0.000 C 
ATOM     22  O   UNL     1       1.554   4.524  17.747  0.00  0.00    +0.000 OA
ATOM     23  N   UNL     1       3.296   5.873  18.462  0.00  0.00    +0.000 N 
ATOM     24  H   UNL     1       4.303   5.947  18.472  0.00  0.00    +0.000 HD
BRANCH  21  26
ATOM     25  C   UNL     1       4.508   3.425  19.274  0.00  0.00    +0.000 C 
ATOM     26  C   UNL     1       3.720   3.495  17.951  0.00  0.00    +0.000 C 
ATOM     27  C   UNL     1       4.701   3.730  16.795  0.00  0.00    +0.000 C 
ATOM     28  C   UNL     1       2.972   2.169  17.758  0.00  0.00    +0.000 C 
ENDBRANCH  21  26
ENDBRANCH   1  23
TORSDOF 5
ENDMDL
MODEL 2
REMARK VINA RESULT:      -7.1      0.198      1.269
REMARK  Name = 
REMARK  8 active torsions:
REMARK  status: ('A' for Active; 'I' for Inactive)
REMARK    1  A    between atoms: C_1  and  C_2
REMARK    2  A    between atoms: C_2  and  C_3
REMARK    3  A    between atoms: C_2  and  C_4
REMARK    4  A    between atoms: C_2  and  C_5
REMARK    5  A    between atoms: N_7  and  C_8
REMARK    6  A    between atoms: C_11  and  N_12
REMARK    7  A    between atoms: N_15  and  C_16
REMARK    8  A    between atoms: C_16  and  C_17
REMARK                            x       y       z     vdW  Elec       q    Type
REMARK                         _______ _______ _______ _____ _____    ______ ____
ROOT
ATOM      1  C   UNL     1       2.539   7.220  18.683  0.00  0.00    +0.000 A 
ATOM      2  C   UNL     1       2.375   8.151  17.665  0.00  0.00    +0.000 A 
ATOM      3  C   UNL     1       1.736   9.369  17.910  0.00  0.00    +0.000 A 
ATOM      4  C   UNL     1       1.248   9.733  19.171  0.00  0.00    +0.000 A 
ATOM      5  C   UNL     1       1.378   8.747  20.182  0.00  0.00    +0.000 A 
ATOM      6 CL   UNL     1       0.939   9.012  21.844  0.00  0.00    +0.000 Cl
ATOM      7  C   UNL     1       1.983   7.501  19.930  0.00  0.00    +0.000 A 
ENDROOT
BRANCH   4   8
ATOM      8  N   UNL     1       0.693  10.994  19.336  0.00  0.00    +0.000 N 
ATOM      9  C   UNL     1       1.521  12.214  19.426  0.00  0.00    +0.000 C 
ATOM     10  C   UNL     1       1.051  13.292  18.415  0.00  0.00    +0.000 C 
ATOM     11  N   UNL     1      -0.404  13.597  18.447  0.00  0.00    +0.000 NA
ATOM     12  C   UNL     1      -1.120  12.311  18.282  0.00  0.00    +0.000 C 
ATOM     13  C   UNL     1      -0.761  11.219  19.313  0.00  0.00    +0.000 C 
BRANCH  11  14
ATOM     14  C   UNL     1      -0.750  14.290  19.702  0.00  0.00    +0.000 C 
BRANCH  14  15
ATOM     15  C   UNL     1      -0.265  15.723  19.796  0.00  0.00    +0.000 A 
ATOM     16  C   UNL     1      -0.614  16.654  18.804  0.00  0.00    +0.000 A 
ATOM     17  C   UNL     1      -0.201  17.984  18.900  0.00  0.00    +0.000 A 
ATOM     18  C   UNL     1       0.553  18.402  19.994  0.00  0.00    +0.000 A 
ATOM     19  C   UNL     1       0.907  17.486  20.985  0.00  0.00    +0.000 A 
ATOM     20  C   UNL     1       0.502  16.155  20.888  0.00  0.00    +0.000 A 
ENDBRANCH  14  15
ENDBRANCH  11  14
ENDBRANCH   4   8
BRANCH   1  23
ATOM     21  C   UNL     1       2.699   4.825  18.069  0.00  0.00    +0.000 C 
ATOM     22  O   UNL     1       1.525   4.685  17.737  0.00  0.00    +0.000 OA
ATOM     23  N   UNL     1       3.255   6.014  18.515  0.00  0.00    +0.000 N 
ATOM     24  H   UNL     1       4.262   6.080  18.558  0.00  0.00    +0.000 HD
BRANCH  21  26
ATOM     25  C   UNL     1       2.856   2.356  17.750  0.00  0.00    +0.000 C 
ATOM     26  C   UNL     1       3.677   3.637  17.999  0.00  0.00    +0.000 C 
ATOM     27  C   UNL     1       4.422   3.504  19.333  0.00  0.00    +0.000 C 
ATOM     28  C   UNL     1       4.672   3.811  16.843  0.00  0.00    +0.000 C 
ENDBRANCH  21  26
ENDBRANCH   1  23
TORSDOF 5
ENDMDL
MODEL 3
REMARK VINA RESULT:      -7.1      0.883      1.236
REMARK  Name = 
REMARK  8 active torsions:
REMARK  status: ('A' for Active; 'I' for Inactive)
REMARK    1  A    between atoms: C_1  and  C_2
REMARK    2  A    between atoms: C_2  and  C_3
REMARK    3  A    between atoms: C_2  and  C_4
REMARK    4  A    between atoms: C_2  and  C_5
REMARK    5  A    between atoms: N_7  and  C_8
REMARK    6  A    between atoms: C_11  and  N_12
REMARK    7  A    between atoms: N_15  and  C_16
REMARK    8  A    between atoms: C_16  and  C_17
REMARK                            x       y       z     vdW  Elec       q    Type
REMARK                         _______ _______ _______ _____ _____    ______ ____
ROOT
ATOM      1  C   UNL     1       2.501   7.256  18.659  0.00  0.00    +0.000 A 
ATOM      2  C   UNL     1       2.352   8.198  17.648  0.00  0.00    +0.000 A 
ATOM      3  C   UNL     1       1.734   9.424  17.903  0.00  0.00    +0.000 A 
ATOM      4  C   UNL     1       1.253   9.786  19.167  0.00  0.00    +0.000 A 
ATOM      5  C   UNL     1       1.367   8.791  20.171  0.00  0.00    +0.000 A 
ATOM      6 CL   UNL     1       0.935   9.051  21.835  0.00  0.00    +0.000 Cl
ATOM      7  C   UNL     1       1.952   7.537  19.908  0.00  0.00    +0.000 A 
ENDROOT
BRANCH   4   8
ATOM      8  N   UNL     1       0.719  11.055  19.342  0.00  0.00    +0.000 N 
ATOM      9  C   UNL     1       1.569  12.252  19.507  0.00  0.00    +0.000 C 
ATOM     10  C   UNL     1       1.173  13.369  18.507  0.00  0.00    +0.000 C 
ATOM     11  N   UNL     1      -0.275  13.708  18.478  0.00  0.00    +0.000 NA
ATOM     12  C   UNL     1      -1.012  12.444  18.242  0.00  0.00    +0.000 C 
ATOM     13  C   UNL     1      -0.727  11.316  19.257  0.00  0.00    +0.000 C 
BRANCH  11  14
ATOM     14  C   UNL     1      -0.666  14.373  19.735  0.00  0.00    +0.000 C 
BRANCH  14  15
ATOM     15  C   UNL     1      -1.119  15.811  19.583  0.00  0.00    +0.000 A 
ATOM     16  C   UNL     1      -0.547  16.632  18.597  0.00  0.00    +0.000 A 
ATOM     17  C   UNL     1      -0.982  17.948  18.426  0.00  0.00    +0.000 A 
ATOM     18  C   UNL     1      -2.002  18.453  19.227  0.00  0.00    +0.000 A 
ATOM     19  C   UNL     1      -2.578  17.649  20.211  0.00  0.00    +0.000 A 
ATOM     20  C   UNL     1      -2.140  16.336  20.389  0.00  0.00    +0.000 A 
ENDBRANCH  14  15
ENDBRANCH  11  14
ENDBRANCH   4   8
BRANCH   1  23
ATOM     21  C   UNL     1       2.606   4.843  18.108  0.00  0.00    +0.000 C 
ATOM     22  O   UNL     1       1.412   4.702  17.858  0.00  0.00    +0.000 OA
ATOM     23  N   UNL     1       3.197   6.040  18.481  0.00  0.00    +0.000 N 
ATOM     24  H   UNL     1       4.205   6.099  18.456  0.00  0.00    +0.000 HD
BRANCH  21  26
ATOM     25  C   UNL     1       4.198   3.421  19.400  0.00  0.00    +0.000 C 
ATOM     26  C   UNL     1       3.569   3.645  18.010  0.00  0.00    +0.000 C 
ATOM     27  C   UNL     1       4.682   3.960  17.002  0.00  0.00    +0.000 C 
ATOM     28  C   UNL     1       2.821   2.369  17.602  0.00  0.00    +0.000 C 
ENDBRANCH  21  26
ENDBRANCH   1  23
TORSDOF 5
ENDMDL
MODEL 4
REMARK VINA RESULT:      -7.1      2.051      2.940
REMARK  Name = 
REMARK  8 active torsions:
REMARK  status: ('A' for Active; 'I' for Inactive)
REMARK    1  A    between atoms: C_1  and  C_2
REMARK    2  A    between atoms: C_2  and  C_3
REMARK    3  A    between atoms: C_2  and  C_4
REMARK    4  A    between atoms: C_2  and  C_5
REMARK    5  A    between atoms: N_7  and  C_8
REMARK    6  A    between atoms: C_11  and  N_12
REMARK    7  A    between atoms: N_15  and  C_16
REMARK    8  A    between atoms: C_16  and  C_17
REMARK                            x       y       z     vdW  Elec       q    Type
REMARK                         _______ _______ _______ _____ _____    ______ ____
ROOT
ATOM      1  C   UNL     1       2.603   7.230  18.668  0.00  0.00    +0.000 A 
ATOM      2  C   UNL     1       2.241   8.195  17.735  0.00  0.00    +0.000 A 
ATOM      3  C   UNL     1       1.488   9.307  18.117  0.00  0.00    +0.000 A 
ATOM      4  C   UNL     1       1.075   9.531  19.435  0.00  0.00    +0.000 A 
ATOM      5  C   UNL     1       1.408   8.509  20.361  0.00  0.00    +0.000 A 
ATOM      6 CL   UNL     1       1.090   8.616  22.067  0.00  0.00    +0.000 Cl
ATOM      7  C   UNL     1       2.131   7.364  19.972  0.00  0.00    +0.000 A 
ENDROOT
BRANCH   4   8
ATOM      8  N   UNL     1       0.392  10.701  19.734  0.00  0.00    +0.000 N 
ATOM      9  C   UNL     1       0.999  12.037  19.552  0.00  0.00    +0.000 C 
ATOM     10  C   UNL     1       0.086  12.961  18.706  0.00  0.00    +0.000 C 
ATOM     11  N   UNL     1      -1.327  13.044  19.161  0.00  0.00    +0.000 NA
ATOM     12  C   UNL     1      -1.839  11.657  19.241  0.00  0.00    +0.000 C 
ATOM     13  C   UNL     1      -1.023  10.703  20.139  0.00  0.00    +0.000 C 
BRANCH  11  14
ATOM     14  C   UNL     1      -1.404  13.759  20.449  0.00  0.00    +0.000 C 
BRANCH  14  15
ATOM     15  C   UNL     1      -2.661  13.495  21.254  0.00  0.00    +0.000 A 
ATOM     16  C   UNL     1      -2.572  12.928  22.536  0.00  0.00    +0.000 A 
ATOM     17  C   UNL     1      -3.721  12.712  23.300  0.00  0.00    +0.000 A 
ATOM     18  C   UNL     1      -4.968  13.074  22.797  0.00  0.00    +0.000 A 
ATOM     19  C   UNL     1      -5.070  13.637  21.525  0.00  0.00    +0.000 A 
ATOM     20  C   UNL     1      -3.924  13.846  20.757  0.00  0.00    +0.000 A 
ENDBRANCH  14  15
ENDBRANCH  11  14
ENDBRANCH   4   8
BRANCH   1  23
ATOM     21  C   UNL     1       2.985   4.902  17.912  0.00  0.00    +0.000 C 
ATOM     22  O   UNL     1       1.807   4.625  17.705  0.00  0.00    +0.000 OA
ATOM     23  N   UNL     1       3.438   6.134  18.357  0.00  0.00    +0.000 N 
ATOM     24  H   UNL     1       4.427   6.327  18.292  0.00  0.00    +0.000 HD
BRANCH  21  26
ATOM     25  C   UNL     1       5.136   3.993  18.791  0.00  0.00    +0.000 C 
ATOM     26  C   UNL     1       4.087   3.853  17.671  0.00  0.00    +0.000 C 
ATOM     27  C   UNL     1       4.760   4.117  16.318  0.00  0.00    +0.000 C 
ATOM     28  C   UNL     1       3.512   2.431  17.716  0.00  0.00    +0.000 C 
ENDBRANCH  21  26
ENDBRANCH   1  23
TORSDOF 5
ENDMDL
MODEL 5
REMARK VINA RESULT:      -7.0      3.359      4.237
REMARK  Name = 
REMARK  8 active torsions:
REMARK  status: ('A' for Active; 'I' for Inactive)
REMARK    1  A    between atoms: C_1  and  C_2
REMARK    2  A    between atoms: C_2  and  C_3
REMARK    3  A    between atoms: C_2  and  C_4
REMARK    4  A    between atoms: C_2  and  C_5
REMARK    5  A    between atoms: N_7  and  C_8
REMARK    6  A    between atoms: C_11  and  N_12
REMARK    7  A    between atoms: N_15  and  C_16
REMARK    8  A    between atoms: C_16  and  C_17
REMARK                            x       y       z     vdW  Elec       q    Type
REMARK                         _______ _______ _______ _____ _____    ______ ____
ROOT
ATOM      1  C   UNL     1       3.137   6.608  18.414  0.00  0.00    +0.000 A 
ATOM      2  C   UNL     1       2.658   6.322  19.687  0.00  0.00    +0.000 A 
ATOM      3  C   UNL     1       1.850   7.237  20.366  0.00  0.00    +0.000 A 
ATOM      4  C   UNL     1       1.460   8.463  19.816  0.00  0.00    +0.000 A 
ATOM      5  C   UNL     1       2.003   8.759  18.539  0.00  0.00    +0.000 A 
ATOM      6 CL   UNL     1       1.579  10.172  17.618  0.00  0.00    +0.000 Cl
ATOM      7  C   UNL     1       2.853   7.858  17.868  0.00  0.00    +0.000 A 
ENDROOT
BRANCH   4   8
ATOM      8  N   UNL     1       0.596   9.276  20.535  0.00  0.00    +0.000 N 
ATOM      9  C   UNL     1      -0.179   8.776  21.690  0.00  0.00    +0.000 C 
ATOM     10  C   UNL     1       0.023   9.673  22.938  0.00  0.00    +0.000 C 
ATOM     11  N   UNL     1      -0.183  11.129  22.712  0.00  0.00    +0.000 NA
ATOM     12  C   UNL     1       0.691  11.519  21.581  0.00  0.00    +0.000 C 
ATOM     13  C   UNL     1       0.480  10.720  20.277  0.00  0.00    +0.000 C 
BRANCH  11  14
ATOM     14  C   UNL     1      -1.609  11.405  22.456  0.00  0.00    +0.000 C 
BRANCH  14  15
ATOM     15  C   UNL     1      -2.190  12.557  23.251  0.00  0.00    +0.000 A 
ATOM     16  C   UNL     1      -3.485  12.462  23.787  0.00  0.00    +0.000 A 
ATOM     17  C   UNL     1      -4.017  13.503  24.551  0.00  0.00    +0.000 A 
ATOM     18  C   UNL     1      -3.257  14.643  24.799  0.00  0.00    +0.000 A 
ATOM     19  C   UNL     1      -1.969  14.750  24.271  0.00  0.00    +0.000 A 
ATOM     20  C   UNL     1      -1.439  13.714  23.502  0.00  0.00    +0.000 A 
ENDBRANCH  14  15
ENDBRANCH  11  14
ENDBRANCH   4   8
BRANCH   1  23
ATOM     21  C   UNL     1       5.160   5.914  17.164  0.00  0.00    +0.000 C 
ATOM     22  O   UNL     1       5.812   6.934  17.373  0.00  0.00    +0.000 OA
ATOM     23  N   UNL     1       3.881   5.685  17.646  0.00  0.00    +0.000 N 
ATOM     24  H   UNL     1       3.520   4.743  17.602  0.00  0.00    +0.000 HD
BRANCH  21  26
ATOM     25  C   UNL     1       4.928   3.496  16.600  0.00  0.00    +0.000 C 
ATOM     26  C   UNL     1       5.753   4.768  16.324  0.00  0.00    +0.000 C 
ATOM     27  C   UNL     1       7.208   4.522  16.743  0.00  0.00    +0.000 C 
ATOM     28  C   UNL     1       5.673   5.086  14.825  0.00  0.00    +0.000 C 
ENDBRANCH  21  26
ENDBRANCH   1  23
TORSDOF 5
ENDMDL
MODEL 6
REMARK VINA RESULT:      -7.0      2.019      3.166
REMARK  Name = 
REMARK  8 active torsions:
REMARK  status: ('A' for Active; 'I' for Inactive)
REMARK    1  A    between atoms: C_1  and  C_2
REMARK    2  A    between atoms: C_2  and  C_3
REMARK    3  A    between atoms: C_2  and  C_4
REMARK    4  A    between atoms: C_2  and  C_5
REMARK    5  A    between atoms: N_7  and  C_8
REMARK    6  A    between atoms: C_11  and  N_12
REMARK    7  A    between atoms: N_15  and  C_16
REMARK    8  A    between atoms: C_16  and  C_17
REMARK                            x       y       z     vdW  Elec       q    Type
REMARK                         _______ _______ _______ _____ _____    ______ ____
ROOT
ATOM      1  C   UNL     1       2.595   7.233  18.685  0.00  0.00    +0.000 A 
ATOM      2  C   UNL     1       2.247   8.200  17.751  0.00  0.00    +0.000 A 
ATOM      3  C   UNL     1       1.505   9.322  18.129  0.00  0.00    +0.000 A 
ATOM      4  C   UNL     1       1.091   9.552  19.447  0.00  0.00    +0.000 A 
ATOM      5  C   UNL     1       1.410   8.527  20.374  0.00  0.00    +0.000 A 
ATOM      6 CL   UNL     1       1.089   8.640  22.079  0.00  0.00    +0.000 Cl
ATOM      7  C   UNL     1       2.121   7.374  19.988  0.00  0.00    +0.000 A 
ENDROOT
BRANCH   4   8
ATOM      8  N   UNL     1       0.421  10.731  19.743  0.00  0.00    +0.000 N 
ATOM      9  C   UNL     1       1.032  12.059  19.530  0.00  0.00    +0.000 C 
ATOM     10  C   UNL     1       0.109  12.978  18.689  0.00  0.00    +0.000 C 
ATOM     11  N   UNL     1      -1.295  13.076  19.170  0.00  0.00    +0.000 NA
ATOM     12  C   UNL     1      -1.814  11.692  19.279  0.00  0.00    +0.000 C 
ATOM     13  C   UNL     1      -0.985  10.746  20.175  0.00  0.00    +0.000 C 
BRANCH  11  14
ATOM     14  C   UNL     1      -1.343  13.808  20.450  0.00  0.00    +0.000 C 
BRANCH  14  15
ATOM     15  C   UNL     1      -2.599  13.586  21.268  0.00  0.00    +0.000 A 
ATOM     16  C   UNL     1      -3.852  13.957  20.752  0.00  0.00    +0.000 A 
ATOM     17  C   UNL     1      -5.019  13.725  21.483  0.00  0.00    +0.000 A 
ATOM     18  C   UNL     1      -4.948  13.108  22.730  0.00  0.00    +0.000 A 
ATOM     19  C   UNL     1      -3.709  12.736  23.253  0.00  0.00    +0.000 A 
ATOM     20  C   UNL     1      -2.542  12.973  22.528  0.00  0.00    +0.000 A 
ENDBRANCH  14  15
ENDBRANCH  11  14
ENDBRANCH   4   8
BRANCH   1  23
ATOM     21  C   UNL     1       2.951   4.892  17.955  0.00  0.00    +0.000 C 
ATOM     22  O   UNL     1       1.768   4.621  17.766  0.00  0.00    +0.000 OA
ATOM     23  N   UNL     1       3.418   6.127  18.378  0.00  0.00    +0.000 N 
ATOM     24  H   UNL     1       4.407   6.312  18.298  0.00  0.00    +0.000 HD
BRANCH  21  26
ATOM     25  C   UNL     1       4.697   4.123  16.348  0.00  0.00    +0.000 C 
ATOM     26  C   UNL     1       4.042   3.833  17.713  0.00  0.00    +0.000 C 
ATOM     27  C   UNL     1       3.405   2.438  17.676  0.00  0.00    +0.000 C 
ATOM     28  C   UNL     1       5.125   3.900  18.797  0.00  0.00    +0.000 C 
ENDBRANCH  21  26
ENDBRANCH   1  23
TORSDOF 5
ENDMDL
MODEL 7
REMARK VINA RESULT:      -6.9      0.851      1.606
REMARK  Name = 
REMARK  8 active torsions:
REMARK  status: ('A' for Active; 'I' for Inactive)
REMARK    1  A    between atoms: C_1  and  C_2
REMARK    2  A    between atoms: C_2  and  C_3
REMARK    3  A    between atoms: C_2  and  C_4
REMARK    4  A    between atoms: C_2  and  C_5
REMARK    5  A    between atoms: N_7  and  C_8
REMARK    6  A    between atoms: C_11  and  N_12
REMARK    7  A    between atoms: N_15  and  C_16
REMARK    8  A    between atoms: C_16  and  C_17
REMARK                            x       y       z     vdW  Elec       q    Type
REMARK                         _______ _______ _______ _____ _____    ______ ____
ROOT
ATOM      1  C   UNL     1       2.501   7.167  18.732  0.00  0.00    +0.000 A 
ATOM      2  C   UNL     1       2.197   8.069  17.721  0.00  0.00    +0.000 A 
ATOM      3  C   UNL     1       1.503   9.248  18.004  0.00  0.00    +0.000 A 
ATOM      4  C   UNL     1       1.097   9.601  19.296  0.00  0.00    +0.000 A 
ATOM      5  C   UNL     1       1.370   8.642  20.305  0.00  0.00    +0.000 A 
ATOM      6 CL   UNL     1       1.051   8.906  21.994  0.00  0.00    +0.000 Cl
ATOM      7  C   UNL     1       2.031   7.432  20.017  0.00  0.00    +0.000 A 
ENDROOT
BRANCH   4   8
ATOM      8  N   UNL     1       0.477  10.827  19.492  0.00  0.00    +0.000 N 
ATOM      9  C   UNL     1      -0.960  10.941  19.820  0.00  0.00    +0.000 C 
ATOM     10  C   UNL     1      -1.184  11.810  21.084  0.00  0.00    +0.000 C 
ATOM     11  N   UNL     1      -0.505  13.133  21.071  0.00  0.00    +0.000 NA
ATOM     12  C   UNL     1       0.930  12.881  20.800  0.00  0.00    +0.000 C 
ATOM     13  C   UNL     1       1.228  12.092  19.506  0.00  0.00    +0.000 C 
BRANCH  11  14
ATOM     14  C   UNL     1      -1.132  14.015  20.069  0.00  0.00    +0.000 C 
BRANCH  14  15
ATOM     15  C   UNL     1      -0.543  15.409  19.986  0.00  0.00    +0.000 A 
ATOM     16  C   UNL     1      -0.558  16.250  21.112  0.00  0.00    +0.000 A 
ATOM     17  C   UNL     1       0.012  17.523  21.057  0.00  0.00    +0.000 A 
ATOM     18  C   UNL     1       0.616  17.965  19.882  0.00  0.00    +0.000 A 
ATOM     19  C   UNL     1       0.636  17.140  18.756  0.00  0.00    +0.000 A 
ATOM     20  C   UNL     1       0.060  15.871  18.807  0.00  0.00    +0.000 A 
ENDBRANCH  14  15
ENDBRANCH  11  14
ENDBRANCH   4   8
BRANCH   1  23
ATOM     21  C   UNL     1       2.763   4.775  18.142  0.00  0.00    +0.000 C 
ATOM     22  O   UNL     1       1.576   4.554  17.915  0.00  0.00    +0.000 OA
ATOM     23  N   UNL     1       3.277   6.005  18.520  0.00  0.00    +0.000 N 
ATOM     24  H   UNL     1       4.277   6.136  18.473  0.00  0.00    +0.000 HD
BRANCH  21  26
ATOM     25  C   UNL     1       4.638   3.922  16.735  0.00  0.00    +0.000 C 
ATOM     26  C   UNL     1       3.806   3.650  18.003  0.00  0.00    +0.000 C 
ATOM     27  C   UNL     1       3.091   2.301  17.854  0.00  0.00    +0.000 C 
ATOM     28  C   UNL     1       4.752   3.625  19.211  0.00  0.00    +0.000 C 
ENDBRANCH  21  26
ENDBRANCH   1  23
TORSDOF 5
ENDMDL
MODEL 8
REMARK VINA RESULT:      -6.9      0.837      1.583
REMARK  Name = 
REMARK  8 active torsions:
REMARK  status: ('A' for Active; 'I' for Inactive)
REMARK    1  A    between atoms: C_1  and  C_2
REMARK    2  A    between atoms: C_2  and  C_3
REMARK    3  A    between atoms: C_2  and  C_4
REMARK    4  A    between atoms: C_2  and  C_5
REMARK    5  A    between atoms: N_7  and  C_8
REMARK    6  A    between atoms: C_11  and  N_12
REMARK    7  A    between atoms: N_15  and  C_16
REMARK    8  A    between atoms: C_16  and  C_17
REMARK                            x       y       z     vdW  Elec       q    Type
REMARK                         _______ _______ _______ _____ _____    ______ ____
ROOT
ATOM      1  C   UNL     1       2.515   7.100  18.683  0.00  0.00    +0.000 A 
ATOM      2  C   UNL     1       2.197   8.020  17.692  0.00  0.00    +0.000 A 
ATOM      3  C   UNL     1       1.528   9.205  18.009  0.00  0.00    +0.000 A 
ATOM      4  C   UNL     1       1.161   9.546  19.316  0.00  0.00    +0.000 A 
ATOM      5  C   UNL     1       1.446   8.569  20.304  0.00  0.00    +0.000 A 
ATOM      6 CL   UNL     1       1.175   8.815  22.004  0.00  0.00    +0.000 Cl
ATOM      7  C   UNL     1       2.082   7.354  19.983  0.00  0.00    +0.000 A 
ENDROOT
BRANCH   4   8
ATOM      8  N   UNL     1       0.564  10.778  19.544  0.00  0.00    +0.000 N 
ATOM      9  C   UNL     1      -0.815  10.902  20.062  0.00  0.00    +0.000 C 
ATOM     10  C   UNL     1      -0.870  11.823  21.308  0.00  0.00    +0.000 C 
ATOM     11  N   UNL     1      -0.210  13.146  21.147  0.00  0.00    +0.000 NA
ATOM     12  C   UNL     1       1.176  12.886  20.691  0.00  0.00    +0.000 C 
ATOM     13  C   UNL     1       1.300  12.044  19.403  0.00  0.00    +0.000 C 
BRANCH  11  14
ATOM     14  C   UNL     1      -0.975  13.984  20.205  0.00  0.00    +0.000 C 
BRANCH  14  15
ATOM     15  C   UNL     1      -0.424  15.380  19.996  0.00  0.00    +0.000 A 
ATOM     16  C   UNL     1      -0.113  15.829  18.702  0.00  0.00    +0.000 A 
ATOM     17  C   UNL     1       0.363  17.126  18.494  0.00  0.00    +0.000 A 
ATOM     18  C   UNL     1       0.520  17.991  19.574  0.00  0.00    +0.000 A 
ATOM     19  C   UNL     1       0.216  17.556  20.865  0.00  0.00    +0.000 A 
ATOM     20  C   UNL     1      -0.253  16.259  21.075  0.00  0.00    +0.000 A 
ENDBRANCH  14  15
ENDBRANCH  11  14
ENDBRANCH   4   8
BRANCH   1  23
ATOM     21  C   UNL     1       2.723   4.672  18.235  0.00  0.00    +0.000 C 
ATOM     22  O   UNL     1       1.520   4.427  18.218  0.00  0.00    +0.000 OA
ATOM     23  N   UNL     1       3.268   5.931  18.435  0.00  0.00    +0.000 N 
ATOM     24  H   UNL     1       4.245   6.064  18.219  0.00  0.00    +0.000 HD
BRANCH  21  26
ATOM     25  C   UNL     1       4.664   3.483  19.254  0.00  0.00    +0.000 C 
ATOM     26  C   UNL     1       3.751   3.547  18.014  0.00  0.00    +0.000 C 
ATOM     27  C   UNL     1       4.604   3.863  16.779  0.00  0.00    +0.000 C 
ATOM     28  C   UNL     1       3.054   2.189  17.851  0.00  0.00    +0.000 C 
ENDBRANCH  21  26
ENDBRANCH   1  23
TORSDOF 5
ENDMDL
MODEL 9
REMARK VINA RESULT:      -6.9      3.136     10.019
REMARK  Name = 
REMARK  8 active torsions:
REMARK  status: ('A' for Active; 'I' for Inactive)
REMARK    1  A    between atoms: C_1  and  C_2
REMARK    2  A    between atoms: C_2  and  C_3
REMARK    3  A    between atoms: C_2  and  C_4
REMARK    4  A    between atoms: C_2  and  C_5
REMARK    5  A    between atoms: N_7  and  C_8
REMARK    6  A    between atoms: C_11  and  N_12
REMARK    7  A    between atoms: N_15  and  C_16
REMARK    8  A    between atoms: C_16  and  C_17
REMARK                            x       y       z     vdW  Elec       q    Type
REMARK                         _______ _______ _______ _____ _____    ______ ____
ROOT
ATOM      1  C   UNL     1       1.060   9.223  19.751  0.00  0.00    +0.000 A 
ATOM      2  C   UNL     1       1.640   9.462  18.511  0.00  0.00    +0.000 A 
ATOM      3  C   UNL     1       2.485   8.516  17.926  0.00  0.00    +0.000 A 
ATOM      4  C   UNL     1       2.781   7.286  18.524  0.00  0.00    +0.000 A 
ATOM      5  C   UNL     1       2.222   7.084  19.812  0.00  0.00    +0.000 A 
ATOM      6 CL   UNL     1       2.368   5.596  20.700  0.00  0.00    +0.000 Cl
ATOM      7  C   UNL     1       1.404   8.053  20.425  0.00  0.00    +0.000 A 
ENDROOT
BRANCH   4   8
ATOM      8  N   UNL     1       3.573   6.379  17.834  0.00  0.00    +0.000 N 
ATOM      9  C   UNL     1       4.193   6.704  16.533  0.00  0.00    +0.000 C 
ATOM     10  C   UNL     1       5.718   6.422  16.548  0.00  0.00    +0.000 C 
ATOM     11  N   UNL     1       6.107   5.072  17.034  0.00  0.00    +0.000 NA
ATOM     12  C   UNL     1       5.482   4.893  18.365  0.00  0.00    +0.000 C 
ATOM     13  C   UNL     1       3.949   5.075  18.403  0.00  0.00    +0.000 C 
BRANCH  11  14
ATOM     14  C   UNL     1       5.691   4.044  16.062  0.00  0.00    +0.000 C 
BRANCH  14  15
ATOM     15  C   UNL     1       6.238   4.229  14.661  0.00  0.00    +0.000 A 
ATOM     16  C   UNL     1       7.373   5.029  14.446  0.00  0.00    +0.000 A 
ATOM     17  C   UNL     1       7.905   5.179  13.164  0.00  0.00    +0.000 A 
ATOM     18  C   UNL     1       7.319   4.520  12.086  0.00  0.00    +0.000 A 
ATOM     19  C   UNL     1       6.191   3.723  12.286  0.00  0.00    +0.000 A 
ATOM     20  C   UNL     1       5.653   3.579  13.564  0.00  0.00    +0.000 A 
ENDBRANCH  14  15
ENDBRANCH  11  14
ENDBRANCH   4   8
BRANCH   1  23
ATOM     21  C   UNL     1       0.469  11.213  21.103  0.00  0.00    +0.000 C 
ATOM     22  O   UNL     1       1.619  11.586  21.317  0.00  0.00    +0.000 OA
ATOM     23  N   UNL     1       0.129  10.101  20.348  0.00  0.00    +0.000 N 
ATOM     24  H   UNL     1      -0.833  10.003  20.055  0.00  0.00    +0.000 HD
BRANCH  21  26
ATOM     25  C   UNL     1      -0.217  13.384  22.122  0.00  0.00    +0.000 C 
ATOM     26  C   UNL     1      -0.725  11.999  21.676  0.00  0.00    +0.000 C 
ATOM     27  C   UNL     1      -1.292  11.258  22.894  0.00  0.00    +0.000 C 
ATOM     28  C   UNL     1      -1.815  12.198  20.614  0.00  0.00    +0.000 C 
ENDBRANCH  21  26
ENDBRANCH   1  23
TORSDOF 5
ENDMDL
