MODEL 1
REMARK VINA RESULT:      -7.4      0.000      0.000
REMARK  Name = 
REMARK  9 active torsions:
REMARK  status: ('A' for Active; 'I' for Inactive)
REMARK    1  A    between atoms: C_1  and  O_2
REMARK    2  A    between atoms: O_2  and  C_3
REMARK    3  A    between atoms: C_3  and  C_5
REMARK    4  A    between atoms: C_5  and  C_6
REMARK    5  A    between atoms: C_6  and  N_7
REMARK    6  A    between atoms: C_8  and  C_10
REMARK    7  A    between atoms: C_14  and  O_15
REMARK    8  A    between atoms: O_15  and  C_16
REMARK    9  A    between atoms: C_16  and  C_17
REMARK                            x       y       z     vdW  Elec       q    Type
REMARK                         _______ _______ _______ _____ _____    ______ ____
ROOT
ATOM      1  N   UNL     1       3.658   4.416  18.510  0.00  0.00    +0.000 N 
ATOM      2  C   UNL     1       4.279   3.543  17.602  0.00  0.00    +0.000 C 
ATOM      3  O   UNL     1       3.988   2.341  17.524  0.00  0.00    +0.000 OA
ATOM      4  C   UNL     1       2.734   3.840  19.437  0.00  0.00    +0.000 A 
ATOM      5  C   UNL     1       1.605   3.167  18.971  0.00  0.00    +0.000 A 
ATOM      6  C   UNL     1       0.686   2.672  19.894  0.00  0.00    +0.000 A 
ATOM      7  C   UNL     1       0.937   2.822  21.251  0.00  0.00    +0.000 A 
ATOM      8  C   UNL     1       2.082   3.500  21.629  0.00  0.00    +0.000 A 
ATOM      9  N   UNL     1       2.956   4.049  20.756  0.00  0.00    +0.000 NA
ENDROOT
BRANCH   2  10
ATOM     10  C   UNL     1       5.301   4.013  16.606  0.00  0.00    +0.000 A 
ATOM     11  C   UNL     1       5.119   3.617  15.269  0.00  0.00    +0.000 A 
ATOM     12  C   UNL     1       5.906   4.151  14.244  0.00  0.00    +0.000 A 
ATOM     13  C   UNL     1       6.853   5.128  14.536  0.00  0.00    +0.000 A 
ATOM     14  C   UNL     1       7.059   5.494  15.860  0.00  0.00    +0.000 A 
ATOM     15  C   UNL     1       6.377   4.854  16.899  0.00  0.00    +0.000 A 
BRANCH  14  16
ATOM     16  O   UNL     1       7.926   6.540  16.232  0.00  0.00    +0.000 OA
BRANCH  16  17
ATOM     17  C   UNL     1       7.508   7.378  17.272  0.00  0.00    +0.000 C 
ATOM     18  C   UNL     1       8.118   6.924  18.567  0.00  0.00    +0.000 C 
ATOM     19  O   UNL     1       6.784   8.360  17.178  0.00  0.00    +0.000 OA
ENDBRANCH  16  17
ENDBRANCH  14  16
ENDBRANCH   2  10
BRANCH   1  20
ATOM     20  C   UNL     1       3.982   5.829  18.816  0.00  0.00    +0.000 C 
BRANCH  20  21
ATOM     21  C   UNL     1       3.364   6.848  17.859  0.00  0.00    +0.000 C 
BRANCH  21  22
ATOM     22  C   UNL     1       2.451   7.766  18.621  0.00  0.00    +0.000 C 
ATOM     23  O   UNL     1       1.961   8.787  18.166  0.00  0.00    +0.000 OA
BRANCH  22  25
ATOM     24  C   UNL     1       1.440   8.092  20.717  0.00  0.00    +0.000 C 
ATOM     25  O   UNL     1       2.270   7.284  19.882  0.00  0.00    +0.000 OA
ENDBRANCH  22  25
ENDBRANCH  21  22
ENDBRANCH  20  21
ENDBRANCH   1  20
TORSDOF 7
ENDMDL
MODEL 2
REMARK VINA RESULT:      -7.4      2.519      6.912
REMARK  Name = 
REMARK  9 active torsions:
REMARK  status: ('A' for Active; 'I' for Inactive)
REMARK    1  A    between atoms: C_1  and  O_2
REMARK    2  A    between atoms: O_2  and  C_3
REMARK    3  A    between atoms: C_3  and  C_5
REMARK    4  A    between atoms: C_5  and  C_6
REMARK    5  A    between atoms: C_6  and  N_7
REMARK    6  A    between atoms: C_8  and  C_10
REMARK    7  A    between atoms: C_14  and  O_15
REMARK    8  A    between atoms: O_15  and  C_16
REMARK    9  A    between atoms: C_16  and  C_17
REMARK                            x       y       z     vdW  Elec       q    Type
REMARK                         _______ _______ _______ _____ _____    ______ ____
ROOT
ATOM      1  N   UNL     1       2.992   6.436  18.976  0.00  0.00    +0.000 N 
ATOM      2  C   UNL     1       2.737   7.727  18.486  0.00  0.00    +0.000 C 
ATOM      3  O   UNL     1       3.360   8.216  17.534  0.00  0.00    +0.000 OA
ATOM      4  C   UNL     1       4.093   5.728  18.401  0.00  0.00    +0.000 A 
ATOM      5  C   UNL     1       4.106   5.451  17.034  0.00  0.00    +0.000 A 
ATOM      6  C   UNL     1       5.156   4.702  16.507  0.00  0.00    +0.000 A 
ATOM      7  C   UNL     1       6.184   4.289  17.345  0.00  0.00    +0.000 A 
ATOM      8  C   UNL     1       6.095   4.608  18.688  0.00  0.00    +0.000 A 
ATOM      9  N   UNL     1       5.055   5.274  19.238  0.00  0.00    +0.000 NA
ENDROOT
BRANCH   2  10
ATOM     10  C   UNL     1       1.639   8.593  19.036  0.00  0.00    +0.000 A 
ATOM     11  C   UNL     1       0.973   9.434  18.127  0.00  0.00    +0.000 A 
ATOM     12  C   UNL     1      -0.176  10.137  18.502  0.00  0.00    +0.000 A 
ATOM     13  C   UNL     1      -0.707   9.967  19.777  0.00  0.00    +0.000 A 
ATOM     14  C   UNL     1      -0.030   9.164  20.688  0.00  0.00    +0.000 A 
ATOM     15  C   UNL     1       1.197   8.581  20.362  0.00  0.00    +0.000 A 
BRANCH  14  16
ATOM     16  O   UNL     1      -0.547   8.863  21.963  0.00  0.00    +0.000 OA
BRANCH  16  17
ATOM     17  C   UNL     1      -0.199   9.720  23.013  0.00  0.00    +0.000 C 
ATOM     18  C   UNL     1      -1.261  10.768  23.188  0.00  0.00    +0.000 C 
ATOM     19  O   UNL     1       0.794   9.643  23.726  0.00  0.00    +0.000 OA
ENDBRANCH  16  17
ENDBRANCH  14  16
ENDBRANCH   2  10
BRANCH   1  20
ATOM     20  C   UNL     1       2.435   5.766  20.176  0.00  0.00    +0.000 C 
BRANCH  20  21
ATOM     21  C   UNL     1       1.596   4.523  19.880  0.00  0.00    +0.000 C 
BRANCH  21  22
ATOM     22  C   UNL     1       2.004   3.409  20.803  0.00  0.00    +0.000 C 
ATOM     23  O   UNL     1       1.405   3.102  21.821  0.00  0.00    +0.000 OA
BRANCH  22  25
ATOM     24  C   UNL     1       3.013   2.262  19.018  0.00  0.00    +0.000 C 
ATOM     25  O   UNL     1       3.134   2.816  20.328  0.00  0.00    +0.000 OA
ENDBRANCH  22  25
ENDBRANCH  21  22
ENDBRANCH  20  21
ENDBRANCH   1  20
TORSDOF 7
ENDMDL
MODEL 3
REMARK VINA RESULT:      -7.4      2.454      6.758
REMARK  Name = 
REMARK  9 active torsions:
REMARK  status: ('A' for Active; 'I' for Inactive)
REMARK    1  A    between atoms: C_1  and  O_2
REMARK    2  A    between atoms: O_2  and  C_3
REMARK    3  A    between atoms: C_3  and  C_5
REMARK    4  A    between atoms: C_5  and  C_6
REMARK    5  A    between atoms: C_6  and  N_7
REMARK    6  A    between atoms: C_8  and  C_10
REMARK    7  A    between atoms: C_14  and  O_15
REMARK    8  A    between atoms: O_15  and  C_16
REMARK    9  A    between atoms: C_16  and  C_17
REMARK                            x       y       z     vdW  Elec       q    Type
REMARK                         _______ _______ _______ _____ _____    ______ ____
ROOT
ATOM      1  N   UNL     1       6.222   4.563  15.969  0.00  0.00    +0.000 N 
ATOM      2  C   UNL     1       4.854   4.582  16.287  0.00  0.00    +0.000 C 
ATOM      3  O   UNL     1       3.968   4.424  15.437  0.00  0.00    +0.000 OA
ATOM      4  C   UNL     1       6.567   4.462  14.585  0.00  0.00    +0.000 A 
ATOM      5  C   UNL     1       6.152   3.357  13.842  0.00  0.00    +0.000 A 
ATOM      6  C   UNL     1       6.555   3.248  12.513  0.00  0.00    +0.000 A 
ATOM      7  C   UNL     1       7.320   4.261  11.949  0.00  0.00    +0.000 A 
ATOM      8  C   UNL     1       7.686   5.323  12.755  0.00  0.00    +0.000 A 
ATOM      9  N   UNL     1       7.367   5.422  14.065  0.00  0.00    +0.000 NA
ENDROOT
BRANCH   2  10
ATOM     10  C   UNL     1       4.359   4.728  17.698  0.00  0.00    +0.000 A 
ATOM     11  C   UNL     1       3.951   6.012  18.101  0.00  0.00    +0.000 A 
ATOM     12  C   UNL     1       3.306   6.214  19.326  0.00  0.00    +0.000 A 
ATOM     13  C   UNL     1       3.014   5.125  20.142  0.00  0.00    +0.000 A 
ATOM     14  C   UNL     1       3.449   3.860  19.762  0.00  0.00    +0.000 A 
ATOM     15  C   UNL     1       4.222   3.680  18.612  0.00  0.00    +0.000 A 
BRANCH  14  16
ATOM     16  O   UNL     1       3.113   2.695  20.479  0.00  0.00    +0.000 OA
BRANCH  16  17
ATOM     17  C   UNL     1       1.796   2.585  20.938  0.00  0.00    +0.000 C 
ATOM     18  C   UNL     1       0.849   2.587  19.773  0.00  0.00    +0.000 C 
ATOM     19  O   UNL     1       1.431   2.468  22.101  0.00  0.00    +0.000 OA
ENDBRANCH  16  17
ENDBRANCH  14  16
ENDBRANCH   2  10
BRANCH   1  20
ATOM     20  C   UNL     1       7.386   4.866  16.835  0.00  0.00    +0.000 C 
BRANCH  20  21
ATOM     21  C   UNL     1       7.527   6.338  17.222  0.00  0.00    +0.000 C 
BRANCH  21  22
ATOM     22  C   UNL     1       7.979   6.443  18.652  0.00  0.00    +0.000 C 
ATOM     23  O   UNL     1       7.906   5.537  19.466  0.00  0.00    +0.000 OA
BRANCH  22  25
ATOM     24  C   UNL     1       8.121   8.661  17.894  0.00  0.00    +0.000 C 
ATOM     25  O   UNL     1       8.466   7.692  18.884  0.00  0.00    +0.000 OA
ENDBRANCH  22  25
ENDBRANCH  21  22
ENDBRANCH  20  21
ENDBRANCH   1  20
TORSDOF 7
ENDMDL
MODEL 4
REMARK VINA RESULT:      -7.2      2.349      6.583
REMARK  Name = 
REMARK  9 active torsions:
REMARK  status: ('A' for Active; 'I' for Inactive)
REMARK    1  A    between atoms: C_1  and  O_2
REMARK    2  A    between atoms: O_2  and  C_3
REMARK    3  A    between atoms: C_3  and  C_5
REMARK    4  A    between atoms: C_5  and  C_6
REMARK    5  A    between atoms: C_6  and  N_7
REMARK    6  A    between atoms: C_8  and  C_10
REMARK    7  A    between atoms: C_14  and  O_15
REMARK    8  A    between atoms: O_15  and  C_16
REMARK    9  A    between atoms: C_16  and  C_17
REMARK                            x       y       z     vdW  Elec       q    Type
REMARK                         _______ _______ _______ _____ _____    ______ ____
ROOT
ATOM      1  N   UNL     1       3.949   5.947  18.299  0.00  0.00    +0.000 N 
ATOM      2  C   UNL     1       3.438   7.203  17.933  0.00  0.00    +0.000 C 
ATOM      3  O   UNL     1       3.835   7.821  16.935  0.00  0.00    +0.000 OA
ATOM      4  C   UNL     1       5.041   5.439  17.529  0.00  0.00    +0.000 A 
ATOM      5  C   UNL     1       4.888   5.225  16.159  0.00  0.00    +0.000 A 
ATOM      6  C   UNL     1       5.945   4.668  15.442  0.00  0.00    +0.000 A 
ATOM      7  C   UNL     1       7.136   4.381  16.097  0.00  0.00    +0.000 A 
ATOM      8  C   UNL     1       7.204   4.627  17.456  0.00  0.00    +0.000 A 
ATOM      9  N   UNL     1       6.173   5.103  18.190  0.00  0.00    +0.000 NA
ENDROOT
BRANCH   2  10
ATOM     10  C   UNL     1       2.322   7.868  18.688  0.00  0.00    +0.000 A 
ATOM     11  C   UNL     1       2.119   7.461  20.018  0.00  0.00    +0.000 A 
ATOM     12  C   UNL     1       1.232   8.144  20.856  0.00  0.00    +0.000 A 
ATOM     13  C   UNL     1       0.575   9.279  20.389  0.00  0.00    +0.000 A 
ATOM     14  C   UNL     1       0.747   9.662  19.064  0.00  0.00    +0.000 A 
ATOM     15  C   UNL     1       1.516   8.893  18.186  0.00  0.00    +0.000 A 
BRANCH  14  16
ATOM     16  O   UNL     1       0.196  10.848  18.539  0.00  0.00    +0.000 OA
BRANCH  16  17
ATOM     17  C   UNL     1      -1.197  10.974  18.571  0.00  0.00    +0.000 C 
ATOM     18  C   UNL     1      -1.809  10.135  17.486  0.00  0.00    +0.000 C 
ATOM     19  O   UNL     1      -1.857  11.631  19.365  0.00  0.00    +0.000 OA
ENDBRANCH  16  17
ENDBRANCH  14  16
ENDBRANCH   2  10
BRANCH   1  20
ATOM     20  C   UNL     1       3.681   5.151  19.520  0.00  0.00    +0.000 C 
BRANCH  20  21
ATOM     21  C   UNL     1       3.052   3.781  19.264  0.00  0.00    +0.000 C 
BRANCH  21  22
ATOM     22  C   UNL     1       1.615   3.956  18.856  0.00  0.00    +0.000 C 
ATOM     23  O   UNL     1       1.237   4.086  17.703  0.00  0.00    +0.000 OA
BRANCH  22  25
ATOM     24  C   UNL     1       1.204   3.008  20.965  0.00  0.00    +0.000 C 
ATOM     25  O   UNL     1       0.825   3.952  19.964  0.00  0.00    +0.000 OA
ENDBRANCH  22  25
ENDBRANCH  21  22
ENDBRANCH  20  21
ENDBRANCH   1  20
TORSDOF 7
ENDMDL
MODEL 5
REMARK VINA RESULT:      -7.1      0.750      1.123
REMARK  Name = 
REMARK  9 active torsions:
REMARK  status: ('A' for Active; 'I' for Inactive)
REMARK    1  A    between atoms: C_1  and  O_2
REMARK    2  A    between atoms: O_2  and  C_3
REMARK    3  A    between atoms: C_3  and  C_5
REMARK    4  A    between atoms: C_5  and  C_6
REMARK    5  A    between atoms: C_6  and  N_7
REMARK    6  A    between atoms: C_8  and  C_10
REMARK    7  A    between atoms: C_14  and  O_15
REMARK    8  A    between atoms: O_15  and  C_16
REMARK    9  A    between atoms: C_16  and  C_17
REMARK                            x       y       z     vdW  Elec       q    Type
REMARK                         _______ _______ _______ _____ _____    ______ ____
ROOT
ATOM      1  N   UNL     1       3.687   4.440  18.556  0.00  0.00    +0.000 N 
ATOM      2  C   UNL     1       4.364   3.564  17.691  0.00  0.00    +0.000 C 
ATOM      3  O   UNL     1       4.112   2.353  17.636  0.00  0.00    +0.000 OA
ATOM      4  C   UNL     1       2.752   3.860  19.469  0.00  0.00    +0.000 A 
ATOM      5  C   UNL     1       1.660   3.140  18.985  0.00  0.00    +0.000 A 
ATOM      6  C   UNL     1       0.728   2.640  19.892  0.00  0.00    +0.000 A 
ATOM      7  C   UNL     1       0.931   2.832  21.252  0.00  0.00    +0.000 A 
ATOM      8  C   UNL     1       2.041   3.555  21.647  0.00  0.00    +0.000 A 
ATOM      9  N   UNL     1       2.926   4.109  20.788  0.00  0.00    +0.000 NA
ENDROOT
BRANCH   2  10
ATOM     10  C   UNL     1       5.402   4.041  16.715  0.00  0.00    +0.000 A 
ATOM     11  C   UNL     1       5.314   3.551  15.400  0.00  0.00    +0.000 A 
ATOM     12  C   UNL     1       6.116   4.072  14.380  0.00  0.00    +0.000 A 
ATOM     13  C   UNL     1       6.980   5.129  14.651  0.00  0.00    +0.000 A 
ATOM     14  C   UNL     1       7.095   5.590  15.957  0.00  0.00    +0.000 A 
ATOM     15  C   UNL     1       6.404   4.971  17.002  0.00  0.00    +0.000 A 
BRANCH  14  16
ATOM     16  O   UNL     1       7.871   6.715  16.299  0.00  0.00    +0.000 OA
BRANCH  16  17
ATOM     17  C   UNL     1       7.838   7.132  17.635  0.00  0.00    +0.000 C 
ATOM     18  C   UNL     1       7.668   8.622  17.698  0.00  0.00    +0.000 C 
ATOM     19  O   UNL     1       7.900   6.419  18.628  0.00  0.00    +0.000 OA
ENDBRANCH  16  17
ENDBRANCH  14  16
ENDBRANCH   2  10
BRANCH   1  20
ATOM     20  C   UNL     1       3.959   5.870  18.834  0.00  0.00    +0.000 C 
BRANCH  20  21
ATOM     21  C   UNL     1       3.157   6.851  17.978  0.00  0.00    +0.000 C 
BRANCH  21  22
ATOM     22  C   UNL     1       2.403   7.798  18.868  0.00  0.00    +0.000 C 
ATOM     23  O   UNL     1       1.923   7.496  19.948  0.00  0.00    +0.000 OA
BRANCH  22  25
ATOM     24  C   UNL     1       1.017   9.503  18.038  0.00  0.00    +0.000 C 
ATOM     25  O   UNL     1       2.340   9.023  18.277  0.00  0.00    +0.000 OA
ENDBRANCH  22  25
ENDBRANCH  21  22
ENDBRANCH  20  21
ENDBRANCH   1  20
TORSDOF 7
ENDMDL
MODEL 6
REMARK VINA RESULT:      -7.1      1.773      3.086
REMARK  Name = 
REMARK  9 active torsions:
REMARK  status: ('A' for Active; 'I' for Inactive)
REMARK    1  A    between atoms: C_1  and  O_2
REMARK    2  A    between atoms: O_2  and  C_3
REMARK    3  A    between atoms: C_3  and  C_5
REMARK    4  A    between atoms: C_5  and  C_6
REMARK    5  A    between atoms: C_6  and  N_7
REMARK    6  A    between atoms: C_8  and  C_10
REMARK    7  A    between atoms: C_14  and  O_15
REMARK    8  A    between atoms: O_15  and  C_16
REMARK    9  A    between atoms: C_16  and  C_17
REMARK                            x       y       z     vdW  Elec       q    Type
REMARK                         _______ _______ _______ _____ _____    ______ ____
ROOT
ATOM      1  N   UNL     1       3.660   4.673  18.209  0.00  0.00    +0.000 N 
ATOM      2  C   UNL     1       4.277   3.804  17.295  0.00  0.00    +0.000 C 
ATOM      3  O   UNL     1       4.012   2.596  17.236  0.00  0.00    +0.000 OA
ATOM      4  C   UNL     1       2.774   4.087  19.166  0.00  0.00    +0.000 A 
ATOM      5  C   UNL     1       1.649   3.384  18.736  0.00  0.00    +0.000 A 
ATOM      6  C   UNL     1       0.766   2.879  19.688  0.00  0.00    +0.000 A 
ATOM      7  C   UNL     1       1.048   3.048  21.037  0.00  0.00    +0.000 A 
ATOM      8  C   UNL     1       2.187   3.756  21.377  0.00  0.00    +0.000 A 
ATOM      9  N   UNL     1       3.026   4.315  20.477  0.00  0.00    +0.000 NA
ENDROOT
BRANCH   2  10
ATOM     10  C   UNL     1       5.262   4.286  16.267  0.00  0.00    +0.000 A 
ATOM     11  C   UNL     1       6.585   4.494  16.698  0.00  0.00    +0.000 A 
ATOM     12  C   UNL     1       7.609   4.762  15.784  0.00  0.00    +0.000 A 
ATOM     13  C   UNL     1       7.333   4.774  14.420  0.00  0.00    +0.000 A 
ATOM     14  C   UNL     1       6.021   4.605  13.995  0.00  0.00    +0.000 A 
ATOM     15  C   UNL     1       4.976   4.486  14.914  0.00  0.00    +0.000 A 
BRANCH  14  16
ATOM     16  O   UNL     1       5.671   4.509  12.634  0.00  0.00    +0.000 OA
BRANCH  16  17
ATOM     17  C   UNL     1       5.491   3.224  12.110  0.00  0.00    +0.000 C 
ATOM     18  C   UNL     1       4.170   3.145  11.398  0.00  0.00    +0.000 C 
ATOM     19  O   UNL     1       6.279   2.289  12.171  0.00  0.00    +0.000 OA
ENDBRANCH  16  17
ENDBRANCH  14  16
ENDBRANCH   2  10
BRANCH   1  20
ATOM     20  C   UNL     1       3.961   6.096  18.493  0.00  0.00    +0.000 C 
BRANCH  20  21
ATOM     21  C   UNL     1       3.269   7.092  17.562  0.00  0.00    +0.000 C 
BRANCH  21  22
ATOM     22  C   UNL     1       2.387   8.005  18.367  0.00  0.00    +0.000 C 
ATOM     23  O   UNL     1       1.834   8.998  17.923  0.00  0.00    +0.000 OA
BRANCH  22  25
ATOM     24  C   UNL     1       1.449   8.305  20.500  0.00  0.00    +0.000 C 
ATOM     25  O   UNL     1       2.316   7.554  19.649  0.00  0.00    +0.000 OA
ENDBRANCH  22  25
ENDBRANCH  21  22
ENDBRANCH  20  21
ENDBRANCH   1  20
TORSDOF 7
ENDMDL
MODEL 7
REMARK VINA RESULT:      -7.0      2.830      7.245
REMARK  Name = 
REMARK  9 active torsions:
REMARK  status: ('A' for Active; 'I' for Inactive)
REMARK    1  A    between atoms: C_1  and  O_2
REMARK    2  A    between atoms: O_2  and  C_3
REMARK    3  A    between atoms: C_3  and  C_5
REMARK    4  A    between atoms: C_5  and  C_6
REMARK    5  A    between atoms: C_6  and  N_7
REMARK    6  A    between atoms: C_8  and  C_10
REMARK    7  A    between atoms: C_14  and  O_15
REMARK    8  A    between atoms: O_15  and  C_16
REMARK    9  A    between atoms: C_16  and  C_17
REMARK                            x       y       z     vdW  Elec       q    Type
REMARK                         _______ _______ _______ _____ _____    ______ ____
ROOT
ATOM      1  N   UNL     1       2.573   6.262  19.552  0.00  0.00    +0.000 N 
ATOM      2  C   UNL     1       2.333   7.596  19.186  0.00  0.00    +0.000 C 
ATOM      3  O   UNL     1       2.896   8.137  18.224  0.00  0.00    +0.000 OA
ATOM      4  C   UNL     1       3.589   5.561  18.831  0.00  0.00    +0.000 A 
ATOM      5  C   UNL     1       3.476   5.395  17.450  0.00  0.00    +0.000 A 
ATOM      6  C   UNL     1       4.445   4.652  16.779  0.00  0.00    +0.000 A 
ATOM      7  C   UNL     1       5.520   4.136  17.490  0.00  0.00    +0.000 A 
ATOM      8  C   UNL     1       5.557   4.350  18.856  0.00  0.00    +0.000 A 
ATOM      9  N   UNL     1       4.597   5.007  19.544  0.00  0.00    +0.000 NA
ENDROOT
BRANCH   2  10
ATOM     10  C   UNL     1       1.324   8.455  19.894  0.00  0.00    +0.000 A 
ATOM     11  C   UNL     1       1.137   8.221  21.268  0.00  0.00    +0.000 A 
ATOM     12  C   UNL     1       0.361   9.084  22.048  0.00  0.00    +0.000 A 
ATOM     13  C   UNL     1      -0.195  10.224  21.476  0.00  0.00    +0.000 A 
ATOM     14  C   UNL     1      -0.041  10.438  20.111  0.00  0.00    +0.000 A 
ATOM     15  C   UNL     1       0.607   9.499  19.304  0.00  0.00    +0.000 A 
BRANCH  14  16
ATOM     16  O   UNL     1      -0.489  11.611  19.472  0.00  0.00    +0.000 OA
BRANCH  16  17
ATOM     17  C   UNL     1      -1.869  11.838  19.448  0.00  0.00    +0.000 C 
ATOM     18  C   UNL     1      -2.495  11.054  18.330  0.00  0.00    +0.000 C 
ATOM     19  O   UNL     1      -2.512  12.535  20.222  0.00  0.00    +0.000 OA
ENDBRANCH  16  17
ENDBRANCH  14  16
ENDBRANCH   2  10
BRANCH   1  20
ATOM     20  C   UNL     1       2.089   5.519  20.740  0.00  0.00    +0.000 C 
BRANCH  20  21
ATOM     21  C   UNL     1       1.132   4.369  20.428  0.00  0.00    +0.000 C 
BRANCH  21  22
ATOM     22  C   UNL     1       1.664   3.095  21.024  0.00  0.00    +0.000 C 
ATOM     23  O   UNL     1       1.362   2.671  22.128  0.00  0.00    +0.000 OA
BRANCH  22  25
ATOM     24  C   UNL     1       1.960   2.179  18.881  0.00  0.00    +0.000 C 
ATOM     25  O   UNL     1       2.527   2.510  20.149  0.00  0.00    +0.000 OA
ENDBRANCH  22  25
ENDBRANCH  21  22
ENDBRANCH  20  21
ENDBRANCH   1  20
TORSDOF 7
ENDMDL
MODEL 8
REMARK VINA RESULT:      -7.0      2.247      6.760
REMARK  Name = 
REMARK  9 active torsions:
REMARK  status: ('A' for Active; 'I' for Inactive)
REMARK    1  A    between atoms: C_1  and  O_2
REMARK    2  A    between atoms: O_2  and  C_3
REMARK    3  A    between atoms: C_3  and  C_5
REMARK    4  A    between atoms: C_5  and  C_6
REMARK    5  A    between atoms: C_6  and  N_7
REMARK    6  A    between atoms: C_8  and  C_10
REMARK    7  A    between atoms: C_14  and  O_15
REMARK    8  A    between atoms: O_15  and  C_16
REMARK    9  A    between atoms: C_16  and  C_17
REMARK                            x       y       z     vdW  Elec       q    Type
REMARK                         _______ _______ _______ _____ _____    ______ ____
ROOT
ATOM      1  N   UNL     1       4.073   5.912  18.371  0.00  0.00    +0.000 N 
ATOM      2  C   UNL     1       3.488   7.108  17.926  0.00  0.00    +0.000 C 
ATOM      3  O   UNL     1       3.800   7.648  16.855  0.00  0.00    +0.000 OA
ATOM      4  C   UNL     1       5.144   5.380  17.586  0.00  0.00    +0.000 A 
ATOM      5  C   UNL     1       4.926   5.036  16.252  0.00  0.00    +0.000 A 
ATOM      6  C   UNL     1       5.966   4.459  15.527  0.00  0.00    +0.000 A 
ATOM      7  C   UNL     1       7.202   4.281  16.133  0.00  0.00    +0.000 A 
ATOM      8  C   UNL     1       7.334   4.652  17.459  0.00  0.00    +0.000 A 
ATOM      9  N   UNL     1       6.324   5.151  18.207  0.00  0.00    +0.000 NA
ENDROOT
BRANCH   2  10
ATOM     10  C   UNL     1       2.385   7.794  18.682  0.00  0.00    +0.000 A 
ATOM     11  C   UNL     1       2.180   7.393  20.014  0.00  0.00    +0.000 A 
ATOM     12  C   UNL     1       1.307   8.094  20.853  0.00  0.00    +0.000 A 
ATOM     13  C   UNL     1       0.668   9.239  20.386  0.00  0.00    +0.000 A 
ATOM     14  C   UNL     1       0.842   9.616  19.059  0.00  0.00    +0.000 A 
ATOM     15  C   UNL     1       1.595   8.832  18.181  0.00  0.00    +0.000 A 
BRANCH  14  16
ATOM     16  O   UNL     1       0.310  10.809  18.533  0.00  0.00    +0.000 OA
BRANCH  16  17
ATOM     17  C   UNL     1      -1.080  10.960  18.570  0.00  0.00    +0.000 C 
ATOM     18  C   UNL     1      -1.711  10.125  17.492  0.00  0.00    +0.000 C 
ATOM     19  O   UNL     1      -1.726  11.633  19.363  0.00  0.00    +0.000 OA
ENDBRANCH  16  17
ENDBRANCH  14  16
ENDBRANCH   2  10
BRANCH   1  20
ATOM     20  C   UNL     1       3.909   5.221  19.672  0.00  0.00    +0.000 C 
BRANCH  20  21
ATOM     21  C   UNL     1       2.968   4.016  19.639  0.00  0.00    +0.000 C 
BRANCH  21  22
ATOM     22  C   UNL     1       3.774   2.750  19.558  0.00  0.00    +0.000 C 
ATOM     23  O   UNL     1       4.898   2.617  20.012  0.00  0.00    +0.000 OA
BRANCH  22  25
ATOM     24  C   UNL     1       2.510   2.220  17.650  0.00  0.00    +0.000 C 
ATOM     25  O   UNL     1       3.058   1.798  18.899  0.00  0.00    +0.000 OA
ENDBRANCH  22  25
ENDBRANCH  21  22
ENDBRANCH  20  21
ENDBRANCH   1  20
TORSDOF 7
ENDMDL
MODEL 9
REMARK VINA RESULT:      -7.0      3.275      5.693
REMARK  Name = 
REMARK  9 active torsions:
REMARK  status: ('A' for Active; 'I' for Inactive)
REMARK    1  A    between atoms: C_1  and  O_2
REMARK    2  A    between atoms: O_2  and  C_3
REMARK    3  A    between atoms: C_3  and  C_5
REMARK    4  A    between atoms: C_5  and  C_6
REMARK    5  A    between atoms: C_6  and  N_7
REMARK    6  A    between atoms: C_8  and  C_10
REMARK    7  A    between atoms: C_14  and  O_15
REMARK    8  A    between atoms: O_15  and  C_16
REMARK    9  A    between atoms: C_16  and  C_17
REMARK                            x       y       z     vdW  Elec       q    Type
REMARK                         _______ _______ _______ _____ _____    ______ ____
ROOT
ATOM      1  N   UNL     1       1.458   8.911  19.282  0.00  0.00    +0.000 N 
ATOM      2  C   UNL     1       2.136   8.374  18.175  0.00  0.00    +0.000 C 
ATOM      3  O   UNL     1       2.273   8.993  17.111  0.00  0.00    +0.000 OA
ATOM      4  C   UNL     1       0.822  10.179  19.103  0.00  0.00    +0.000 A 
ATOM      5  C   UNL     1       1.579  11.294  18.746  0.00  0.00    +0.000 A 
ATOM      6  C   UNL     1       0.948  12.532  18.643  0.00  0.00    +0.000 A 
ATOM      7  C   UNL     1      -0.422  12.617  18.852  0.00  0.00    +0.000 A 
ATOM      8  C   UNL     1      -1.098  11.462  19.200  0.00  0.00    +0.000 A 
ATOM      9  N   UNL     1      -0.502  10.262  19.374  0.00  0.00    +0.000 NA
ENDROOT
BRANCH   2  10
ATOM     10  C   UNL     1       2.807   7.031  18.218  0.00  0.00    +0.000 A 
ATOM     11  C   UNL     1       1.990   5.902  18.031  0.00  0.00    +0.000 A 
ATOM     12  C   UNL     1       2.544   4.627  17.870  0.00  0.00    +0.000 A 
ATOM     13  C   UNL     1       3.927   4.472  17.842  0.00  0.00    +0.000 A 
ATOM     14  C   UNL     1       4.735   5.581  18.062  0.00  0.00    +0.000 A 
ATOM     15  C   UNL     1       4.181   6.826  18.371  0.00  0.00    +0.000 A 
BRANCH  14  16
ATOM     16  O   UNL     1       6.139   5.530  17.956  0.00  0.00    +0.000 OA
BRANCH  16  17
ATOM     17  C   UNL     1       6.732   6.306  16.954  0.00  0.00    +0.000 C 
ATOM     18  C   UNL     1       7.655   7.316  17.572  0.00  0.00    +0.000 C 
ATOM     19  O   UNL     1       6.576   6.189  15.745  0.00  0.00    +0.000 OA
ENDBRANCH  16  17
ENDBRANCH  14  16
ENDBRANCH   2  10
BRANCH   1  20
ATOM     20  C   UNL     1       1.095   8.256  20.561  0.00  0.00    +0.000 C 
BRANCH  20  21
ATOM     21  C   UNL     1       1.274   9.133  21.800  0.00  0.00    +0.000 C 
BRANCH  21  22
ATOM     22  C   UNL     1      -0.019   9.194  22.565  0.00  0.00    +0.000 C 
ATOM     23  O   UNL     1      -0.897   8.350  22.504  0.00  0.00    +0.000 OA
BRANCH  22  25
ATOM     24  C   UNL     1      -1.073  11.258  22.952  0.00  0.00    +0.000 C 
ATOM     25  O   UNL     1      -0.050  10.330  23.315  0.00  0.00    +0.000 OA
ENDBRANCH  22  25
ENDBRANCH  21  22
ENDBRANCH  20  21
ENDBRANCH   1  20
TORSDOF 7
ENDMDL
