MODEL 1
REMARK VINA RESULT:      -6.7      0.000      0.000
REMARK  Name = 
REMARK  10 active torsions:
REMARK  status: ('A' for Active; 'I' for Inactive)
REMARK    1  A    between atoms: C_1  and  C_2
REMARK    2  A    between atoms: C_2  and  O_3
REMARK    3  A    between atoms: O_3  and  C_4
REMARK    4  A    between atoms: C_8  and  C_9
REMARK    5  A    between atoms: C_9  and  C_10
REMARK    6  A    between atoms: C_14  and  N_15
REMARK    7  A    between atoms: N_15  and  C_16
REMARK    8  A    between atoms: C_16  and  C_17
REMARK    9  A    between atoms: C_17  and  C_18
REMARK   10  A    between atoms: C_18  and  O_20
REMARK                            x       y       z     vdW  Elec       q    Type
REMARK                         _______ _______ _______ _____ _____    ______ ____
ROOT
ATOM      1  C   UNL     1       5.998   4.195  15.153  0.00  0.00    +0.000 A 
ATOM      2  C   UNL     1       7.024   5.279  14.985  0.00  0.00    +0.000 A 
ATOM      3  N   UNL     1       7.553   6.022  15.907  0.00  0.00    +0.000 NA
ATOM      4  C   UNL     1       7.117   5.770  17.172  0.00  0.00    +0.000 A 
ATOM      5  C   UNL     1       7.459   6.359  18.369  0.00  0.00    +0.000 A 
ATOM      6  C   UNL     1       6.702   5.656  19.329  0.00  0.00    +0.000 A 
ATOM      7  N   UNL     1       5.931   4.703  18.802  0.00  0.00    +0.000 NA
ATOM      8  N   UNL     1       6.176   4.777  17.455  0.00  0.00    +0.000 N 
ATOM      9  C   UNL     1       5.611   3.966  16.431  0.00  0.00    +0.000 A 
ENDROOT
BRANCH   5  10
ATOM     10  C   UNL     1       8.421   7.477  18.576  0.00  0.00    +0.000 C 
ATOM     11  C   UNL     1       7.996   8.750  17.859  0.00  0.00    +0.000 C 
ENDBRANCH   5  10
BRANCH   9  12
ATOM     12  N   UNL     1       4.676   2.994  16.845  0.00  0.00    +0.000 N 
ATOM     13  H   UNL     1       4.886   2.098  16.394  0.00  0.00    +0.000 HD
BRANCH  12  14
ATOM     14  C   UNL     1       3.243   3.281  16.973  0.00  0.00    +0.000 C 
BRANCH  14  15
ATOM     15  C   UNL     1       2.600   2.366  18.013  0.00  0.00    +0.000 C 
BRANCH  15  16
ATOM     16  C   UNL     1       3.658   1.712  18.864  0.00  0.00    +0.000 C 
ATOM     17  O   UNL     1       4.121   2.175  19.894  0.00  0.00    +0.000 OA
BRANCH  16  18
ATOM     18  O   UNL     1       4.067   0.520  18.368  0.00  0.00    +0.000 OA
ATOM     19  H   UNL     1       4.666   0.588  17.600  0.00  0.00    +0.000 HD
ENDBRANCH  16  18
ENDBRANCH  15  16
ENDBRANCH  14  15
ENDBRANCH  12  14
ENDBRANCH   9  12
BRANCH   1  20
ATOM     20  O   UNL     1       5.460   3.492  14.085  0.00  0.00    +0.000 OA
BRANCH  20  22
ATOM     21  C   UNL     1       5.487   2.717  11.811  0.00  0.00    +0.000 C 
ATOM     22  C   UNL     1       6.143   3.617  12.839  0.00  0.00    +0.000 C 
ENDBRANCH  20  22
ENDBRANCH   1  20
TORSDOF 8
ENDMDL
MODEL 2
REMARK VINA RESULT:      -6.7      2.375      5.764
REMARK  Name = 
REMARK  10 active torsions:
REMARK  status: ('A' for Active; 'I' for Inactive)
REMARK    1  A    between atoms: C_1  and  C_2
REMARK    2  A    between atoms: C_2  and  O_3
REMARK    3  A    between atoms: O_3  and  C_4
REMARK    4  A    between atoms: C_8  and  C_9
REMARK    5  A    between atoms: C_9  and  C_10
REMARK    6  A    between atoms: C_14  and  N_15
REMARK    7  A    between atoms: N_15  and  C_16
REMARK    8  A    between atoms: C_16  and  C_17
REMARK    9  A    between atoms: C_17  and  C_18
REMARK   10  A    between atoms: C_18  and  O_20
REMARK                            x       y       z     vdW  Elec       q    Type
REMARK                         _______ _______ _______ _____ _____    ______ ____
ROOT
ATOM      1  C   UNL     1       6.071   5.002  17.962  0.00  0.00    +0.000 A 
ATOM      2  C   UNL     1       5.433   5.301  19.288  0.00  0.00    +0.000 A 
ATOM      3  N   UNL     1       4.364   4.768  19.793  0.00  0.00    +0.000 NA
ATOM      4  C   UNL     1       3.767   3.823  19.017  0.00  0.00    +0.000 A 
ATOM      5  C   UNL     1       2.636   3.068  19.236  0.00  0.00    +0.000 A 
ATOM      6  C   UNL     1       2.540   2.248  18.094  0.00  0.00    +0.000 A 
ATOM      7  N   UNL     1       3.514   2.458  17.206  0.00  0.00    +0.000 NA
ATOM      8  N   UNL     1       4.276   3.448  17.770  0.00  0.00    +0.000 N 
ATOM      9  C   UNL     1       5.455   4.039  17.234  0.00  0.00    +0.000 A 
ENDROOT
BRANCH   5  10
ATOM     10  C   UNL     1       1.742   3.119  20.427  0.00  0.00    +0.000 C 
ATOM     11  C   UNL     1       0.990   4.437  20.533  0.00  0.00    +0.000 C 
ENDBRANCH   5  10
BRANCH   9  12
ATOM     12  N   UNL     1       5.871   3.571  15.970  0.00  0.00    +0.000 N 
ATOM     13  H   UNL     1       6.870   3.343  15.998  0.00  0.00    +0.000 HD
BRANCH  12  14
ATOM     14  C   UNL     1       5.431   4.191  14.715  0.00  0.00    +0.000 C 
BRANCH  14  15
ATOM     15  C   UNL     1       6.467   3.974  13.614  0.00  0.00    +0.000 C 
BRANCH  15  16
ATOM     16  C   UNL     1       7.482   5.088  13.619  0.00  0.00    +0.000 C 
ATOM     17  O   UNL     1       7.977   5.595  12.625  0.00  0.00    +0.000 OA
BRANCH  16  18
ATOM     18  O   UNL     1       7.809   5.494  14.868  0.00  0.00    +0.000 OA
ATOM     19  H   UNL     1       8.739   5.326  15.116  0.00  0.00    +0.000 HD
ENDBRANCH  16  18
ENDBRANCH  15  16
ENDBRANCH  14  15
ENDBRANCH  12  14
ENDBRANCH   9  12
BRANCH   1  20
ATOM     20  O   UNL     1       7.193   5.671  17.494  0.00  0.00    +0.000 OA
BRANCH  20  22
ATOM     21  C   UNL     1       7.742   8.005  17.644  0.00  0.00    +0.000 C 
ATOM     22  C   UNL     1       7.737   6.668  18.357  0.00  0.00    +0.000 C 
ENDBRANCH  20  22
ENDBRANCH   1  20
TORSDOF 8
ENDMDL
MODEL 3
REMARK VINA RESULT:      -6.7      2.631      5.903
REMARK  Name = 
REMARK  10 active torsions:
REMARK  status: ('A' for Active; 'I' for Inactive)
REMARK    1  A    between atoms: C_1  and  C_2
REMARK    2  A    between atoms: C_2  and  O_3
REMARK    3  A    between atoms: O_3  and  C_4
REMARK    4  A    between atoms: C_8  and  C_9
REMARK    5  A    between atoms: C_9  and  C_10
REMARK    6  A    between atoms: C_14  and  N_15
REMARK    7  A    between atoms: N_15  and  C_16
REMARK    8  A    between atoms: C_16  and  C_17
REMARK    9  A    between atoms: C_17  and  C_18
REMARK   10  A    between atoms: C_18  and  O_20
REMARK                            x       y       z     vdW  Elec       q    Type
REMARK                         _______ _______ _______ _____ _____    ______ ____
ROOT
ATOM      1  C   UNL     1       5.067   5.680  17.952  0.00  0.00    +0.000 A 
ATOM      2  C   UNL     1       4.532   5.819  19.349  0.00  0.00    +0.000 A 
ATOM      3  N   UNL     1       3.505   5.222  19.869  0.00  0.00    +0.000 NA
ATOM      4  C   UNL     1       2.853   4.365  19.037  0.00  0.00    +0.000 A 
ATOM      5  C   UNL     1       1.743   3.578  19.254  0.00  0.00    +0.000 A 
ATOM      6  C   UNL     1       1.560   2.894  18.036  0.00  0.00    +0.000 A 
ATOM      7  N   UNL     1       2.464   3.213  17.106  0.00  0.00    +0.000 NA
ATOM      8  N   UNL     1       3.266   4.140  17.721  0.00  0.00    +0.000 N 
ATOM      9  C   UNL     1       4.399   4.801  17.168  0.00  0.00    +0.000 A 
ENDROOT
BRANCH   5  10
ATOM     10  C   UNL     1       0.943   3.484  20.507  0.00  0.00    +0.000 C 
ATOM     11  C   UNL     1       1.646   2.677  21.587  0.00  0.00    +0.000 C 
ENDBRANCH   5  10
BRANCH   9  12
ATOM     12  N   UNL     1       4.718   4.484  15.830  0.00  0.00    +0.000 N 
ATOM     13  H   UNL     1       3.868   4.205  15.329  0.00  0.00    +0.000 HD
BRANCH  12  14
ATOM     14  C   UNL     1       5.912   3.714  15.465  0.00  0.00    +0.000 C 
BRANCH  14  15
ATOM     15  C   UNL     1       6.268   3.935  13.997  0.00  0.00    +0.000 C 
BRANCH  15  16
ATOM     16  C   UNL     1       7.294   5.030  13.863  0.00  0.00    +0.000 C 
ATOM     17  O   UNL     1       7.835   5.367  12.822  0.00  0.00    +0.000 OA
BRANCH  16  18
ATOM     18  O   UNL     1       7.575   5.631  15.043  0.00  0.00    +0.000 OA
ATOM     19  H   UNL     1       7.993   5.046  15.704  0.00  0.00    +0.000 HD
ENDBRANCH  16  18
ENDBRANCH  15  16
ENDBRANCH  14  15
ENDBRANCH  12  14
ENDBRANCH   9  12
BRANCH   1  20
ATOM     20  O   UNL     1       6.149   6.410  17.481  0.00  0.00    +0.000 OA
BRANCH  20  22
ATOM     21  C   UNL     1       7.869   5.014  18.411  0.00  0.00    +0.000 C 
ATOM     22  C   UNL     1       7.311   6.419  18.308  0.00  0.00    +0.000 C 
ENDBRANCH  20  22
ENDBRANCH   1  20
TORSDOF 8
ENDMDL
MODEL 4
REMARK VINA RESULT:      -6.6      2.280      5.737
REMARK  Name = 
REMARK  10 active torsions:
REMARK  status: ('A' for Active; 'I' for Inactive)
REMARK    1  A    between atoms: C_1  and  C_2
REMARK    2  A    between atoms: C_2  and  O_3
REMARK    3  A    between atoms: O_3  and  C_4
REMARK    4  A    between atoms: C_8  and  C_9
REMARK    5  A    between atoms: C_9  and  C_10
REMARK    6  A    between atoms: C_14  and  N_15
REMARK    7  A    between atoms: N_15  and  C_16
REMARK    8  A    between atoms: C_16  and  C_17
REMARK    9  A    between atoms: C_17  and  C_18
REMARK   10  A    between atoms: C_18  and  O_20
REMARK                            x       y       z     vdW  Elec       q    Type
REMARK                         _______ _______ _______ _____ _____    ______ ____
ROOT
ATOM      1  C   UNL     1       6.101   5.004  18.051  0.00  0.00    +0.000 A 
ATOM      2  C   UNL     1       5.362   5.456  19.278  0.00  0.00    +0.000 A 
ATOM      3  N   UNL     1       4.157   5.143  19.639  0.00  0.00    +0.000 NA
ATOM      4  C   UNL     1       3.503   4.297  18.798  0.00  0.00    +0.000 A 
ATOM      5  C   UNL     1       2.233   3.767  18.870  0.00  0.00    +0.000 A 
ATOM      6  C   UNL     1       2.136   2.943  17.731  0.00  0.00    +0.000 A 
ATOM      7  N   UNL     1       3.239   2.944  16.980  0.00  0.00    +0.000 NA
ATOM      8  N   UNL     1       4.091   3.796  17.633  0.00  0.00    +0.000 N 
ATOM      9  C   UNL     1       5.418   4.146  17.254  0.00  0.00    +0.000 A 
ENDROOT
BRANCH   5  10
ATOM     10  C   UNL     1       1.217   4.018  19.930  0.00  0.00    +0.000 C 
ATOM     11  C   UNL     1       1.345   3.053  21.099  0.00  0.00    +0.000 C 
ENDBRANCH   5  10
BRANCH   9  12
ATOM     12  N   UNL     1       5.901   3.570  16.060  0.00  0.00    +0.000 N 
ATOM     13  H   UNL     1       6.592   2.845  16.282  0.00  0.00    +0.000 HD
BRANCH  12  14
ATOM     14  C   UNL     1       6.229   4.370  14.875  0.00  0.00    +0.000 C 
BRANCH  14  15
ATOM     15  C   UNL     1       5.403   3.916  13.673  0.00  0.00    +0.000 C 
BRANCH  15  16
ATOM     16  C   UNL     1       6.305   3.523  12.532  0.00  0.00    +0.000 C 
ATOM     17  O   UNL     1       7.176   4.228  12.047  0.00  0.00    +0.000 OA
BRANCH  16  18
ATOM     18  O   UNL     1       6.057   2.274  12.074  0.00  0.00    +0.000 OA
ATOM     19  H   UNL     1       6.419   1.560  12.634  0.00  0.00    +0.000 HD
ENDBRANCH  16  18
ENDBRANCH  15  16
ENDBRANCH  14  15
ENDBRANCH  12  14
ENDBRANCH   9  12
BRANCH   1  20
ATOM     20  O   UNL     1       7.378   5.443  17.732  0.00  0.00    +0.000 OA
BRANCH  20  22
ATOM     21  C   UNL     1       7.735   7.813  17.562  0.00  0.00    +0.000 C 
ATOM     22  C   UNL     1       7.847   6.586  18.445  0.00  0.00    +0.000 C 
ENDBRANCH  20  22
ENDBRANCH   1  20
TORSDOF 8
ENDMDL
MODEL 5
REMARK VINA RESULT:      -6.4      2.606      4.924
REMARK  Name = 
REMARK  10 active torsions:
REMARK  status: ('A' for Active; 'I' for Inactive)
REMARK    1  A    between atoms: C_1  and  C_2
REMARK    2  A    between atoms: C_2  and  O_3
REMARK    3  A    between atoms: O_3  and  C_4
REMARK    4  A    between atoms: C_8  and  C_9
REMARK    5  A    between atoms: C_9  and  C_10
REMARK    6  A    between atoms: C_14  and  N_15
REMARK    7  A    between atoms: N_15  and  C_16
REMARK    8  A    between atoms: C_16  and  C_17
REMARK    9  A    between atoms: C_17  and  C_18
REMARK   10  A    between atoms: C_18  and  O_20
REMARK                            x       y       z     vdW  Elec       q    Type
REMARK                         _______ _______ _______ _____ _____    ______ ____
ROOT
ATOM      1  C   UNL     1       4.789   4.131  16.541  0.00  0.00    +0.000 A 
ATOM      2  C   UNL     1       3.843   3.084  17.054  0.00  0.00    +0.000 A 
ATOM      3  N   UNL     1       2.963   3.204  17.999  0.00  0.00    +0.000 NA
ATOM      4  C   UNL     1       2.899   4.434  18.576  0.00  0.00    +0.000 A 
ATOM      5  C   UNL     1       2.096   4.906  19.591  0.00  0.00    +0.000 A 
ATOM      6  C   UNL     1       2.470   6.258  19.729  0.00  0.00    +0.000 A 
ATOM      7  N   UNL     1       3.437   6.630  18.887  0.00  0.00    +0.000 NA
ATOM      8  N   UNL     1       3.717   5.493  18.174  0.00  0.00    +0.000 N 
ATOM      9  C   UNL     1       4.675   5.345  17.131  0.00  0.00    +0.000 A 
ENDROOT
BRANCH   5  10
ATOM     10  C   UNL     1       1.065   4.141  20.347  0.00  0.00    +0.000 C 
ATOM     11  C   UNL     1       1.677   3.161  21.336  0.00  0.00    +0.000 C 
ENDBRANCH   5  10
BRANCH   9  12
ATOM     12  N   UNL     1       5.436   6.490  16.812  0.00  0.00    +0.000 N 
ATOM     13  H   UNL     1       5.054   6.936  15.972  0.00  0.00    +0.000 HD
BRANCH  12  14
ATOM     14  C   UNL     1       6.901   6.509  16.889  0.00  0.00    +0.000 C 
BRANCH  14  15
ATOM     15  C   UNL     1       7.362   6.744  18.326  0.00  0.00    +0.000 C 
BRANCH  15  16
ATOM     16  C   UNL     1       7.785   5.446  18.962  0.00  0.00    +0.000 C 
ATOM     17  O   UNL     1       8.002   4.404  18.363  0.00  0.00    +0.000 OA
BRANCH  16  18
ATOM     18  O   UNL     1       7.908   5.537  20.307  0.00  0.00    +0.000 OA
ATOM     19  H   UNL     1       7.539   6.356  20.691  0.00  0.00    +0.000 HD
ENDBRANCH  16  18
ENDBRANCH  15  16
ENDBRANCH  14  15
ENDBRANCH  12  14
ENDBRANCH   9  12
BRANCH   1  20
ATOM     20  O   UNL     1       5.732   3.880  15.554  0.00  0.00    +0.000 OA
BRANCH  20  22
ATOM     21  C   UNL     1       6.261   3.654  13.221  0.00  0.00    +0.000 C 
ATOM     22  C   UNL     1       5.439   4.395  14.257  0.00  0.00    +0.000 C 
ENDBRANCH  20  22
ENDBRANCH   1  20
TORSDOF 8
ENDMDL
MODEL 6
REMARK VINA RESULT:      -6.3      2.467      5.618
REMARK  Name = 
REMARK  10 active torsions:
REMARK  status: ('A' for Active; 'I' for Inactive)
REMARK    1  A    between atoms: C_1  and  C_2
REMARK    2  A    between atoms: C_2  and  O_3
REMARK    3  A    between atoms: O_3  and  C_4
REMARK    4  A    between atoms: C_8  and  C_9
REMARK    5  A    between atoms: C_9  and  C_10
REMARK    6  A    between atoms: C_14  and  N_15
REMARK    7  A    between atoms: N_15  and  C_16
REMARK    8  A    between atoms: C_16  and  C_17
REMARK    9  A    between atoms: C_17  and  C_18
REMARK   10  A    between atoms: C_18  and  O_20
REMARK                            x       y       z     vdW  Elec       q    Type
REMARK                         _______ _______ _______ _____ _____    ______ ____
ROOT
ATOM      1  C   UNL     1       6.954   6.084  17.603  0.00  0.00    +0.000 A 
ATOM      2  C   UNL     1       6.920   5.640  19.038  0.00  0.00    +0.000 A 
ATOM      3  N   UNL     1       6.136   4.761  19.579  0.00  0.00    +0.000 NA
ATOM      4  C   UNL     1       5.248   4.177  18.728  0.00  0.00    +0.000 A 
ATOM      5  C   UNL     1       4.284   3.221  18.959  0.00  0.00    +0.000 A 
ATOM      6  C   UNL     1       3.707   2.998  17.692  0.00  0.00    +0.000 A 
ATOM      7  N   UNL     1       4.241   3.749  16.727  0.00  0.00    +0.000 NA
ATOM      8  N   UNL     1       5.195   4.496  17.369  0.00  0.00    +0.000 N 
ATOM      9  C   UNL     1       6.068   5.460  16.790  0.00  0.00    +0.000 A 
ENDROOT
BRANCH   5  10
ATOM     10  C   UNL     1       3.955   2.576  20.261  0.00  0.00    +0.000 C 
ATOM     11  C   UNL     1       2.673   3.122  20.873  0.00  0.00    +0.000 C 
ENDBRANCH   5  10
BRANCH   9  12
ATOM     12  N   UNL     1       5.920   5.689  15.406  0.00  0.00    +0.000 N 
ATOM     13  H   UNL     1       4.925   5.680  15.159  0.00  0.00    +0.000 HD
BRANCH  12  14
ATOM     14  C   UNL     1       6.793   5.065  14.405  0.00  0.00    +0.000 C 
BRANCH  14  15
ATOM     15  C   UNL     1       6.254   3.695  13.999  0.00  0.00    +0.000 C 
BRANCH  15  16
ATOM     16  C   UNL     1       6.161   3.590  12.499  0.00  0.00    +0.000 C 
ATOM     17  O   UNL     1       5.237   3.081  11.884  0.00  0.00    +0.000 OA
BRANCH  16  18
ATOM     18  O   UNL     1       7.231   4.128  11.868  0.00  0.00    +0.000 OA
ATOM     19  H   UNL     1       7.578   3.587  11.132  0.00  0.00    +0.000 HD
ENDBRANCH  16  18
ENDBRANCH  15  16
ENDBRANCH  14  15
ENDBRANCH  12  14
ENDBRANCH   9  12
BRANCH   1  20
ATOM     20  O   UNL     1       7.806   7.075  17.138  0.00  0.00    +0.000 OA
BRANCH  20  22
ATOM     21  C   UNL     1       8.538   9.012  18.356  0.00  0.00    +0.000 C 
ATOM     22  C   UNL     1       7.457   8.416  17.476  0.00  0.00    +0.000 C 
ENDBRANCH  20  22
ENDBRANCH   1  20
TORSDOF 8
ENDMDL
MODEL 7
REMARK VINA RESULT:      -6.3      1.081      1.152
REMARK  Name = 
REMARK  10 active torsions:
REMARK  status: ('A' for Active; 'I' for Inactive)
REMARK    1  A    between atoms: C_1  and  C_2
REMARK    2  A    between atoms: C_2  and  O_3
REMARK    3  A    between atoms: O_3  and  C_4
REMARK    4  A    between atoms: C_8  and  C_9
REMARK    5  A    between atoms: C_9  and  C_10
REMARK    6  A    between atoms: C_14  and  N_15
REMARK    7  A    between atoms: N_15  and  C_16
REMARK    8  A    between atoms: C_16  and  C_17
REMARK    9  A    between atoms: C_17  and  C_18
REMARK   10  A    between atoms: C_18  and  O_20
REMARK                            x       y       z     vdW  Elec       q    Type
REMARK                         _______ _______ _______ _____ _____    ______ ____
ROOT
ATOM      1  C   UNL     1       5.992   4.118  15.193  0.00  0.00    +0.000 A 
ATOM      2  C   UNL     1       6.939   5.266  14.988  0.00  0.00    +0.000 A 
ATOM      3  N   UNL     1       7.464   6.034  15.891  0.00  0.00    +0.000 NA
ATOM      4  C   UNL     1       7.109   5.744  17.173  0.00  0.00    +0.000 A 
ATOM      5  C   UNL     1       7.472   6.344  18.359  0.00  0.00    +0.000 A 
ATOM      6  C   UNL     1       6.811   5.585  19.346  0.00  0.00    +0.000 A 
ATOM      7  N   UNL     1       6.076   4.589  18.847  0.00  0.00    +0.000 NA
ATOM      8  N   UNL     1       6.249   4.690  17.491  0.00  0.00    +0.000 N 
ATOM      9  C   UNL     1       5.685   3.854  16.486  0.00  0.00    +0.000 A 
ENDROOT
BRANCH   5  10
ATOM     10  C   UNL     1       8.370   7.519  18.531  0.00  0.00    +0.000 C 
ATOM     11  C   UNL     1       7.875   8.745  17.778  0.00  0.00    +0.000 C 
ENDBRANCH   5  10
BRANCH   9  12
ATOM     12  N   UNL     1       4.836   2.820  16.934  0.00  0.00    +0.000 N 
ATOM     13  H   UNL     1       4.895   2.022  16.294  0.00  0.00    +0.000 HD
BRANCH  12  14
ATOM     14  C   UNL     1       3.488   3.076  17.453  0.00  0.00    +0.000 C 
BRANCH  14  15
ATOM     15  C   UNL     1       3.007   1.904  18.306  0.00  0.00    +0.000 C 
BRANCH  15  16
ATOM     16  C   UNL     1       1.791   2.297  19.104  0.00  0.00    +0.000 C 
ATOM     17  O   UNL     1       1.748   2.400  20.320  0.00  0.00    +0.000 OA
BRANCH  16  18
ATOM     18  O   UNL     1       0.709   2.535  18.326  0.00  0.00    +0.000 OA
ATOM     19  H   UNL     1      -0.147   2.366  18.765  0.00  0.00    +0.000 HD
ENDBRANCH  16  18
ENDBRANCH  15  16
ENDBRANCH  14  15
ENDBRANCH  12  14
ENDBRANCH   9  12
BRANCH   1  20
ATOM     20  O   UNL     1       5.448   3.391  14.145  0.00  0.00    +0.000 OA
BRANCH  20  22
ATOM     21  C   UNL     1       5.069   3.210  11.779  0.00  0.00    +0.000 C 
ATOM     22  C   UNL     1       6.060   3.569  12.869  0.00  0.00    +0.000 C 
ENDBRANCH  20  22
ENDBRANCH   1  20
TORSDOF 8
ENDMDL
MODEL 8
REMARK VINA RESULT:      -6.2      2.522      5.808
REMARK  Name = 
REMARK  10 active torsions:
REMARK  status: ('A' for Active; 'I' for Inactive)
REMARK    1  A    between atoms: C_1  and  C_2
REMARK    2  A    between atoms: C_2  and  O_3
REMARK    3  A    between atoms: O_3  and  C_4
REMARK    4  A    between atoms: C_8  and  C_9
REMARK    5  A    between atoms: C_9  and  C_10
REMARK    6  A    between atoms: C_14  and  N_15
REMARK    7  A    between atoms: N_15  and  C_16
REMARK    8  A    between atoms: C_16  and  C_17
REMARK    9  A    between atoms: C_17  and  C_18
REMARK   10  A    between atoms: C_18  and  O_20
REMARK                            x       y       z     vdW  Elec       q    Type
REMARK                         _______ _______ _______ _____ _____    ______ ____
ROOT
ATOM      1  C   UNL     1       5.042   5.696  17.809  0.00  0.00    +0.000 A 
ATOM      2  C   UNL     1       4.525   5.910  19.202  0.00  0.00    +0.000 A 
ATOM      3  N   UNL     1       3.518   5.326  19.774  0.00  0.00    +0.000 NA
ATOM      4  C   UNL     1       2.871   4.407  19.007  0.00  0.00    +0.000 A 
ATOM      5  C   UNL     1       1.781   3.614  19.289  0.00  0.00    +0.000 A 
ATOM      6  C   UNL     1       1.594   2.852  18.117  0.00  0.00    +0.000 A 
ATOM      7  N   UNL     1       2.477   3.132  17.156  0.00  0.00    +0.000 NA
ATOM      8  N   UNL     1       3.269   4.110  17.700  0.00  0.00    +0.000 N 
ATOM      9  C   UNL     1       4.381   4.757  17.090  0.00  0.00    +0.000 A 
ENDROOT
BRANCH   5  10
ATOM     10  C   UNL     1       1.001   3.582  20.557  0.00  0.00    +0.000 C 
ATOM     11  C   UNL     1       1.654   2.711  21.620  0.00  0.00    +0.000 C 
ENDBRANCH   5  10
BRANCH   9  12
ATOM     12  N   UNL     1       4.687   4.366  15.770  0.00  0.00    +0.000 N 
ATOM     13  H   UNL     1       3.841   4.012  15.310  0.00  0.00    +0.000 HD
BRANCH  12  14
ATOM     14  C   UNL     1       5.909   3.630  15.428  0.00  0.00    +0.000 C 
BRANCH  14  15
ATOM     15  C   UNL     1       6.681   4.351  14.325  0.00  0.00    +0.000 C 
BRANCH  15  16
ATOM     16  C   UNL     1       6.184   3.922  12.968  0.00  0.00    +0.000 C 
ATOM     17  O   UNL     1       5.043   3.570  12.714  0.00  0.00    +0.000 OA
BRANCH  16  18
ATOM     18  O   UNL     1       7.149   3.962  12.020  0.00  0.00    +0.000 OA
ATOM     19  H   UNL     1       6.874   4.386  11.184  0.00  0.00    +0.000 HD
ENDBRANCH  16  18
ENDBRANCH  15  16
ENDBRANCH  14  15
ENDBRANCH  12  14
ENDBRANCH   9  12
BRANCH   1  20
ATOM     20  O   UNL     1       6.102   6.416  17.277  0.00  0.00    +0.000 OA
BRANCH  20  22
ATOM     21  C   UNL     1       7.792   4.979  18.199  0.00  0.00    +0.000 C 
ATOM     22  C   UNL     1       7.313   6.407  18.032  0.00  0.00    +0.000 C 
ENDBRANCH  20  22
ENDBRANCH   1  20
TORSDOF 8
ENDMDL
MODEL 9
REMARK VINA RESULT:      -6.2      1.046      1.331
REMARK  Name = 
REMARK  10 active torsions:
REMARK  status: ('A' for Active; 'I' for Inactive)
REMARK    1  A    between atoms: C_1  and  C_2
REMARK    2  A    between atoms: C_2  and  O_3
REMARK    3  A    between atoms: O_3  and  C_4
REMARK    4  A    between atoms: C_8  and  C_9
REMARK    5  A    between atoms: C_9  and  C_10
REMARK    6  A    between atoms: C_14  and  N_15
REMARK    7  A    between atoms: N_15  and  C_16
REMARK    8  A    between atoms: C_16  and  C_17
REMARK    9  A    between atoms: C_17  and  C_18
REMARK   10  A    between atoms: C_18  and  O_20
REMARK                            x       y       z     vdW  Elec       q    Type
REMARK                         _______ _______ _______ _____ _____    ______ ____
ROOT
ATOM      1  C   UNL     1       5.847   4.253  15.302  0.00  0.00    +0.000 A 
ATOM      2  C   UNL     1       6.837   5.360  15.078  0.00  0.00    +0.000 A 
ATOM      3  N   UNL     1       7.420   6.096  15.972  0.00  0.00    +0.000 NA
ATOM      4  C   UNL     1       7.088   5.812  17.261  0.00  0.00    +0.000 A 
ATOM      5  C   UNL     1       7.509   6.385  18.441  0.00  0.00    +0.000 A 
ATOM      6  C   UNL     1       6.843   5.648  19.440  0.00  0.00    +0.000 A 
ATOM      7  N   UNL     1       6.051   4.690  18.955  0.00  0.00    +0.000 NA
ATOM      8  N   UNL     1       6.191   4.794  17.595  0.00  0.00    +0.000 N 
ATOM      9  C   UNL     1       5.563   3.992  16.600  0.00  0.00    +0.000 A 
ENDROOT
BRANCH   5  10
ATOM     10  C   UNL     1       8.463   7.519  18.595  0.00  0.00    +0.000 C 
ATOM     11  C   UNL     1       7.993   8.776  17.881  0.00  0.00    +0.000 C 
ENDBRANCH   5  10
BRANCH   9  12
ATOM     12  N   UNL     1       4.682   2.993  17.065  0.00  0.00    +0.000 N 
ATOM     13  H   UNL     1       5.030   2.069  16.789  0.00  0.00    +0.000 HD
BRANCH  12  14
ATOM     14  C   UNL     1       3.223   3.132  16.992  0.00  0.00    +0.000 C 
BRANCH  14  15
ATOM     15  C   UNL     1       2.768   4.410  17.694  0.00  0.00    +0.000 C 
BRANCH  15  16
ATOM     16  C   UNL     1       2.500   4.143  19.152  0.00  0.00    +0.000 C 
ATOM     17  O   UNL     1       1.546   4.569  19.784  0.00  0.00    +0.000 OA
BRANCH  16  18
ATOM     18  O   UNL     1       3.444   3.359  19.724  0.00  0.00    +0.000 OA
ATOM     19  H   UNL     1       4.166   3.094  19.121  0.00  0.00    +0.000 HD
ENDBRANCH  16  18
ENDBRANCH  15  16
ENDBRANCH  14  15
ENDBRANCH  12  14
ENDBRANCH   9  12
BRANCH   1  20
ATOM     20  O   UNL     1       5.241   3.559  14.264  0.00  0.00    +0.000 OA
BRANCH  20  22
ATOM     21  C   UNL     1       4.926   3.270  11.900  0.00  0.00    +0.000 C 
ATOM     22  C   UNL     1       5.910   3.599  13.004  0.00  0.00    +0.000 C 
ENDBRANCH  20  22
ENDBRANCH   1  20
TORSDOF 8
ENDMDL
