MODEL 1
REMARK VINA RESULT:      -8.4      0.000      0.000
REMARK  Name = 
REMARK  5 active torsions:
REMARK  status: ('A' for Active; 'I' for Inactive)
REMARK    1  A    between atoms: C_2  and  C_3
REMARK    2  A    between atoms: C_3  and  N_4
REMARK    3  A    between atoms: N_7  and  C_8
REMARK    4  A    between atoms: C_8  and  C_9
REMARK    5  A    between atoms: N_18  and  C_19
REMARK                            x       y       z     vdW  Elec       q    Type
REMARK                         _______ _______ _______ _____ _____    ______ ____
ROOT
ATOM      1  O   UNL     1      -0.045   9.567  17.762  0.00  0.00    +0.000 OA
ATOM      2  C   UNL     1       0.667  10.063  18.625  0.00  0.00    +0.000 C 
ATOM      3  N   UNL     1       1.625   9.395  19.376  0.00  0.00    +0.000 N 
ATOM      4  H   UNL     1       1.999   9.931  20.157  0.00  0.00    +0.000 HD
ENDROOT
BRANCH   3   5
ATOM      5  C   UNL     1       2.110   8.094  19.166  0.00  0.00    +0.000 A 
ATOM      6  C   UNL     1       2.836   7.736  18.028  0.00  0.00    +0.000 A 
ATOM      7  C   UNL     1       3.234   6.408  17.818  0.00  0.00    +0.000 A 
ATOM      8  C   UNL     1       2.893   5.421  18.742  0.00  0.00    +0.000 A 
ATOM      9  C   UNL     1       2.225   5.786  19.925  0.00  0.00    +0.000 A 
ATOM     10  C   UNL     1       1.865   7.128  20.143  0.00  0.00    +0.000 A 
ATOM     11  C   UNL     1       1.971   4.735  20.980  0.00  0.00    +0.000 C 
ATOM     12  C   UNL     1       1.673   3.375  20.360  0.00  0.00    +0.000 C 
ATOM     13  C   UNL     1       2.672   3.064  19.287  0.00  0.00    +0.000 A 
ATOM     14  N   UNL     1       3.029   1.863  18.935  0.00  0.00    +0.000 NA
ATOM     15  N   UNL     1       3.854   2.086  17.862  0.00  0.00    +0.000 N 
ATOM     16  C   UNL     1       3.943   3.451  17.572  0.00  0.00    +0.000 A 
ATOM     17  O   UNL     1       4.584   3.927  16.650  0.00  0.00    +0.000 OA
ATOM     18  N   UNL     1       3.176   4.065  18.535  0.00  0.00    +0.000 N 
ATOM     19  H   UNL     1       4.288   1.339  17.336  0.00  0.00    +0.000 HD
ENDBRANCH   3   5
BRANCH   2  20
ATOM     20  C   UNL     1       0.525  11.556  18.987  0.00  0.00    +0.000 C 
BRANCH  20  21
ATOM     21  N   UNL     1       0.000  11.727  20.361  0.00  0.00    +0.000 NA
ATOM     22  C   UNL     1       0.555  12.956  20.989  0.00  0.00    +0.000 C 
ATOM     23  C   UNL     1      -0.242  14.262  20.793  0.00  0.00    +0.000 C 
ATOM     24  N   UNL     1      -1.670  14.127  21.134  0.00  0.00    +0.000 NA
ATOM     25  C   UNL     1      -2.208  13.070  20.256  0.00  0.00    +0.000 C 
ATOM     26  C   UNL     1      -1.483  11.707  20.378  0.00  0.00    +0.000 C 
BRANCH  24  27
ATOM     27  C   UNL     1      -1.805  13.825  22.577  0.00  0.00    +0.000 C 
BRANCH  27  28
ATOM     28  C   UNL     1      -3.228  13.750  23.074  0.00  0.00    +0.000 A 
ATOM     29  C   UNL     1      -3.662  12.634  23.808  0.00  0.00    +0.000 A 
ATOM     30  C   UNL     1      -4.990  12.534  24.222  0.00  0.00    +0.000 A 
ATOM     31  C   UNL     1      -5.883  13.560  23.919  0.00  0.00    +0.000 A 
ATOM     32 CL   UNL     1      -7.533  13.414  24.384  0.00  0.00    +0.000 Cl
ATOM     33  C   UNL     1      -5.453  14.695  23.231  0.00  0.00    +0.000 A 
ATOM     34  C   UNL     1      -4.128  14.790  22.809  0.00  0.00    +0.000 A 
ENDBRANCH  27  28
ENDBRANCH  24  27
ENDBRANCH  20  21
ENDBRANCH   2  20
TORSDOF 5
ENDMDL
MODEL 2
REMARK VINA RESULT:      -8.3      3.092      4.375
REMARK  Name = 
REMARK  5 active torsions:
REMARK  status: ('A' for Active; 'I' for Inactive)
REMARK    1  A    between atoms: C_2  and  C_3
REMARK    2  A    between atoms: C_3  and  N_4
REMARK    3  A    between atoms: N_7  and  C_8
REMARK    4  A    between atoms: C_8  and  C_9
REMARK    5  A    between atoms: N_18  and  C_19
REMARK                            x       y       z     vdW  Elec       q    Type
REMARK                         _______ _______ _______ _____ _____    ______ ____
ROOT
ATOM      1  O   UNL     1       1.765   9.600  22.607  0.00  0.00    +0.000 OA
ATOM      2  C   UNL     1       0.722   9.519  21.972  0.00  0.00    +0.000 C 
ATOM      3  N   UNL     1       0.492   8.693  20.881  0.00  0.00    +0.000 N 
ATOM      4  H   UNL     1      -0.375   8.882  20.382  0.00  0.00    +0.000 HD
ENDROOT
BRANCH   3   5
ATOM      5  C   UNL     1       1.315   7.654  20.417  0.00  0.00    +0.000 A 
ATOM      6  C   UNL     1       2.201   7.814  19.349  0.00  0.00    +0.000 A 
ATOM      7  C   UNL     1       2.946   6.730  18.865  0.00  0.00    +0.000 A 
ATOM      8  C   UNL     1       2.799   5.468  19.439  0.00  0.00    +0.000 A 
ATOM      9  C   UNL     1       1.964   5.313  20.560  0.00  0.00    +0.000 A 
ATOM     10  C   UNL     1       1.250   6.417  21.061  0.00  0.00    +0.000 A 
ATOM     11  C   UNL     1       1.905   3.974  21.255  0.00  0.00    +0.000 C 
ATOM     12  C   UNL     1       2.024   2.820  20.266  0.00  0.00    +0.000 C 
ATOM     13  C   UNL     1       3.154   3.068  19.314  0.00  0.00    +0.000 A 
ATOM     14  N   UNL     1       3.840   2.134  18.721  0.00  0.00    +0.000 NA
ATOM     15  N   UNL     1       4.664   2.838  17.881  0.00  0.00    +0.000 N 
ATOM     16  C   UNL     1       4.418   4.211  17.972  0.00  0.00    +0.000 A 
ATOM     17  O   UNL     1       4.988   5.066  17.314  0.00  0.00    +0.000 OA
ATOM     18  N   UNL     1       3.442   4.330  18.933  0.00  0.00    +0.000 N 
ATOM     19  H   UNL     1       5.320   2.394  17.252  0.00  0.00    +0.000 HD
ENDBRANCH   3   5
BRANCH   2  20
ATOM     20  C   UNL     1      -0.485  10.407  22.342  0.00  0.00    +0.000 C 
BRANCH  20  21
ATOM     21  N   UNL     1      -0.101  11.836  22.401  0.00  0.00    +0.000 NA
ATOM     22  C   UNL     1       0.447  12.290  21.095  0.00  0.00    +0.000 C 
ATOM     23  C   UNL     1      -0.560  12.863  20.077  0.00  0.00    +0.000 C 
ATOM     24  N   UNL     1      -1.428  13.910  20.646  0.00  0.00    +0.000 NA
ATOM     25  C   UNL     1      -2.149  13.284  21.772  0.00  0.00    +0.000 C 
ATOM     26  C   UNL     1      -1.231  12.680  22.862  0.00  0.00    +0.000 C 
BRANCH  24  27
ATOM     27  C   UNL     1      -0.603  15.073  21.044  0.00  0.00    +0.000 C 
BRANCH  27  28
ATOM     28  C   UNL     1      -0.220  15.991  19.908  0.00  0.00    +0.000 A 
ATOM     29  C   UNL     1      -1.205  16.742  19.246  0.00  0.00    +0.000 A 
ATOM     30  C   UNL     1      -0.865  17.550  18.161  0.00  0.00    +0.000 A 
ATOM     31  C   UNL     1       0.464  17.623  17.748  0.00  0.00    +0.000 A 
ATOM     32 CL   UNL     1       0.876  18.579  16.379  0.00  0.00    +0.000 Cl
ATOM     33  C   UNL     1       1.458  16.918  18.427  0.00  0.00    +0.000 A 
ATOM     34  C   UNL     1       1.116  16.103  19.505  0.00  0.00    +0.000 A 
ENDBRANCH  27  28
ENDBRANCH  24  27
ENDBRANCH  20  21
ENDBRANCH   2  20
TORSDOF 5
ENDMDL
MODEL 3
REMARK VINA RESULT:      -8.2      8.030     12.155
REMARK  Name = 
REMARK  5 active torsions:
REMARK  status: ('A' for Active; 'I' for Inactive)
REMARK    1  A    between atoms: C_2  and  C_3
REMARK    2  A    between atoms: C_3  and  N_4
REMARK    3  A    between atoms: N_7  and  C_8
REMARK    4  A    between atoms: C_8  and  C_9
REMARK    5  A    between atoms: N_18  and  C_19
REMARK                            x       y       z     vdW  Elec       q    Type
REMARK                         _______ _______ _______ _____ _____    ______ ____
ROOT
ATOM      1  O   UNL     1       7.479   9.451  17.549  0.00  0.00    +0.000 OA
ATOM      2  C   UNL     1       8.209   8.756  18.244  0.00  0.00    +0.000 C 
ATOM      3  N   UNL     1       9.249   9.209  19.044  0.00  0.00    +0.000 N 
ATOM      4  H   UNL     1       9.847   8.474  19.416  0.00  0.00    +0.000 HD
ENDROOT
BRANCH   3   5
ATOM      5  C   UNL     1       9.542  10.542  19.378  0.00  0.00    +0.000 A 
ATOM      6  C   UNL     1       9.354  11.055  20.663  0.00  0.00    +0.000 A 
ATOM      7  C   UNL     1       9.583  12.411  20.936  0.00  0.00    +0.000 A 
ATOM      8  C   UNL     1       9.988  13.271  19.916  0.00  0.00    +0.000 A 
ATOM      9  C   UNL     1      10.248  12.748  18.636  0.00  0.00    +0.000 A 
ATOM     10  C   UNL     1      10.052  11.379  18.384  0.00  0.00    +0.000 A 
ATOM     11  C   UNL     1      10.808  13.659  17.569  0.00  0.00    +0.000 C 
ATOM     12  C   UNL     1      10.247  15.071  17.683  0.00  0.00    +0.000 C 
ATOM     13  C   UNL     1      10.303  15.539  19.106  0.00  0.00    +0.000 A 
ATOM     14  N   UNL     1      10.402  16.785  19.472  0.00  0.00    +0.000 NA
ATOM     15  N   UNL     1      10.301  16.717  20.837  0.00  0.00    +0.000 N 
ATOM     16  C   UNL     1      10.105  15.399  21.261  0.00  0.00    +0.000 A 
ATOM     17  O   UNL     1       9.954  15.056  22.422  0.00  0.00    +0.000 OA
ATOM     18  N   UNL     1      10.134  14.650  20.107  0.00  0.00    +0.000 N 
ATOM     19  H   UNL     1      10.319  17.534  21.433  0.00  0.00    +0.000 HD
ENDBRANCH   3   5
BRANCH   2  20
ATOM     20  C   UNL     1       8.035   7.223  18.261  0.00  0.00    +0.000 C 
BRANCH  20  21
ATOM     21  N   UNL     1       6.734   6.824  17.678  0.00  0.00    +0.000 NA
ATOM     22  C   UNL     1       6.918   6.252  16.318  0.00  0.00    +0.000 C 
ATOM     23  C   UNL     1       7.140   4.728  16.225  0.00  0.00    +0.000 C 
ATOM     24  N   UNL     1       6.130   3.948  16.962  0.00  0.00    +0.000 NA
ATOM     25  C   UNL     1       6.214   4.386  18.370  0.00  0.00    +0.000 C 
ATOM     26  C   UNL     1       5.998   5.905  18.581  0.00  0.00    +0.000 C 
BRANCH  24  27
ATOM     27  C   UNL     1       4.799   4.165  16.353  0.00  0.00    +0.000 C 
BRANCH  27  28
ATOM     28  C   UNL     1       3.633   3.804  17.242  0.00  0.00    +0.000 A 
ATOM     29  C   UNL     1       2.734   4.796  17.666  0.00  0.00    +0.000 A 
ATOM     30  C   UNL     1       1.688   4.477  18.531  0.00  0.00    +0.000 A 
ATOM     31  C   UNL     1       1.527   3.161  18.960  0.00  0.00    +0.000 A 
ATOM     32 CL   UNL     1       0.269   2.776  20.067  0.00  0.00    +0.000 Cl
ATOM     33  C   UNL     1       2.386   2.158  18.509  0.00  0.00    +0.000 A 
ATOM     34  C   UNL     1       3.438   2.479  17.652  0.00  0.00    +0.000 A 
ENDBRANCH  27  28
ENDBRANCH  24  27
ENDBRANCH  20  21
ENDBRANCH   2  20
TORSDOF 5
ENDMDL
MODEL 4
REMARK VINA RESULT:      -8.1      4.339      6.136
REMARK  Name = 
REMARK  5 active torsions:
REMARK  status: ('A' for Active; 'I' for Inactive)
REMARK    1  A    between atoms: C_2  and  C_3
REMARK    2  A    between atoms: C_3  and  N_4
REMARK    3  A    between atoms: N_7  and  C_8
REMARK    4  A    between atoms: C_8  and  C_9
REMARK    5  A    between atoms: N_18  and  C_19
REMARK                            x       y       z     vdW  Elec       q    Type
REMARK                         _______ _______ _______ _____ _____    ______ ____
ROOT
ATOM      1  O   UNL     1      -0.147   9.651  17.834  0.00  0.00    +0.000 OA
ATOM      2  C   UNL     1       0.379  10.063  18.859  0.00  0.00    +0.000 C 
ATOM      3  N   UNL     1       1.242   9.350  19.679  0.00  0.00    +0.000 N 
ATOM      4  H   UNL     1       1.447   9.797  20.570  0.00  0.00    +0.000 HD
ENDROOT
BRANCH   3   5
ATOM      5  C   UNL     1       1.841   8.109  19.402  0.00  0.00    +0.000 A 
ATOM      6  C   UNL     1       2.572   7.869  18.236  0.00  0.00    +0.000 A 
ATOM      7  C   UNL     1       3.086   6.594  17.961  0.00  0.00    +0.000 A 
ATOM      8  C   UNL     1       2.857   5.541  18.846  0.00  0.00    +0.000 A 
ATOM      9  C   UNL     1       2.184   5.791  20.055  0.00  0.00    +0.000 A 
ATOM     10  C   UNL     1       1.706   7.083  20.339  0.00  0.00    +0.000 A 
ATOM     11  C   UNL     1       2.050   4.677  21.067  0.00  0.00    +0.000 C 
ATOM     12  C   UNL     1       1.866   3.324  20.392  0.00  0.00    +0.000 C 
ATOM     13  C   UNL     1       2.865   3.153  19.288  0.00  0.00    +0.000 A 
ATOM     14  N   UNL     1       3.325   2.006  18.877  0.00  0.00    +0.000 NA
ATOM     15  N   UNL     1       4.101   2.350  17.801  0.00  0.00    +0.000 N 
ATOM     16  C   UNL     1       4.058   3.729  17.571  0.00  0.00    +0.000 A 
ATOM     17  O   UNL     1       4.633   4.301  16.660  0.00  0.00    +0.000 OA
ATOM     18  N   UNL     1       3.259   4.228  18.574  0.00  0.00    +0.000 N 
ATOM     19  H   UNL     1       4.591   1.671  17.235  0.00  0.00    +0.000 HD
ENDBRANCH   3   5
BRANCH   2  20
ATOM     20  C   UNL     1       0.081  11.490  19.366  0.00  0.00    +0.000 C 
BRANCH  20  21
ATOM     21  N   UNL     1       0.824  12.503  18.582  0.00  0.00    +0.000 NA
ATOM     22  C   UNL     1       0.135  13.820  18.633  0.00  0.00    +0.000 C 
ATOM     23  C   UNL     1       0.539  14.775  19.775  0.00  0.00    +0.000 C 
ATOM     24  N   UNL     1       1.997  14.970  19.882  0.00  0.00    +0.000 NA
ATOM     25  C   UNL     1       2.577  13.632  20.113  0.00  0.00    +0.000 C 
ATOM     26  C   UNL     1       2.240  12.591  19.017  0.00  0.00    +0.000 C 
BRANCH  24  27
ATOM     27  C   UNL     1       2.497  15.629  18.654  0.00  0.00    +0.000 C 
BRANCH  27  28
ATOM     28  C   UNL     1       3.992  15.827  18.612  0.00  0.00    +0.000 A 
ATOM     29  C   UNL     1       4.796  14.977  17.834  0.00  0.00    +0.000 A 
ATOM     30  C   UNL     1       6.183  15.122  17.834  0.00  0.00    +0.000 A 
ATOM     31  C   UNL     1       6.769  16.130  18.597  0.00  0.00    +0.000 A 
ATOM     32 CL   UNL     1       8.482  16.277  18.639  0.00  0.00    +0.000 Cl
ATOM     33  C   UNL     1       5.978  17.011  19.337  0.00  0.00    +0.000 A 
ATOM     34  C   UNL     1       4.592  16.859  19.344  0.00  0.00    +0.000 A 
ENDBRANCH  27  28
ENDBRANCH  24  27
ENDBRANCH  20  21
ENDBRANCH   2  20
TORSDOF 5
ENDMDL
MODEL 5
REMARK VINA RESULT:      -8.0      1.309      1.628
REMARK  Name = 
REMARK  5 active torsions:
REMARK  status: ('A' for Active; 'I' for Inactive)
REMARK    1  A    between atoms: C_2  and  C_3
REMARK    2  A    between atoms: C_3  and  N_4
REMARK    3  A    between atoms: N_7  and  C_8
REMARK    4  A    between atoms: C_8  and  C_9
REMARK    5  A    between atoms: N_18  and  C_19
REMARK                            x       y       z     vdW  Elec       q    Type
REMARK                         _______ _______ _______ _____ _____    ______ ____
ROOT
ATOM      1  O   UNL     1       0.082   9.426  17.841  0.00  0.00    +0.000 OA
ATOM      2  C   UNL     1       0.780   9.876  18.741  0.00  0.00    +0.000 C 
ATOM      3  N   UNL     1       1.699   9.161  19.497  0.00  0.00    +0.000 N 
ATOM      4  H   UNL     1       2.063   9.662  20.305  0.00  0.00    +0.000 HD
ENDROOT
BRANCH   3   5
ATOM      5  C   UNL     1       2.159   7.855  19.259  0.00  0.00    +0.000 A 
ATOM      6  C   UNL     1       2.913   7.516  18.133  0.00  0.00    +0.000 A 
ATOM      7  C   UNL     1       3.285   6.186  17.891  0.00  0.00    +0.000 A 
ATOM      8  C   UNL     1       2.889   5.178  18.770  0.00  0.00    +0.000 A 
ATOM      9  C   UNL     1       2.191   5.520  19.942  0.00  0.00    +0.000 A 
ATOM     10  C   UNL     1       1.857   6.863  20.193  0.00  0.00    +0.000 A 
ATOM     11  C   UNL     1       1.875   4.443  20.952  0.00  0.00    +0.000 C 
ATOM     12  C   UNL     1       1.565   3.112  20.277  0.00  0.00    +0.000 C 
ATOM     13  C   UNL     1       2.591   2.811  19.226  0.00  0.00    +0.000 A 
ATOM     14  N   UNL     1       2.930   1.614  18.846  0.00  0.00    +0.000 NA
ATOM     15  N   UNL     1       3.796   1.850  17.808  0.00  0.00    +0.000 N 
ATOM     16  C   UNL     1       3.928   3.221  17.568  0.00  0.00    +0.000 A 
ATOM     17  O   UNL     1       4.611   3.711  16.685  0.00  0.00    +0.000 OA
ATOM     18  N   UNL     1       3.145   3.823  18.526  0.00  0.00    +0.000 N 
ATOM     19  H   UNL     1       4.229   1.111  17.272  0.00  0.00    +0.000 HD
ENDBRANCH   3   5
BRANCH   2  20
ATOM     20  C   UNL     1       0.664  11.360  19.147  0.00  0.00    +0.000 C 
BRANCH  20  21
ATOM     21  N   UNL     1      -0.671  11.658  19.713  0.00  0.00    +0.000 NA
ATOM     22  C   UNL     1      -0.881  10.920  20.987  0.00  0.00    +0.000 C 
ATOM     23  C   UNL     1      -0.449  11.632  22.286  0.00  0.00    +0.000 C 
ATOM     24  N   UNL     1      -0.990  12.999  22.405  0.00  0.00    +0.000 NA
ATOM     25  C   UNL     1      -0.494  13.744  21.231  0.00  0.00    +0.000 C 
ATOM     26  C   UNL     1      -0.878  13.119  19.868  0.00  0.00    +0.000 C 
BRANCH  24  27
ATOM     27  C   UNL     1      -2.466  12.939  22.489  0.00  0.00    +0.000 C 
BRANCH  27  28
ATOM     28  C   UNL     1      -3.106  14.118  23.181  0.00  0.00    +0.000 A 
ATOM     29  C   UNL     1      -2.475  14.718  24.284  0.00  0.00    +0.000 A 
ATOM     30  C   UNL     1      -3.087  15.772  24.960  0.00  0.00    +0.000 A 
ATOM     31  C   UNL     1      -4.324  16.243  24.523  0.00  0.00    +0.000 A 
ATOM     32 CL   UNL     1      -5.104  17.509  25.387  0.00  0.00    +0.000 Cl
ATOM     33  C   UNL     1      -4.939  15.687  23.401  0.00  0.00    +0.000 A 
ATOM     34  C   UNL     1      -4.331  14.626  22.731  0.00  0.00    +0.000 A 
ENDBRANCH  27  28
ENDBRANCH  24  27
ENDBRANCH  20  21
ENDBRANCH   2  20
TORSDOF 5
ENDMDL
MODEL 6
REMARK VINA RESULT:      -8.0      7.732     11.534
REMARK  Name = 
REMARK  5 active torsions:
REMARK  status: ('A' for Active; 'I' for Inactive)
REMARK    1  A    between atoms: C_2  and  C_3
REMARK    2  A    between atoms: C_3  and  N_4
REMARK    3  A    between atoms: N_7  and  C_8
REMARK    4  A    between atoms: C_8  and  C_9
REMARK    5  A    between atoms: N_18  and  C_19
REMARK                            x       y       z     vdW  Elec       q    Type
REMARK                         _______ _______ _______ _____ _____    ______ ____
ROOT
ATOM      1  O   UNL     1       8.824   7.953  18.908  0.00  0.00    +0.000 OA
ATOM      2  C   UNL     1       8.113   8.202  17.943  0.00  0.00    +0.000 C 
ATOM      3  N   UNL     1       7.804   9.467  17.462  0.00  0.00    +0.000 N 
ATOM      4  H   UNL     1       7.069   9.484  16.757  0.00  0.00    +0.000 HD
ENDROOT
BRANCH   3   5
ATOM      5  C   UNL     1       8.391  10.685  17.842  0.00  0.00    +0.000 A 
ATOM      6  C   UNL     1       7.968  11.916  17.336  0.00  0.00    +0.000 A 
ATOM      7  C   UNL     1       8.633  13.101  17.680  0.00  0.00    +0.000 A 
ATOM      8  C   UNL     1       9.742  13.062  18.524  0.00  0.00    +0.000 A 
ATOM      9  C   UNL     1      10.131  11.836  19.095  0.00  0.00    +0.000 A 
ATOM     10  C   UNL     1       9.432  10.658  18.773  0.00  0.00    +0.000 A 
ATOM     11  C   UNL     1      11.252  11.818  20.106  0.00  0.00    +0.000 C 
ATOM     12  C   UNL     1      12.328  12.844  19.773  0.00  0.00    +0.000 C 
ATOM     13  C   UNL     1      11.701  14.165  19.444  0.00  0.00    +0.000 A 
ATOM     14  N   UNL     1      12.275  15.320  19.618  0.00  0.00    +0.000 NA
ATOM     15  N   UNL     1      11.375  16.200  19.074  0.00  0.00    +0.000 N 
ATOM     16  C   UNL     1      10.271  15.526  18.543  0.00  0.00    +0.000 A 
ATOM     17  O   UNL     1       9.336  16.061  17.974  0.00  0.00    +0.000 OA
ATOM     18  N   UNL     1      10.504  14.198  18.821  0.00  0.00    +0.000 N 
ATOM     19  H   UNL     1      11.537  17.198  19.030  0.00  0.00    +0.000 HD
ENDBRANCH   3   5
BRANCH   2  20
ATOM     20  C   UNL     1       7.442   7.058  17.156  0.00  0.00    +0.000 C 
BRANCH  20  21
ATOM     21  N   UNL     1       6.007   6.941  17.500  0.00  0.00    +0.000 NA
ATOM     22  C   UNL     1       5.190   6.693  16.282  0.00  0.00    +0.000 C 
ATOM     23  C   UNL     1       4.955   5.221  15.885  0.00  0.00    +0.000 C 
ATOM     24  N   UNL     1       4.456   4.393  16.998  0.00  0.00    +0.000 NA
ATOM     25  C   UNL     1       5.475   4.473  18.064  0.00  0.00    +0.000 C 
ATOM     26  C   UNL     1       5.784   5.912  18.545  0.00  0.00    +0.000 C 
BRANCH  24  27
ATOM     27  C   UNL     1       3.122   4.880  17.415  0.00  0.00    +0.000 C 
BRANCH  27  28
ATOM     28  C   UNL     1       2.564   4.209  18.647  0.00  0.00    +0.000 A 
ATOM     29  C   UNL     1       2.397   4.939  19.835  0.00  0.00    +0.000 A 
ATOM     30  C   UNL     1       1.933   4.310  20.990  0.00  0.00    +0.000 A 
ATOM     31  C   UNL     1       1.617   2.953  20.955  0.00  0.00    +0.000 A 
ATOM     32 CL   UNL     1       1.093   2.166  22.391  0.00  0.00    +0.000 Cl
ATOM     33  C   UNL     1       1.734   2.228  19.768  0.00  0.00    +0.000 A 
ATOM     34  C   UNL     1       2.207   2.855  18.616  0.00  0.00    +0.000 A 
ENDBRANCH  27  28
ENDBRANCH  24  27
ENDBRANCH  20  21
ENDBRANCH   2  20
TORSDOF 5
ENDMDL
MODEL 7
REMARK VINA RESULT:      -8.0      7.762     11.682
REMARK  Name = 
REMARK  5 active torsions:
REMARK  status: ('A' for Active; 'I' for Inactive)
REMARK    1  A    between atoms: C_2  and  C_3
REMARK    2  A    between atoms: C_3  and  N_4
REMARK    3  A    between atoms: N_7  and  C_8
REMARK    4  A    between atoms: C_8  and  C_9
REMARK    5  A    between atoms: N_18  and  C_19
REMARK                            x       y       z     vdW  Elec       q    Type
REMARK                         _______ _______ _______ _____ _____    ______ ____
ROOT
ATOM      1  O   UNL     1       7.332   9.257  17.139  0.00  0.00    +0.000 OA
ATOM      2  C   UNL     1       7.930   8.492  17.884  0.00  0.00    +0.000 C 
ATOM      3  N   UNL     1       8.942   8.838  18.768  0.00  0.00    +0.000 N 
ATOM      4  H   UNL     1       9.432   8.047  19.182  0.00  0.00    +0.000 HD
ENDROOT
BRANCH   3   5
ATOM      5  C   UNL     1       9.341  10.134  19.135  0.00  0.00    +0.000 A 
ATOM      6  C   UNL     1       9.130  10.654  20.414  0.00  0.00    +0.000 A 
ATOM      7  C   UNL     1       9.470  11.980  20.716  0.00  0.00    +0.000 A 
ATOM      8  C   UNL     1      10.011  12.805  19.732  0.00  0.00    +0.000 A 
ATOM      9  C   UNL     1      10.293  12.269  18.462  0.00  0.00    +0.000 A 
ATOM     10  C   UNL     1       9.983  10.926  18.182  0.00  0.00    +0.000 A 
ATOM     11  C   UNL     1      10.995  13.131  17.439  0.00  0.00    +0.000 C 
ATOM     12  C   UNL     1      10.564  14.589  17.540  0.00  0.00    +0.000 C 
ATOM     13  C   UNL     1      10.585  15.039  18.970  0.00  0.00    +0.000 A 
ATOM     14  N   UNL     1      10.779  16.266  19.356  0.00  0.00    +0.000 NA
ATOM     15  N   UNL     1      10.595  16.198  20.713  0.00  0.00    +0.000 N 
ATOM     16  C   UNL     1      10.253  14.902  21.109  0.00  0.00    +0.000 A 
ATOM     17  O   UNL     1      10.004  14.566  22.255  0.00  0.00    +0.000 OA
ATOM     18  N   UNL     1      10.276  14.163  19.949  0.00  0.00    +0.000 N 
ATOM     19  H   UNL     1      10.656  17.006  21.319  0.00  0.00    +0.000 HD
ENDBRANCH   3   5
BRANCH   2  20
ATOM     20  C   UNL     1       7.602   6.984  17.876  0.00  0.00    +0.000 C 
BRANCH  20  21
ATOM     21  N   UNL     1       6.144   6.753  17.990  0.00  0.00    +0.000 NA
ATOM     22  C   UNL     1       5.531   6.575  16.647  0.00  0.00    +0.000 C 
ATOM     23  C   UNL     1       5.461   5.136  16.095  0.00  0.00    +0.000 C 
ATOM     24  N   UNL     1       4.868   4.178  17.046  0.00  0.00    +0.000 NA
ATOM     25  C   UNL     1       5.714   4.216  18.255  0.00  0.00    +0.000 C 
ATOM     26  C   UNL     1       5.848   5.618  18.898  0.00  0.00    +0.000 C 
BRANCH  24  27
ATOM     27  C   UNL     1       3.456   4.546  17.299  0.00  0.00    +0.000 C 
BRANCH  27  28
ATOM     28  C   UNL     1       2.882   3.992  18.580  0.00  0.00    +0.000 A 
ATOM     29  C   UNL     1       2.607   2.619  18.695  0.00  0.00    +0.000 A 
ATOM     30  C   UNL     1       2.026   2.111  19.857  0.00  0.00    +0.000 A 
ATOM     31  C   UNL     1       1.734   2.972  20.913  0.00  0.00    +0.000 A 
ATOM     32 CL   UNL     1       0.970   2.355  22.325  0.00  0.00    +0.000 Cl
ATOM     33  C   UNL     1       2.045   4.330  20.828  0.00  0.00    +0.000 A 
ATOM     34  C   UNL     1       2.617   4.839  19.663  0.00  0.00    +0.000 A 
ENDBRANCH  27  28
ENDBRANCH  24  27
ENDBRANCH  20  21
ENDBRANCH   2  20
TORSDOF 5
ENDMDL
MODEL 8
REMARK VINA RESULT:      -7.9      1.050      1.453
REMARK  Name = 
REMARK  5 active torsions:
REMARK  status: ('A' for Active; 'I' for Inactive)
REMARK    1  A    between atoms: C_2  and  C_3
REMARK    2  A    between atoms: C_3  and  N_4
REMARK    3  A    between atoms: N_7  and  C_8
REMARK    4  A    between atoms: C_8  and  C_9
REMARK    5  A    between atoms: N_18  and  C_19
REMARK                            x       y       z     vdW  Elec       q    Type
REMARK                         _______ _______ _______ _____ _____    ______ ____
ROOT
ATOM      1  O   UNL     1       0.916   9.802  18.430  0.00  0.00    +0.000 OA
ATOM      2  C   UNL     1       1.059   9.821  19.645  0.00  0.00    +0.000 C 
ATOM      3  N   UNL     1       1.458   8.753  20.437  0.00  0.00    +0.000 N 
ATOM      4  H   UNL     1       1.361   8.909  21.439  0.00  0.00    +0.000 HD
ENDROOT
BRANCH   3   5
ATOM      5  C   UNL     1       1.968   7.519  20.001  0.00  0.00    +0.000 A 
ATOM      6  C   UNL     1       2.703   7.382  18.821  0.00  0.00    +0.000 A 
ATOM      7  C   UNL     1       3.125   6.120  18.380  0.00  0.00    +0.000 A 
ATOM      8  C   UNL     1       2.800   4.979  19.112  0.00  0.00    +0.000 A 
ATOM      9  C   UNL     1       2.123   5.114  20.338  0.00  0.00    +0.000 A 
ATOM     10  C   UNL     1       1.738   6.390  20.789  0.00  0.00    +0.000 A 
ATOM     11  C   UNL     1       1.886   3.888  21.187  0.00  0.00    +0.000 C 
ATOM     12  C   UNL     1       1.614   2.656  20.334  0.00  0.00    +0.000 C 
ATOM     13  C   UNL     1       2.621   2.559  19.227  0.00  0.00    +0.000 A 
ATOM     14  N   UNL     1       3.001   1.446  18.669  0.00  0.00    +0.000 NA
ATOM     15  N   UNL     1       3.823   1.871  17.657  0.00  0.00    +0.000 N 
ATOM     16  C   UNL     1       3.888   3.267  17.615  0.00  0.00    +0.000 A 
ATOM     17  O   UNL     1       4.522   3.911  16.797  0.00  0.00    +0.000 OA
ATOM     18  N   UNL     1       3.109   3.686  18.669  0.00  0.00    +0.000 N 
ATOM     19  H   UNL     1       4.272   1.238  17.009  0.00  0.00    +0.000 HD
ENDBRANCH   3   5
BRANCH   2  20
ATOM     20  C   UNL     1       0.760  11.107  20.443  0.00  0.00    +0.000 C 
BRANCH  20  21
ATOM     21  N   UNL     1      -0.549  11.683  20.061  0.00  0.00    +0.000 NA
ATOM     22  C   UNL     1      -1.540  11.518  21.157  0.00  0.00    +0.000 C 
ATOM     23  C   UNL     1      -1.627  12.655  22.196  0.00  0.00    +0.000 C 
ATOM     24  N   UNL     1      -1.776  13.989  21.586  0.00  0.00    +0.000 NA
ATOM     25  C   UNL     1      -0.593  14.183  20.723  0.00  0.00    +0.000 C 
ATOM     26  C   UNL     1      -0.412  13.098  19.634  0.00  0.00    +0.000 C 
BRANCH  24  27
ATOM     27  C   UNL     1      -3.061  14.056  20.855  0.00  0.00    +0.000 C 
BRANCH  27  28
ATOM     28  C   UNL     1      -4.288  14.002  21.733  0.00  0.00    +0.000 A 
ATOM     29  C   UNL     1      -4.517  15.005  22.688  0.00  0.00    +0.000 A 
ATOM     30  C   UNL     1      -5.620  14.931  23.539  0.00  0.00    +0.000 A 
ATOM     31  C   UNL     1      -6.507  13.862  23.423  0.00  0.00    +0.000 A 
ATOM     32 CL   UNL     1      -7.838  13.742  24.505  0.00  0.00    +0.000 Cl
ATOM     33  C   UNL     1      -6.315  12.884  22.446  0.00  0.00    +0.000 A 
ATOM     34  C   UNL     1      -5.207  12.953  21.603  0.00  0.00    +0.000 A 
ENDBRANCH  27  28
ENDBRANCH  24  27
ENDBRANCH  20  21
ENDBRANCH   2  20
TORSDOF 5
ENDMDL
MODEL 9
REMARK VINA RESULT:      -7.8      1.213      1.581
REMARK  Name = 
REMARK  5 active torsions:
REMARK  status: ('A' for Active; 'I' for Inactive)
REMARK    1  A    between atoms: C_2  and  C_3
REMARK    2  A    between atoms: C_3  and  N_4
REMARK    3  A    between atoms: N_7  and  C_8
REMARK    4  A    between atoms: C_8  and  C_9
REMARK    5  A    between atoms: N_18  and  C_19
REMARK                            x       y       z     vdW  Elec       q    Type
REMARK                         _______ _______ _______ _____ _____    ______ ____
ROOT
ATOM      1  O   UNL     1       0.091   9.595  18.001  0.00  0.00    +0.000 OA
ATOM      2  C   UNL     1       0.523   9.888  19.109  0.00  0.00    +0.000 C 
ATOM      3  N   UNL     1       1.274   9.065  19.937  0.00  0.00    +0.000 N 
ATOM      4  H   UNL     1       1.401   9.419  20.883  0.00  0.00    +0.000 HD
ENDROOT
BRANCH   3   5
ATOM      5  C   UNL     1       1.857   7.832  19.602  0.00  0.00    +0.000 A 
ATOM      6  C   UNL     1       2.586   7.637  18.426  0.00  0.00    +0.000 A 
ATOM      7  C   UNL     1       3.084   6.370  18.091  0.00  0.00    +0.000 A 
ATOM      8  C   UNL     1       2.841   5.280  18.925  0.00  0.00    +0.000 A 
ATOM      9  C   UNL     1       2.171   5.481  20.145  0.00  0.00    +0.000 A 
ATOM     10  C   UNL     1       1.709   6.764  20.490  0.00  0.00    +0.000 A 
ATOM     11  C   UNL     1       2.022   4.323  21.103  0.00  0.00    +0.000 C 
ATOM     12  C   UNL     1       1.820   3.005  20.366  0.00  0.00    +0.000 C 
ATOM     13  C   UNL     1       2.818   2.873  19.255  0.00  0.00    +0.000 A 
ATOM     14  N   UNL     1       3.263   1.742  18.790  0.00  0.00    +0.000 NA
ATOM     15  N   UNL     1       4.045   2.126  17.732  0.00  0.00    +0.000 N 
ATOM     16  C   UNL     1       4.020   3.514  17.567  0.00  0.00    +0.000 A 
ATOM     17  O   UNL     1       4.602   4.122  16.684  0.00  0.00    +0.000 OA
ATOM     18  N   UNL     1       3.227   3.976  18.592  0.00  0.00    +0.000 N 
ATOM     19  H   UNL     1       4.527   1.468  17.134  0.00  0.00    +0.000 HD
ENDBRANCH   3   5
BRANCH   2  20
ATOM     20  C   UNL     1       0.222  11.273  19.719  0.00  0.00    +0.000 C 
BRANCH  20  21
ATOM     21  N   UNL     1      -1.092  11.284  20.400  0.00  0.00    +0.000 NA
ATOM     22  C   UNL     1      -0.925  11.142  21.871  0.00  0.00    +0.000 C 
ATOM     23  C   UNL     1      -0.775  12.443  22.686  0.00  0.00    +0.000 C 
ATOM     24  N   UNL     1      -1.828  13.434  22.396  0.00  0.00    +0.000 NA
ATOM     25  C   UNL     1      -1.733  13.728  20.952  0.00  0.00    +0.000 C 
ATOM     26  C   UNL     1      -1.879  12.488  20.037  0.00  0.00    +0.000 C 
BRANCH  24  27
ATOM     27  C   UNL     1      -3.142  12.891  22.806  0.00  0.00    +0.000 C 
BRANCH  27  28
ATOM     28  C   UNL     1      -4.316  13.790  22.505  0.00  0.00    +0.000 A 
ATOM     29  C   UNL     1      -4.371  15.085  23.045  0.00  0.00    +0.000 A 
ATOM     30  C   UNL     1      -5.479  15.900  22.814  0.00  0.00    +0.000 A 
ATOM     31  C   UNL     1      -6.527  15.429  22.027  0.00  0.00    +0.000 A 
ATOM     32 CL   UNL     1      -7.917  16.413  21.784  0.00  0.00    +0.000 Cl
ATOM     33  C   UNL     1      -6.463  14.161  21.445  0.00  0.00    +0.000 A 
ATOM     34  C   UNL     1      -5.360  13.344  21.685  0.00  0.00    +0.000 A 
ENDBRANCH  27  28
ENDBRANCH  24  27
ENDBRANCH  20  21
ENDBRANCH   2  20
TORSDOF 5
ENDMDL
