MODEL 1
REMARK VINA RESULT:      -7.7      0.000      0.000
REMARK  Name = 
REMARK  4 active torsions:
REMARK  status: ('A' for Active; 'I' for Inactive)
REMARK    1  A    between atoms: C_7  and  C_8
REMARK    2  A    between atoms: C_8  and  N_9
REMARK    3  A    between atoms: N_12  and  C_13
REMARK    4  A    between atoms: C_16  and  N_17
REMARK                            x       y       z     vdW  Elec       q    Type
REMARK                         _______ _______ _______ _____ _____    ______ ____
ROOT
ATOM      1  C   UNL     1       3.756   5.519  19.397  0.00  0.00    +0.000 C 
ENDROOT
BRANCH   1   8
ATOM      2  N   UNL     1       7.731   5.109  13.979  0.00  0.00    +0.000 N 
ATOM      3  C   UNL     1       6.899   5.040  15.047  0.00  0.00    +0.000 A 
ATOM      4  N   UNL     1       6.386   3.897  15.409  0.00  0.00    +0.000 NA
ATOM      5  C   UNL     1       5.575   3.978  16.488  0.00  0.00    +0.000 A 
ATOM      6  N   UNL     1       4.890   2.915  16.995  0.00  0.00    +0.000 N 
ATOM      7  C   UNL     1       4.165   3.323  18.090  0.00  0.00    +0.000 A 
ATOM      8  C   UNL     1       4.378   4.681  18.301  0.00  0.00    +0.000 A 
ATOM      9  C   UNL     1       5.260   5.087  17.247  0.00  0.00    +0.000 A 
ATOM     10  C   UNL     1       5.850   6.338  16.839  0.00  0.00    +0.000 A 
ATOM     11  O   UNL     1       5.677   7.407  17.417  0.00  0.00    +0.000 OA
ATOM     12  N   UNL     1       6.646   6.223  15.712  0.00  0.00    +0.000 N 
ATOM     13  H   UNL     1       8.117   4.207  13.713  0.00  0.00    +0.000 HD
ATOM     14  H   UNL     1       8.384   5.875  13.909  0.00  0.00    +0.000 HD
ATOM     15  H   UNL     1       4.921   1.984  16.606  0.00  0.00    +0.000 HD
ATOM     16  H   UNL     1       7.045   7.082  15.374  0.00  0.00    +0.000 HD
ENDBRANCH   1   8
BRANCH   1  17
ATOM     17  N   UNL     1       2.351   5.800  19.075  0.00  0.00    +0.000 NA
ATOM     18  C   UNL     1       1.461   5.707  20.249  0.00  0.00    +0.000 C 
ATOM     19  C   UNL     1       1.550   6.894  21.230  0.00  0.00    +0.000 C 
ATOM     20  N   UNL     1       1.202   8.137  20.526  0.00  0.00    +0.000 N 
ATOM     21  C   UNL     1       1.983   8.392  19.299  0.00  0.00    +0.000 C 
ATOM     22  C   UNL     1       2.139   7.113  18.420  0.00  0.00    +0.000 C 
BRANCH  20  23
ATOM     23  C   UNL     1       0.607   9.180  21.226  0.00  0.00    +0.000 A 
ATOM     24  C   UNL     1       0.216   9.062  22.576  0.00  0.00    +0.000 A 
ATOM     25  C   UNL     1      -0.555  10.039  23.217  0.00  0.00    +0.000 A 
ATOM     26  C   UNL     1      -0.947  11.175  22.510  0.00  0.00    +0.000 A 
ATOM     27  C   UNL     1      -0.527  11.358  21.190  0.00  0.00    +0.000 A 
ATOM     28  C   UNL     1       0.251  10.369  20.568  0.00  0.00    +0.000 A 
BRANCH  26  29
ATOM     29  N   UNL     1      -1.837  12.161  23.139  0.00  0.00    +0.000 N 
ATOM     30  O   UNL     1      -1.382  13.293  23.359  0.00  0.00    +0.000 OA
ATOM     31  O   UNL     1      -2.988  11.801  23.425  0.00  0.00    +0.000 OA
ENDBRANCH  26  29
ENDBRANCH  20  23
ENDBRANCH   1  17
TORSDOF 4
ENDMDL
MODEL 2
REMARK VINA RESULT:      -7.7      1.347      2.216
REMARK  Name = 
REMARK  4 active torsions:
REMARK  status: ('A' for Active; 'I' for Inactive)
REMARK    1  A    between atoms: C_7  and  C_8
REMARK    2  A    between atoms: C_8  and  N_9
REMARK    3  A    between atoms: N_12  and  C_13
REMARK    4  A    between atoms: C_16  and  N_17
REMARK                            x       y       z     vdW  Elec       q    Type
REMARK                         _______ _______ _______ _____ _____    ______ ____
ROOT
ATOM      1  C   UNL     1       4.708   5.681  19.130  0.00  0.00    +0.000 C 
ENDROOT
BRANCH   1   8
ATOM      2  N   UNL     1       6.882   3.714  13.068  0.00  0.00    +0.000 N 
ATOM      3  C   UNL     1       6.563   4.213  14.288  0.00  0.00    +0.000 A 
ATOM      4  N   UNL     1       7.214   5.233  14.774  0.00  0.00    +0.000 NA
ATOM      5  C   UNL     1       6.791   5.621  15.997  0.00  0.00    +0.000 A 
ATOM      6  N   UNL     1       7.371   6.626  16.710  0.00  0.00    +0.000 N 
ATOM      7  C   UNL     1       6.707   6.778  17.904  0.00  0.00    +0.000 A 
ATOM      8  C   UNL     1       5.672   5.852  17.975  0.00  0.00    +0.000 A 
ATOM      9  C   UNL     1       5.762   5.102  16.757  0.00  0.00    +0.000 A 
ATOM     10  C   UNL     1       5.044   3.984  16.195  0.00  0.00    +0.000 A 
ATOM     11  O   UNL     1       4.100   3.422  16.742  0.00  0.00    +0.000 OA
ATOM     12  N   UNL     1       5.527   3.593  14.958  0.00  0.00    +0.000 N 
ATOM     13  H   UNL     1       7.422   4.362  12.501  0.00  0.00    +0.000 HD
ATOM     14  H   UNL     1       6.192   3.189  12.553  0.00  0.00    +0.000 HD
ATOM     15  H   UNL     1       8.169   7.157  16.393  0.00  0.00    +0.000 HD
ATOM     16  H   UNL     1       5.077   2.792  14.551  0.00  0.00    +0.000 HD
ENDBRANCH   1   8
BRANCH   1  17
ATOM     17  N   UNL     1       3.326   5.750  18.640  0.00  0.00    +0.000 NA
ATOM     18  C   UNL     1       2.327   5.475  19.693  0.00  0.00    +0.000 C 
ATOM     19  C   UNL     1       2.107   6.626  20.697  0.00  0.00    +0.000 C 
ATOM     20  N   UNL     1       1.651   7.824  19.976  0.00  0.00    +0.000 N 
ATOM     21  C   UNL     1       2.523   8.242  18.860  0.00  0.00    +0.000 C 
ATOM     22  C   UNL     1       2.986   7.035  17.985  0.00  0.00    +0.000 C 
BRANCH  20  23
ATOM     23  C   UNL     1       0.817   8.735  20.613  0.00  0.00    +0.000 A 
ATOM     24  C   UNL     1       0.488   9.984  20.049  0.00  0.00    +0.000 A 
ATOM     25  C   UNL     1      -0.187  10.974  20.774  0.00  0.00    +0.000 A 
ATOM     26  C   UNL     1      -0.560  10.723  22.093  0.00  0.00    +0.000 A 
ATOM     27  C   UNL     1      -0.306   9.474  22.667  0.00  0.00    +0.000 A 
ATOM     28  C   UNL     1       0.366   8.494  21.921  0.00  0.00    +0.000 A 
BRANCH  26  29
ATOM     29  N   UNL     1      -1.181  11.785  22.896  0.00  0.00    +0.000 N 
ATOM     30  O   UNL     1      -2.329  11.591  23.322  0.00  0.00    +0.000 OA
ATOM     31  O   UNL     1      -0.527  12.820  23.092  0.00  0.00    +0.000 OA
ENDBRANCH  26  29
ENDBRANCH  20  23
ENDBRANCH   1  17
TORSDOF 4
ENDMDL
MODEL 3
REMARK VINA RESULT:      -7.5      1.546      1.969
REMARK  Name = 
REMARK  4 active torsions:
REMARK  status: ('A' for Active; 'I' for Inactive)
REMARK    1  A    between atoms: C_7  and  C_8
REMARK    2  A    between atoms: C_8  and  N_9
REMARK    3  A    between atoms: N_12  and  C_13
REMARK    4  A    between atoms: C_16  and  N_17
REMARK                            x       y       z     vdW  Elec       q    Type
REMARK                         _______ _______ _______ _____ _____    ______ ____
ROOT
ATOM      1  C   UNL     1       4.097   4.107  19.333  0.00  0.00    +0.000 C 
ENDROOT
BRANCH   1   8
ATOM      2  N   UNL     1       7.720   5.261  13.777  0.00  0.00    +0.000 N 
ATOM      3  C   UNL     1       7.099   5.113  14.973  0.00  0.00    +0.000 A 
ATOM      4  N   UNL     1       7.545   5.734  16.029  0.00  0.00    +0.000 NA
ATOM      5  C   UNL     1       6.829   5.493  17.150  0.00  0.00    +0.000 A 
ATOM      6  N   UNL     1       7.157   5.993  18.374  0.00  0.00    +0.000 N 
ATOM      7  C   UNL     1       6.231   5.572  19.299  0.00  0.00    +0.000 A 
ATOM      8  C   UNL     1       5.280   4.777  18.668  0.00  0.00    +0.000 A 
ATOM      9  C   UNL     1       5.698   4.716  17.299  0.00  0.00    +0.000 A 
ATOM     10  C   UNL     1       5.212   4.050  16.115  0.00  0.00    +0.000 A 
ATOM     11  O   UNL     1       4.213   3.336  16.083  0.00  0.00    +0.000 OA
ATOM     12  N   UNL     1       5.989   4.293  14.995  0.00  0.00    +0.000 N 
ATOM     13  H   UNL     1       8.324   6.078  13.739  0.00  0.00    +0.000 HD
ATOM     14  H   UNL     1       7.206   5.087  12.927  0.00  0.00    +0.000 HD
ATOM     15  H   UNL     1       7.963   6.574  18.550  0.00  0.00    +0.000 HD
ATOM     16  H   UNL     1       5.703   3.815  14.158  0.00  0.00    +0.000 HD
ENDBRANCH   1   8
BRANCH   1  17
ATOM     17  N   UNL     1       2.846   4.614  18.754  0.00  0.00    +0.000 NA
ATOM     18  C   UNL     1       1.756   4.724  19.745  0.00  0.00    +0.000 C 
ATOM     19  C   UNL     1       1.877   5.916  20.716  0.00  0.00    +0.000 C 
ATOM     20  N   UNL     1       1.888   7.172  19.950  0.00  0.00    +0.000 N 
ATOM     21  C   UNL     1       2.910   7.238  18.887  0.00  0.00    +0.000 C 
ATOM     22  C   UNL     1       2.992   5.916  18.062  0.00  0.00    +0.000 C 
BRANCH  20  23
ATOM     23  C   UNL     1       1.371   8.330  20.520  0.00  0.00    +0.000 A 
ATOM     24  C   UNL     1       1.115   8.445  21.902  0.00  0.00    +0.000 A 
ATOM     25  C   UNL     1       0.417   9.532  22.442  0.00  0.00    +0.000 A 
ATOM     26  C   UNL     1      -0.035  10.544  21.597  0.00  0.00    +0.000 A 
ATOM     27  C   UNL     1       0.253  10.496  20.230  0.00  0.00    +0.000 A 
ATOM     28  C   UNL     1       0.959   9.401  19.710  0.00  0.00    +0.000 A 
BRANCH  26  29
ATOM     29  N   UNL     1      -0.853  11.640  22.135  0.00  0.00    +0.000 N 
ATOM     30  O   UNL     1      -1.241  12.513  21.344  0.00  0.00    +0.000 OA
ATOM     31  O   UNL     1      -1.097  11.637  23.350  0.00  0.00    +0.000 OA
ENDBRANCH  26  29
ENDBRANCH  20  23
ENDBRANCH   1  17
TORSDOF 4
ENDMDL
MODEL 4
REMARK VINA RESULT:      -7.5      4.105      9.421
REMARK  Name = 
REMARK  4 active torsions:
REMARK  status: ('A' for Active; 'I' for Inactive)
REMARK    1  A    between atoms: C_7  and  C_8
REMARK    2  A    between atoms: C_8  and  N_9
REMARK    3  A    between atoms: N_12  and  C_13
REMARK    4  A    between atoms: C_16  and  N_17
REMARK                            x       y       z     vdW  Elec       q    Type
REMARK                         _______ _______ _______ _____ _____    ______ ____
ROOT
ATOM      1  C   UNL     1       1.427  11.453  19.189  0.00  0.00    +0.000 C 
ENDROOT
BRANCH   1   8
ATOM      2  N   UNL     1       1.108  18.116  18.276  0.00  0.00    +0.000 N 
ATOM      3  C   UNL     1       1.016  16.779  18.482  0.00  0.00    +0.000 A 
ATOM      4  N   UNL     1      -0.149  16.213  18.629  0.00  0.00    +0.000 NA
ATOM      5  C   UNL     1      -0.088  14.877  18.828  0.00  0.00    +0.000 A 
ATOM      6  N   UNL     1      -1.183  14.101  19.065  0.00  0.00    +0.000 N 
ATOM      7  C   UNL     1      -0.787  12.793  19.216  0.00  0.00    +0.000 A 
ATOM      8  C   UNL     1       0.594  12.713  19.080  0.00  0.00    +0.000 A 
ATOM      9  C   UNL     1       1.025  14.061  18.861  0.00  0.00    +0.000 A 
ATOM     10  C   UNL     1       2.303  14.705  18.680  0.00  0.00    +0.000 A 
ATOM     11  O   UNL     1       3.380  14.116  18.672  0.00  0.00    +0.000 OA
ATOM     12  N   UNL     1       2.204  16.076  18.513  0.00  0.00    +0.000 N 
ATOM     13  H   UNL     1       0.234  18.533  17.968  0.00  0.00    +0.000 HD
ATOM     14  H   UNL     1       1.928  18.493  17.825  0.00  0.00    +0.000 HD
ATOM     15  H   UNL     1      -2.126  14.455  19.122  0.00  0.00    +0.000 HD
ATOM     16  H   UNL     1       3.078  16.565  18.422  0.00  0.00    +0.000 HD
ENDBRANCH   1   8
BRANCH   1  17
ATOM     17  N   UNL     1       0.570  10.272  19.021  0.00  0.00    +0.000 NA
ATOM     18  C   UNL     1       1.029   9.376  17.941  0.00  0.00    +0.000 C 
ATOM     19  C   UNL     1       2.266   8.521  18.287  0.00  0.00    +0.000 C 
ATOM     20  N   UNL     1       1.964   7.672  19.450  0.00  0.00    +0.000 N 
ATOM     21  C   UNL     1       1.465   8.400  20.633  0.00  0.00    +0.000 C 
ATOM     22  C   UNL     1       0.399   9.477  20.260  0.00  0.00    +0.000 C 
BRANCH  20  23
ATOM     23  C   UNL     1       2.587   6.436  19.579  0.00  0.00    +0.000 A 
ATOM     24  C   UNL     1       3.647   6.031  18.743  0.00  0.00    +0.000 A 
ATOM     25  C   UNL     1       4.140   4.720  18.746  0.00  0.00    +0.000 A 
ATOM     26  C   UNL     1       3.577   3.778  19.607  0.00  0.00    +0.000 A 
ATOM     27  C   UNL     1       2.566   4.158  20.495  0.00  0.00    +0.000 A 
ATOM     28  C   UNL     1       2.092   5.479  20.480  0.00  0.00    +0.000 A 
BRANCH  26  29
ATOM     29  N   UNL     1       4.015   2.377  19.553  0.00  0.00    +0.000 N 
ATOM     30  O   UNL     1       3.467   1.632  18.727  0.00  0.00    +0.000 OA
ATOM     31  O   UNL     1       4.899   2.017  20.343  0.00  0.00    +0.000 OA
ENDBRANCH  26  29
ENDBRANCH  20  23
ENDBRANCH   1  17
TORSDOF 4
ENDMDL
MODEL 5
REMARK VINA RESULT:      -7.4      2.193     10.408
REMARK  Name = 
REMARK  4 active torsions:
REMARK  status: ('A' for Active; 'I' for Inactive)
REMARK    1  A    between atoms: C_7  and  C_8
REMARK    2  A    between atoms: C_8  and  N_9
REMARK    3  A    between atoms: N_12  and  C_13
REMARK    4  A    between atoms: C_16  and  N_17
REMARK                            x       y       z     vdW  Elec       q    Type
REMARK                         _______ _______ _______ _____ _____    ______ ____
ROOT
ATOM      1  C   UNL     1       0.296  11.518  20.701  0.00  0.00    +0.000 C 
ENDROOT
BRANCH   1   8
ATOM      2  N   UNL     1      -4.963  13.976  24.112  0.00  0.00    +0.000 N 
ATOM      3  C   UNL     1      -3.929  13.596  23.321  0.00  0.00    +0.000 A 
ATOM      4  N   UNL     1      -3.598  14.309  22.281  0.00  0.00    +0.000 NA
ATOM      5  C   UNL     1      -2.552  13.810  21.585  0.00  0.00    +0.000 A 
ATOM      6  N   UNL     1      -2.081  14.366  20.433  0.00  0.00    +0.000 N 
ATOM      7  C   UNL     1      -1.013  13.630  19.978  0.00  0.00    +0.000 A 
ATOM      8  C   UNL     1      -0.782  12.570  20.848  0.00  0.00    +0.000 A 
ATOM      9  C   UNL     1      -1.796  12.687  21.853  0.00  0.00    +0.000 A 
ATOM     10  C   UNL     1      -2.169  11.920  23.016  0.00  0.00    +0.000 A 
ATOM     11  O   UNL     1      -1.589  10.907  23.393  0.00  0.00    +0.000 OA
ATOM     12  N   UNL     1      -3.265  12.442  23.685  0.00  0.00    +0.000 N 
ATOM     13  H   UNL     1      -5.220  14.952  23.991  0.00  0.00    +0.000 HD
ATOM     14  H   UNL     1      -5.000  13.654  25.067  0.00  0.00    +0.000 HD
ATOM     15  H   UNL     1      -2.477  15.186  19.998  0.00  0.00    +0.000 HD
ATOM     16  H   UNL     1      -3.579  11.913  24.480  0.00  0.00    +0.000 HD
ENDBRANCH   1   8
BRANCH   1  17
ATOM     17  N   UNL     1      -0.298  10.256  20.240  0.00  0.00    +0.000 NA
ATOM     18  C   UNL     1       0.026   9.948  18.833  0.00  0.00    +0.000 C 
ATOM     19  C   UNL     1       1.465   9.446  18.590  0.00  0.00    +0.000 C 
ATOM     20  N   UNL     1       1.689   8.213  19.361  0.00  0.00    +0.000 N 
ATOM     21  C   UNL     1       1.393   8.325  20.803  0.00  0.00    +0.000 C 
ATOM     22  C   UNL     1       0.059   9.086  21.077  0.00  0.00    +0.000 C 
BRANCH  20  23
ATOM     23  C   UNL     1       2.575   7.255  18.884  0.00  0.00    +0.000 A 
ATOM     24  C   UNL     1       2.842   6.057  19.578  0.00  0.00    +0.000 A 
ATOM     25  C   UNL     1       3.873   5.189  19.198  0.00  0.00    +0.000 A 
ATOM     26  C   UNL     1       4.662   5.505  18.093  0.00  0.00    +0.000 A 
ATOM     27  C   UNL     1       4.388   6.652  17.343  0.00  0.00    +0.000 A 
ATOM     28  C   UNL     1       3.346   7.505  17.737  0.00  0.00    +0.000 A 
BRANCH  26  29
ATOM     29  N   UNL     1       5.808   4.656  17.741  0.00  0.00    +0.000 N 
ATOM     30  O   UNL     1       6.661   4.445  18.616  0.00  0.00    +0.000 OA
ATOM     31  O   UNL     1       5.864   4.209  16.586  0.00  0.00    +0.000 OA
ENDBRANCH  26  29
ENDBRANCH  20  23
ENDBRANCH   1  17
TORSDOF 4
ENDMDL
MODEL 6
REMARK VINA RESULT:      -7.3      0.636      1.170
REMARK  Name = 
REMARK  4 active torsions:
REMARK  status: ('A' for Active; 'I' for Inactive)
REMARK    1  A    between atoms: C_7  and  C_8
REMARK    2  A    between atoms: C_8  and  N_9
REMARK    3  A    between atoms: N_12  and  C_13
REMARK    4  A    between atoms: C_16  and  N_17
REMARK                            x       y       z     vdW  Elec       q    Type
REMARK                         _______ _______ _______ _____ _____    ______ ____
ROOT
ATOM      1  C   UNL     1       3.722   5.592  19.459  0.00  0.00    +0.000 C 
ENDROOT
BRANCH   1   8
ATOM      2  N   UNL     1       7.789   5.077  14.119  0.00  0.00    +0.000 N 
ATOM      3  C   UNL     1       6.937   5.028  15.172  0.00  0.00    +0.000 A 
ATOM      4  N   UNL     1       6.404   3.896  15.537  0.00  0.00    +0.000 NA
ATOM      5  C   UNL     1       5.574   3.998  16.599  0.00  0.00    +0.000 A 
ATOM      6  N   UNL     1       4.868   2.949  17.105  0.00  0.00    +0.000 N 
ATOM      7  C   UNL     1       4.128   3.377  18.182  0.00  0.00    +0.000 A 
ATOM      8  C   UNL     1       4.353   4.735  18.383  0.00  0.00    +0.000 A 
ATOM      9  C   UNL     1       5.259   5.118  17.341  0.00  0.00    +0.000 A 
ATOM     10  C   UNL     1       5.871   6.358  16.931  0.00  0.00    +0.000 A 
ATOM     11  O   UNL     1       5.701   7.435  17.495  0.00  0.00    +0.000 OA
ATOM     12  N   UNL     1       6.687   6.222  15.820  0.00  0.00    +0.000 N 
ATOM     13  H   UNL     1       8.169   4.167  13.870  0.00  0.00    +0.000 HD
ATOM     14  H   UNL     1       8.452   5.834  14.052  0.00  0.00    +0.000 HD
ATOM     15  H   UNL     1       4.894   2.013  16.727  0.00  0.00    +0.000 HD
ATOM     16  H   UNL     1       7.102   7.072  15.480  0.00  0.00    +0.000 HD
ENDBRANCH   1   8
BRANCH   1  17
ATOM     17  N   UNL     1       2.293   5.780  19.173  0.00  0.00    +0.000 NA
ATOM     18  C   UNL     1       1.472   5.897  20.394  0.00  0.00    +0.000 C 
ATOM     19  C   UNL     1       1.580   7.252  21.124  0.00  0.00    +0.000 C 
ATOM     20  N   UNL     1       1.158   8.331  20.219  0.00  0.00    +0.000 N 
ATOM     21  C   UNL     1       1.863   8.360  18.922  0.00  0.00    +0.000 C 
ATOM     22  C   UNL     1       2.008   6.939  18.294  0.00  0.00    +0.000 C 
BRANCH  20  23
ATOM     23  C   UNL     1       0.572   9.478  20.741  0.00  0.00    +0.000 A 
ATOM     24  C   UNL     1       0.630  10.725  20.085  0.00  0.00    +0.000 A 
ATOM     25  C   UNL     1       0.213  11.911  20.702  0.00  0.00    +0.000 A 
ATOM     26  C   UNL     1      -0.287  11.868  22.002  0.00  0.00    +0.000 A 
ATOM     27  C   UNL     1      -0.418  10.643  22.662  0.00  0.00    +0.000 A 
ATOM     28  C   UNL     1      -0.001   9.465  22.024  0.00  0.00    +0.000 A 
BRANCH  26  29
ATOM     29  N   UNL     1      -0.637  13.115  22.697  0.00  0.00    +0.000 N 
ATOM     30  O   UNL     1       0.183  14.044  22.662  0.00  0.00    +0.000 OA
ATOM     31  O   UNL     1      -1.725  13.162  23.289  0.00  0.00    +0.000 OA
ENDBRANCH  26  29
ENDBRANCH  20  23
ENDBRANCH   1  17
TORSDOF 4
ENDMDL
MODEL 7
REMARK VINA RESULT:      -7.3      1.489      2.047
REMARK  Name = 
REMARK  4 active torsions:
REMARK  status: ('A' for Active; 'I' for Inactive)
REMARK    1  A    between atoms: C_7  and  C_8
REMARK    2  A    between atoms: C_8  and  N_9
REMARK    3  A    between atoms: N_12  and  C_13
REMARK    4  A    between atoms: C_16  and  N_17
REMARK                            x       y       z     vdW  Elec       q    Type
REMARK                         _______ _______ _______ _____ _____    ______ ____
ROOT
ATOM      1  C   UNL     1       4.704   5.506  18.970  0.00  0.00    +0.000 C 
ENDROOT
BRANCH   1   8
ATOM      2  N   UNL     1       6.974   4.056  12.799  0.00  0.00    +0.000 N 
ATOM      3  C   UNL     1       6.638   4.447  14.053  0.00  0.00    +0.000 A 
ATOM      4  N   UNL     1       7.301   5.400  14.646  0.00  0.00    +0.000 NA
ATOM      5  C   UNL     1       6.859   5.683  15.892  0.00  0.00    +0.000 A 
ATOM      6  N   UNL     1       7.446   6.602  16.708  0.00  0.00    +0.000 N 
ATOM      7  C   UNL     1       6.757   6.660  17.896  0.00  0.00    +0.000 A 
ATOM      8  C   UNL     1       5.699   5.758  17.857  0.00  0.00    +0.000 A 
ATOM      9  C   UNL     1       5.800   5.123  16.577  0.00  0.00    +0.000 A 
ATOM     10  C   UNL     1       5.069   4.081  15.898  0.00  0.00    +0.000 A 
ATOM     11  O   UNL     1       4.098   3.496  16.368  0.00  0.00    +0.000 OA
ATOM     12  N   UNL     1       5.572   3.795  14.639  0.00  0.00    +0.000 N 
ATOM     13  H   UNL     1       7.543   4.739  12.307  0.00  0.00    +0.000 HD
ATOM     14  H   UNL     1       6.284   3.599  12.222  0.00  0.00    +0.000 HD
ATOM     15  H   UNL     1       8.264   7.139  16.459  0.00  0.00    +0.000 HD
ATOM     16  H   UNL     1       5.112   3.047  14.150  0.00  0.00    +0.000 HD
ENDBRANCH   1   8
BRANCH   1  17
ATOM     17  N   UNL     1       3.336   5.687  18.466  0.00  0.00    +0.000 NA
ATOM     18  C   UNL     1       2.311   5.546  19.520  0.00  0.00    +0.000 C 
ATOM     19  C   UNL     1       2.196   6.748  20.481  0.00  0.00    +0.000 C 
ATOM     20  N   UNL     1       1.859   7.957  19.714  0.00  0.00    +0.000 N 
ATOM     21  C   UNL     1       2.772   8.250  18.591  0.00  0.00    +0.000 C 
ATOM     22  C   UNL     1       3.123   6.974  17.764  0.00  0.00    +0.000 C 
BRANCH  20  23
ATOM     23  C   UNL     1       1.112   8.965  20.311  0.00  0.00    +0.000 A 
ATOM     24  C   UNL     1       0.929   9.046  21.707  0.00  0.00    +0.000 A 
ATOM     25  C   UNL     1       0.022   9.940  22.289  0.00  0.00    +0.000 A 
ATOM     26  C   UNL     1      -0.722  10.791  21.472  0.00  0.00    +0.000 A 
ATOM     27  C   UNL     1      -0.522  10.783  20.088  0.00  0.00    +0.000 A 
ATOM     28  C   UNL     1       0.397   9.884  19.526  0.00  0.00    +0.000 A 
BRANCH  26  29
ATOM     29  N   UNL     1      -1.747  11.665  22.059  0.00  0.00    +0.000 N 
ATOM     30  O   UNL     1      -2.313  12.475  21.310  0.00  0.00    +0.000 OA
ATOM     31  O   UNL     1      -1.978  11.551  23.272  0.00  0.00    +0.000 OA
ENDBRANCH  26  29
ENDBRANCH  20  23
ENDBRANCH   1  17
TORSDOF 4
ENDMDL
MODEL 8
REMARK VINA RESULT:      -7.3      0.821      1.530
REMARK  Name = 
REMARK  4 active torsions:
REMARK  status: ('A' for Active; 'I' for Inactive)
REMARK    1  A    between atoms: C_7  and  C_8
REMARK    2  A    between atoms: C_8  and  N_9
REMARK    3  A    between atoms: N_12  and  C_13
REMARK    4  A    between atoms: C_16  and  N_17
REMARK                            x       y       z     vdW  Elec       q    Type
REMARK                         _______ _______ _______ _____ _____    ______ ____
ROOT
ATOM      1  C   UNL     1       2.329   5.121  18.329  0.00  0.00    +0.000 C 
ENDROOT
BRANCH   1   8
ATOM      2  N   UNL     1       7.795   5.286  14.400  0.00  0.00    +0.000 N 
ATOM      3  C   UNL     1       6.709   5.096  15.191  0.00  0.00    +0.000 A 
ATOM      4  N   UNL     1       6.404   3.902  15.615  0.00  0.00    +0.000 NA
ATOM      5  C   UNL     1       5.298   3.863  16.392  0.00  0.00    +0.000 A 
ATOM      6  N   UNL     1       4.770   2.710  16.890  0.00  0.00    +0.000 N 
ATOM      7  C   UNL     1       3.658   3.008  17.641  0.00  0.00    +0.000 A 
ATOM      8  C   UNL     1       3.453   4.384  17.632  0.00  0.00    +0.000 A 
ATOM      9  C   UNL     1       4.497   4.909  16.802  0.00  0.00    +0.000 A 
ATOM     10  C   UNL     1       4.861   6.223  16.335  0.00  0.00    +0.000 A 
ATOM     11  O   UNL     1       4.257   7.253  16.622  0.00  0.00    +0.000 OA
ATOM     12  N   UNL     1       5.977   6.221  15.515  0.00  0.00    +0.000 N 
ATOM     13  H   UNL     1       8.453   4.513  14.433  0.00  0.00    +0.000 HD
ATOM     14  H   UNL     1       8.227   6.197  14.363  0.00  0.00    +0.000 HD
ATOM     15  H   UNL     1       5.149   1.791  16.715  0.00  0.00    +0.000 HD
ATOM     16  H   UNL     1       6.240   7.115  15.139  0.00  0.00    +0.000 HD
ENDBRANCH   1   8
BRANCH   1  17
ATOM     17  N   UNL     1       2.814   5.686  19.595  0.00  0.00    +0.000 NA
ATOM     18  C   UNL     1       3.157   7.118  19.492  0.00  0.00    +0.000 C 
ATOM     19  C   UNL     1       1.948   8.076  19.442  0.00  0.00    +0.000 C 
ATOM     20  N   UNL     1       1.145   7.914  20.664  0.00  0.00    +0.000 N 
ATOM     21  C   UNL     1       0.723   6.527  20.946  0.00  0.00    +0.000 C 
ATOM     22  C   UNL     1       1.878   5.501  20.729  0.00  0.00    +0.000 C 
BRANCH  20  23
ATOM     23  C   UNL     1       0.432   8.996  21.167  0.00  0.00    +0.000 A 
ATOM     24  C   UNL     1       0.368  10.237  20.499  0.00  0.00    +0.000 A 
ATOM     25  C   UNL     1      -0.183  11.377  21.098  0.00  0.00    +0.000 A 
ATOM     26  C   UNL     1      -0.696  11.291  22.392  0.00  0.00    +0.000 A 
ATOM     27  C   UNL     1      -0.705  10.065  23.061  0.00  0.00    +0.000 A 
ATOM     28  C   UNL     1      -0.155   8.933  22.441  0.00  0.00    +0.000 A 
BRANCH  26  29
ATOM     29  N   UNL     1      -1.186  12.499  23.069  0.00  0.00    +0.000 N 
ATOM     30  O   UNL     1      -0.382  13.425  23.254  0.00  0.00    +0.000 OA
ATOM     31  O   UNL     1      -2.373  12.520  23.428  0.00  0.00    +0.000 OA
ENDBRANCH  26  29
ENDBRANCH  20  23
ENDBRANCH   1  17
TORSDOF 4
ENDMDL
MODEL 9
REMARK VINA RESULT:      -7.2      3.000      9.927
REMARK  Name = 
REMARK  4 active torsions:
REMARK  status: ('A' for Active; 'I' for Inactive)
REMARK    1  A    between atoms: C_7  and  C_8
REMARK    2  A    between atoms: C_8  and  N_9
REMARK    3  A    between atoms: N_12  and  C_13
REMARK    4  A    between atoms: C_16  and  N_17
REMARK                            x       y       z     vdW  Elec       q    Type
REMARK                         _______ _______ _______ _____ _____    ______ ____
ROOT
ATOM      1  C   UNL     1      -0.523  10.236  19.449  0.00  0.00    +0.000 C 
ENDROOT
BRANCH   1   8
ATOM      2  N   UNL     1      -2.704  14.620  24.070  0.00  0.00    +0.000 N 
ATOM      3  C   UNL     1      -2.300  13.847  23.032  0.00  0.00    +0.000 A 
ATOM      4  N   UNL     1      -2.282  14.327  21.820  0.00  0.00    +0.000 NA
ATOM      5  C   UNL     1      -1.859  13.445  20.887  0.00  0.00    +0.000 A 
ATOM      6  N   UNL     1      -1.820  13.721  19.554  0.00  0.00    +0.000 N 
ATOM      7  C   UNL     1      -1.338  12.625  18.878  0.00  0.00    +0.000 A 
ATOM      8  C   UNL     1      -1.060  11.611  19.787  0.00  0.00    +0.000 A 
ATOM      9  C   UNL     1      -1.427  12.145  21.064  0.00  0.00    +0.000 A 
ATOM     10  C   UNL     1      -1.441  11.638  22.414  0.00  0.00    +0.000 A 
ATOM     11  O   UNL     1      -1.076  10.511  22.734  0.00  0.00    +0.000 OA
ATOM     12  N   UNL     1      -1.911  12.558  23.337  0.00  0.00    +0.000 N 
ATOM     13  H   UNL     1      -2.692  15.614  23.856  0.00  0.00    +0.000 HD
ATOM     14  H   UNL     1      -2.398  14.394  25.004  0.00  0.00    +0.000 HD
ATOM     15  H   UNL     1      -2.111  14.598  19.149  0.00  0.00    +0.000 HD
ATOM     16  H   UNL     1      -1.971  12.227  24.285  0.00  0.00    +0.000 HD
ENDBRANCH   1   8
BRANCH   1  17
ATOM     17  N   UNL     1       0.940  10.227  19.576  0.00  0.00    +0.000 NA
ATOM     18  C   UNL     1       1.408   9.530  20.791  0.00  0.00    +0.000 C 
ATOM     19  C   UNL     1       1.330   7.990  20.730  0.00  0.00    +0.000 C 
ATOM     20  N   UNL     1       2.153   7.503  19.612  0.00  0.00    +0.000 N 
ATOM     21  C   UNL     1       1.840   8.112  18.304  0.00  0.00    +0.000 C 
ATOM     22  C   UNL     1       1.639   9.656  18.401  0.00  0.00    +0.000 C 
BRANCH  20  23
ATOM     23  C   UNL     1       2.755   6.253  19.695  0.00  0.00    +0.000 A 
ATOM     24  C   UNL     1       3.830   5.873  18.865  0.00  0.00    +0.000 A 
ATOM     25  C   UNL     1       4.303   4.557  18.815  0.00  0.00    +0.000 A 
ATOM     26  C   UNL     1       3.707   3.583  19.615  0.00  0.00    +0.000 A 
ATOM     27  C   UNL     1       2.680   3.934  20.496  0.00  0.00    +0.000 A 
ATOM     28  C   UNL     1       2.225   5.261  20.535  0.00  0.00    +0.000 A 
BRANCH  26  29
ATOM     29  N   UNL     1       4.127   2.179  19.501  0.00  0.00    +0.000 N 
ATOM     30  O   UNL     1       4.973   1.763  20.306  0.00  0.00    +0.000 OA
ATOM     31  O   UNL     1       3.620   1.495  18.600  0.00  0.00    +0.000 OA
ENDBRANCH  26  29
ENDBRANCH  20  23
ENDBRANCH   1  17
TORSDOF 4
ENDMDL
