MODEL 1
REMARK VINA RESULT:      -7.4      0.000      0.000
REMARK  Name = 
REMARK  4 active torsions:
REMARK  status: ('A' for Active; 'I' for Inactive)
REMARK    1  A    between atoms: C_2  and  C_3
REMARK    2  A    between atoms: C_3  and  N_4
REMARK    3  A    between atoms: N_7  and  C_8
REMARK    4  A    between atoms: C_8  and  C_9
REMARK                            x       y       z     vdW  Elec       q    Type
REMARK                         _______ _______ _______ _____ _____    ______ ____
ROOT
ATOM      1  N   UNL     1       7.102   6.450  17.592  0.00  0.00    +0.000 NA
ATOM      2  C   UNL     1       5.689   6.206  17.979  0.00  0.00    +0.000 C 
ATOM      3  C   UNL     1       4.698   6.034  16.796  0.00  0.00    +0.000 C 
ATOM      4  N   UNL     1       5.094   5.025  15.791  0.00  0.00    +0.000 NA
ATOM      5  C   UNL     1       6.486   5.302  15.373  0.00  0.00    +0.000 C 
ATOM      6  C   UNL     1       7.487   5.466  16.547  0.00  0.00    +0.000 C 
ENDROOT
BRANCH   1   7
ATOM      7  C   UNL     1       7.241   7.848  17.119  0.00  0.00    +0.000 C 
BRANCH   7   9
ATOM      8  O   UNL     1       8.725   8.160  18.964  0.00  0.00    +0.000 OA
ATOM      9  C   UNL     1       8.138   8.694  18.026  0.00  0.00    +0.000 C 
ATOM     10  N   UNL     1       8.171  10.024  17.664  0.00  0.00    +0.000 N 
ATOM     11  C   UNL     1       9.039  10.970  18.221  0.00  0.00    +0.000 A 
ATOM     12  C   UNL     1       8.847  12.309  17.897  0.00  0.00    +0.000 A 
ATOM     13  C   UNL     1       9.716  13.266  18.430  0.00  0.00    +0.000 A 
ATOM     14  C   UNL     1      10.757  12.860  19.260  0.00  0.00    +0.000 A 
ATOM     15  C   UNL     1      10.881  11.509  19.519  0.00  0.00    +0.000 A 
ATOM     16  N   UNL     1      10.049  10.574  19.018  0.00  0.00    +0.000 NA
ATOM     17  H   UNL     1       7.451  10.328  17.016  0.00  0.00    +0.000 HD
ENDBRANCH   7   9
ENDBRANCH   1   7
BRANCH   4  18
ATOM     18  C   UNL     1       4.985   3.640  16.312  0.00  0.00    +0.000 C 
BRANCH  18  19
ATOM     19  C   UNL     1       3.761   3.459  17.203  0.00  0.00    +0.000 C 
ATOM     20  O   UNL     1       2.625   3.549  16.729  0.00  0.00    +0.000 OA
ATOM     21  N   UNL     1       4.050   3.247  18.533  0.00  0.00    +0.000 N 
ATOM     22  C   UNL     1       3.066   3.052  19.498  0.00  0.00    +0.000 A 
ATOM     23  C   UNL     1       1.940   2.280  19.232  0.00  0.00    +0.000 A 
ATOM     24  C   UNL     1       0.936   2.207  20.191  0.00  0.00    +0.000 A 
ATOM     25  C   UNL     1       1.083   2.920  21.371  0.00  0.00    +0.000 A 
ATOM     26  C   UNL     1       2.260   3.624  21.567  0.00  0.00    +0.000 A 
ATOM     27  N   UNL     1       3.275   3.671  20.677  0.00  0.00    +0.000 NA
ATOM     28  H   UNL     1       4.943   3.577  18.878  0.00  0.00    +0.000 HD
ENDBRANCH  18  19
ENDBRANCH   4  18
TORSDOF 4
ENDMDL
MODEL 2
REMARK VINA RESULT:      -7.1      8.930     10.261
REMARK  Name = 
REMARK  4 active torsions:
REMARK  status: ('A' for Active; 'I' for Inactive)
REMARK    1  A    between atoms: C_2  and  C_3
REMARK    2  A    between atoms: C_3  and  N_4
REMARK    3  A    between atoms: N_7  and  C_8
REMARK    4  A    between atoms: C_8  and  C_9
REMARK                            x       y       z     vdW  Elec       q    Type
REMARK                         _______ _______ _______ _____ _____    ______ ____
ROOT
ATOM      1  N   UNL     1      -0.232  11.187  22.748  0.00  0.00    +0.000 NA
ATOM      2  C   UNL     1      -0.183   9.777  23.216  0.00  0.00    +0.000 C 
ATOM      3  C   UNL     1      -0.590   8.714  22.159  0.00  0.00    +0.000 C 
ATOM      4  N   UNL     1       0.126   8.809  20.870  0.00  0.00    +0.000 NA
ATOM      5  C   UNL     1       0.034  10.204  20.385  0.00  0.00    +0.000 C 
ATOM      6  C   UNL     1       0.446  11.274  21.429  0.00  0.00    +0.000 C 
ENDROOT
BRANCH   1   7
ATOM      7  C   UNL     1      -1.645  11.626  22.678  0.00  0.00    +0.000 C 
BRANCH   7   9
ATOM      8  O   UNL     1      -0.905  13.642  23.722  0.00  0.00    +0.000 OA
ATOM      9  C   UNL     1      -1.869  13.007  23.298  0.00  0.00    +0.000 C 
ATOM     10  N   UNL     1      -3.195  13.384  23.313  0.00  0.00    +0.000 N 
ATOM     11  C   UNL     1      -3.645  14.661  23.669  0.00  0.00    +0.000 A 
ATOM     12  C   UNL     1      -5.014  14.857  23.816  0.00  0.00    +0.000 A 
ATOM     13  C   UNL     1      -5.484  16.130  24.153  0.00  0.00    +0.000 A 
ATOM     14  C   UNL     1      -4.578  17.172  24.323  0.00  0.00    +0.000 A 
ATOM     15  C   UNL     1      -3.237  16.891  24.146  0.00  0.00    +0.000 A 
ATOM     16  N   UNL     1      -2.767  15.669  23.826  0.00  0.00    +0.000 NA
ATOM     17  H   UNL     1      -3.871  12.648  23.138  0.00  0.00    +0.000 HD
ENDBRANCH   7   9
ENDBRANCH   1   7
BRANCH   4  18
ATOM     18  C   UNL     1       1.549   8.404  20.986  0.00  0.00    +0.000 C 
BRANCH  18  19
ATOM     19  C   UNL     1       1.973   7.473  19.855  0.00  0.00    +0.000 C 
ATOM     20  O   UNL     1       2.304   7.933  18.758  0.00  0.00    +0.000 OA
ATOM     21  N   UNL     1       1.897   6.132  20.162  0.00  0.00    +0.000 N 
ATOM     22  C   UNL     1       2.249   5.131  19.261  0.00  0.00    +0.000 A 
ATOM     23  C   UNL     1       3.360   5.263  18.434  0.00  0.00    +0.000 A 
ATOM     24  C   UNL     1       3.605   4.285  17.479  0.00  0.00    +0.000 A 
ATOM     25  C   UNL     1       2.723   3.220  17.369  0.00  0.00    +0.000 A 
ATOM     26  C   UNL     1       1.670   3.147  18.266  0.00  0.00    +0.000 A 
ATOM     27  N   UNL     1       1.438   4.054  19.240  0.00  0.00    +0.000 NA
ATOM     28  H   UNL     1       1.263   5.854  20.901  0.00  0.00    +0.000 HD
ENDBRANCH  18  19
ENDBRANCH   4  18
TORSDOF 4
ENDMDL
MODEL 3
REMARK VINA RESULT:      -7.1      9.003     10.536
REMARK  Name = 
REMARK  4 active torsions:
REMARK  status: ('A' for Active; 'I' for Inactive)
REMARK    1  A    between atoms: C_2  and  C_3
REMARK    2  A    between atoms: C_3  and  N_4
REMARK    3  A    between atoms: N_7  and  C_8
REMARK    4  A    between atoms: C_8  and  C_9
REMARK                            x       y       z     vdW  Elec       q    Type
REMARK                         _______ _______ _______ _____ _____    ______ ____
ROOT
ATOM      1  N   UNL     1      -0.380  11.205  22.827  0.00  0.00    +0.000 NA
ATOM      2  C   UNL     1      -0.058   9.815  23.244  0.00  0.00    +0.000 C 
ATOM      3  C   UNL     1      -0.472   8.709  22.235  0.00  0.00    +0.000 C 
ATOM      4  N   UNL     1       0.010   8.911  20.853  0.00  0.00    +0.000 NA
ATOM      5  C   UNL     1      -0.355  10.280  20.426  0.00  0.00    +0.000 C 
ATOM      6  C   UNL     1       0.061  11.395  21.422  0.00  0.00    +0.000 C 
ENDROOT
BRANCH   1   7
ATOM      7  C   UNL     1      -1.834  11.435  22.991  0.00  0.00    +0.000 C 
BRANCH   7   9
ATOM      8  O   UNL     1      -1.255  13.668  23.607  0.00  0.00    +0.000 OA
ATOM      9  C   UNL     1      -2.167  12.881  23.367  0.00  0.00    +0.000 C 
ATOM     10  N   UNL     1      -3.523  13.132  23.399  0.00  0.00    +0.000 N 
ATOM     11  C   UNL     1      -4.083  14.406  23.548  0.00  0.00    +0.000 A 
ATOM     12  C   UNL     1      -5.456  14.501  23.745  0.00  0.00    +0.000 A 
ATOM     13  C   UNL     1      -6.036  15.766  23.877  0.00  0.00    +0.000 A 
ATOM     14  C   UNL     1      -5.233  16.899  23.799  0.00  0.00    +0.000 A 
ATOM     15  C   UNL     1      -3.881  16.714  23.590  0.00  0.00    +0.000 A 
ATOM     16  N   UNL     1      -3.305  15.501  23.465  0.00  0.00    +0.000 NA
ATOM     17  H   UNL     1      -4.128  12.318  23.402  0.00  0.00    +0.000 HD
ENDBRANCH   7   9
ENDBRANCH   1   7
BRANCH   4  18
ATOM     18  C   UNL     1       1.477   8.716  20.735  0.00  0.00    +0.000 C 
BRANCH  18  19
ATOM     19  C   UNL     1       1.826   7.353  20.147  0.00  0.00    +0.000 C 
ATOM     20  O   UNL     1       1.577   6.320  20.774  0.00  0.00    +0.000 OA
ATOM     21  N   UNL     1       2.465   7.405  18.928  0.00  0.00    +0.000 N 
ATOM     22  C   UNL     1       2.856   6.265  18.231  0.00  0.00    +0.000 A 
ATOM     23  C   UNL     1       2.042   5.138  18.180  0.00  0.00    +0.000 A 
ATOM     24  C   UNL     1       2.525   3.990  17.564  0.00  0.00    +0.000 A 
ATOM     25  C   UNL     1       3.809   4.001  17.039  0.00  0.00    +0.000 A 
ATOM     26  C   UNL     1       4.528   5.183  17.094  0.00  0.00    +0.000 A 
ATOM     27  N   UNL     1       4.065   6.330  17.638  0.00  0.00    +0.000 NA
ATOM     28  H   UNL     1       2.965   8.254  18.694  0.00  0.00    +0.000 HD
ENDBRANCH  18  19
ENDBRANCH   4  18
TORSDOF 4
ENDMDL
MODEL 4
REMARK VINA RESULT:      -7.0      8.715     11.485
REMARK  Name = 
REMARK  4 active torsions:
REMARK  status: ('A' for Active; 'I' for Inactive)
REMARK    1  A    between atoms: C_2  and  C_3
REMARK    2  A    between atoms: C_3  and  N_4
REMARK    3  A    between atoms: N_7  and  C_8
REMARK    4  A    between atoms: C_8  and  C_9
REMARK                            x       y       z     vdW  Elec       q    Type
REMARK                         _______ _______ _______ _____ _____    ______ ____
ROOT
ATOM      1  N   UNL     1       0.125   9.085  20.884  0.00  0.00    +0.000 NA
ATOM      2  C   UNL     1      -0.622   8.945  22.161  0.00  0.00    +0.000 C 
ATOM      3  C   UNL     1      -0.341  10.049  23.217  0.00  0.00    +0.000 C 
ATOM      4  N   UNL     1      -0.496  11.435  22.728  0.00  0.00    +0.000 NA
ATOM      5  C   UNL     1       0.288  11.582  21.482  0.00  0.00    +0.000 C 
ATOM      6  C   UNL     1       0.009  10.490  20.416  0.00  0.00    +0.000 C 
ENDROOT
BRANCH   1   7
ATOM      7  C   UNL     1       1.535   8.684  21.100  0.00  0.00    +0.000 C 
BRANCH   7   9
ATOM      8  O   UNL     1       2.283   7.570  19.125  0.00  0.00    +0.000 OA
ATOM      9  C   UNL     1       1.929   7.444  20.295  0.00  0.00    +0.000 C 
ATOM     10  N   UNL     1       1.825   6.274  21.019  0.00  0.00    +0.000 N 
ATOM     11  C   UNL     1       2.283   5.030  20.572  0.00  0.00    +0.000 A 
ATOM     12  C   UNL     1       1.956   3.903  21.319  0.00  0.00    +0.000 A 
ATOM     13  C   UNL     1       2.420   2.653  20.899  0.00  0.00    +0.000 A 
ATOM     14  C   UNL     1       3.205   2.563  19.754  0.00  0.00    +0.000 A 
ATOM     15  C   UNL     1       3.493   3.734  19.080  0.00  0.00    +0.000 A 
ATOM     16  N   UNL     1       3.048   4.947  19.469  0.00  0.00    +0.000 NA
ATOM     17  H   UNL     1       1.300   6.331  21.886  0.00  0.00    +0.000 HD
ENDBRANCH   7   9
ENDBRANCH   1   7
BRANCH   4  18
ATOM     18  C   UNL     1      -1.916  11.788  22.480  0.00  0.00    +0.000 C 
BRANCH  18  19
ATOM     19  C   UNL     1      -2.231  13.219  22.900  0.00  0.00    +0.000 C 
ATOM     20  O   UNL     1      -3.043  13.894  22.260  0.00  0.00    +0.000 OA
ATOM     21  N   UNL     1      -1.508  13.668  23.983  0.00  0.00    +0.000 N 
ATOM     22  C   UNL     1      -1.662  14.944  24.517  0.00  0.00    +0.000 A 
ATOM     23  C   UNL     1      -2.920  15.527  24.639  0.00  0.00    +0.000 A 
ATOM     24  C   UNL     1      -3.009  16.843  25.077  0.00  0.00    +0.000 A 
ATOM     25  C   UNL     1      -1.841  17.536  25.359  0.00  0.00    +0.000 A 
ATOM     26  C   UNL     1      -0.637  16.859  25.254  0.00  0.00    +0.000 A 
ATOM     27  N   UNL     1      -0.523  15.564  24.883  0.00  0.00    +0.000 NA
ATOM     28  H   UNL     1      -0.624  13.214  24.179  0.00  0.00    +0.000 HD
ENDBRANCH  18  19
ENDBRANCH   4  18
TORSDOF 4
ENDMDL
MODEL 5
REMARK VINA RESULT:      -7.0      8.131     10.342
REMARK  Name = 
REMARK  4 active torsions:
REMARK  status: ('A' for Active; 'I' for Inactive)
REMARK    1  A    between atoms: C_2  and  C_3
REMARK    2  A    between atoms: C_3  and  N_4
REMARK    3  A    between atoms: N_7  and  C_8
REMARK    4  A    between atoms: C_8  and  C_9
REMARK                            x       y       z     vdW  Elec       q    Type
REMARK                         _______ _______ _______ _____ _____    ______ ____
ROOT
ATOM      1  N   UNL     1      -0.605  11.557  20.569  0.00  0.00    +0.000 NA
ATOM      2  C   UNL     1      -1.060  10.282  19.958  0.00  0.00    +0.000 C 
ATOM      3  C   UNL     1      -0.518  10.001  18.530  0.00  0.00    +0.000 C 
ATOM      4  N   UNL     1       0.950  10.095  18.389  0.00  0.00    +0.000 NA
ATOM      5  C   UNL     1       1.393  11.388  18.957  0.00  0.00    +0.000 C 
ATOM      6  C   UNL     1       0.865  11.675  20.386  0.00  0.00    +0.000 C 
ENDROOT
BRANCH   1   7
ATOM      7  C   UNL     1      -1.336  12.683  19.943  0.00  0.00    +0.000 C 
BRANCH   7   9
ATOM      8  O   UNL     1      -3.637  13.319  19.867  0.00  0.00    +0.000 OA
ATOM      9  C   UNL     1      -2.712  12.920  20.571  0.00  0.00    +0.000 C 
ATOM     10  N   UNL     1      -2.743  12.648  21.923  0.00  0.00    +0.000 N 
ATOM     11  C   UNL     1      -3.911  12.621  22.693  0.00  0.00    +0.000 A 
ATOM     12  C   UNL     1      -3.784  12.513  24.074  0.00  0.00    +0.000 A 
ATOM     13  C   UNL     1      -4.941  12.466  24.858  0.00  0.00    +0.000 A 
ATOM     14  C   UNL     1      -6.188  12.516  24.244  0.00  0.00    +0.000 A 
ATOM     15  C   UNL     1      -6.221  12.611  22.866  0.00  0.00    +0.000 A 
ATOM     16  N   UNL     1      -5.116  12.663  22.096  0.00  0.00    +0.000 NA
ATOM     17  H   UNL     1      -1.841  12.554  22.380  0.00  0.00    +0.000 HD
ENDBRANCH   7   9
ENDBRANCH   1   7
BRANCH   4  18
ATOM     18  C   UNL     1       1.653   8.976  19.066  0.00  0.00    +0.000 C 
BRANCH  18  19
ATOM     19  C   UNL     1       2.484   8.150  18.090  0.00  0.00    +0.000 C 
ATOM     20  O   UNL     1       2.727   8.579  16.958  0.00  0.00    +0.000 OA
ATOM     21  N   UNL     1       2.867   6.918  18.570  0.00  0.00    +0.000 N 
ATOM     22  C   UNL     1       3.636   6.025  17.828  0.00  0.00    +0.000 A 
ATOM     23  C   UNL     1       4.696   6.467  17.043  0.00  0.00    +0.000 A 
ATOM     24  C   UNL     1       5.363   5.551  16.239  0.00  0.00    +0.000 A 
ATOM     25  C   UNL     1       4.936   4.231  16.232  0.00  0.00    +0.000 A 
ATOM     26  C   UNL     1       3.903   3.873  17.081  0.00  0.00    +0.000 A 
ATOM     27  N   UNL     1       3.272   4.730  17.914  0.00  0.00    +0.000 NA
ATOM     28  H   UNL     1       2.311   6.507  19.309  0.00  0.00    +0.000 HD
ENDBRANCH  18  19
ENDBRANCH   4  18
TORSDOF 4
ENDMDL
MODEL 6
REMARK VINA RESULT:      -7.0      8.989     11.576
REMARK  Name = 
REMARK  4 active torsions:
REMARK  status: ('A' for Active; 'I' for Inactive)
REMARK    1  A    between atoms: C_2  and  C_3
REMARK    2  A    between atoms: C_3  and  N_4
REMARK    3  A    between atoms: N_7  and  C_8
REMARK    4  A    between atoms: C_8  and  C_9
REMARK                            x       y       z     vdW  Elec       q    Type
REMARK                         _______ _______ _______ _____ _____    ______ ____
ROOT
ATOM      1  N   UNL     1       0.147   9.073  20.840  0.00  0.00    +0.000 NA
ATOM      2  C   UNL     1      -0.469   8.796  22.164  0.00  0.00    +0.000 C 
ATOM      3  C   UNL     1      -0.149   9.835  23.273  0.00  0.00    +0.000 C 
ATOM      4  N   UNL     1      -0.423  11.241  22.909  0.00  0.00    +0.000 NA
ATOM      5  C   UNL     1       0.232  11.526  21.613  0.00  0.00    +0.000 C 
ATOM      6  C   UNL     1      -0.087  10.499  20.495  0.00  0.00    +0.000 C 
ENDROOT
BRANCH   1   7
ATOM      7  C   UNL     1       1.590   8.743  20.898  0.00  0.00    +0.000 C 
BRANCH   7   9
ATOM      8  O   UNL     1       2.267   7.557  18.939  0.00  0.00    +0.000 OA
ATOM      9  C   UNL     1       1.940   7.472  20.121  0.00  0.00    +0.000 C 
ATOM     10  N   UNL     1       1.829   6.326  20.880  0.00  0.00    +0.000 N 
ATOM     11  C   UNL     1       2.251   5.060  20.460  0.00  0.00    +0.000 A 
ATOM     12  C   UNL     1       1.919   3.962  21.247  0.00  0.00    +0.000 A 
ATOM     13  C   UNL     1       2.348   2.691  20.852  0.00  0.00    +0.000 A 
ATOM     14  C   UNL     1       3.104   2.552  19.692  0.00  0.00    +0.000 A 
ATOM     15  C   UNL     1       3.398   3.697  18.977  0.00  0.00    +0.000 A 
ATOM     16  N   UNL     1       2.988   4.929  19.341  0.00  0.00    +0.000 NA
ATOM     17  H   UNL     1       1.327   6.419  21.758  0.00  0.00    +0.000 HD
ENDBRANCH   7   9
ENDBRANCH   1   7
BRANCH   4  18
ATOM     18  C   UNL     1      -1.877  11.525  22.817  0.00  0.00    +0.000 C 
BRANCH  18  19
ATOM     19  C   UNL     1      -2.201  12.971  23.177  0.00  0.00    +0.000 C 
ATOM     20  O   UNL     1      -1.354  13.684  23.724  0.00  0.00    +0.000 OA
ATOM     21  N   UNL     1      -3.491  13.356  22.887  0.00  0.00    +0.000 N 
ATOM     22  C   UNL     1      -3.970  14.639  23.137  0.00  0.00    +0.000 A 
ATOM     23  C   UNL     1      -3.183  15.761  22.898  0.00  0.00    +0.000 A 
ATOM     24  C   UNL     1      -3.668  17.010  23.266  0.00  0.00    +0.000 A 
ATOM     25  C   UNL     1      -4.912  17.094  23.874  0.00  0.00    +0.000 A 
ATOM     26  C   UNL     1      -5.644  15.928  24.028  0.00  0.00    +0.000 A 
ATOM     27  N   UNL     1      -5.222  14.707  23.632  0.00  0.00    +0.000 NA
ATOM     28  H   UNL     1      -4.194  12.630  22.821  0.00  0.00    +0.000 HD
ENDBRANCH  18  19
ENDBRANCH   4  18
TORSDOF 4
ENDMDL
MODEL 7
REMARK VINA RESULT:      -7.0      1.247      1.819
REMARK  Name = 
REMARK  4 active torsions:
REMARK  status: ('A' for Active; 'I' for Inactive)
REMARK    1  A    between atoms: C_2  and  C_3
REMARK    2  A    between atoms: C_3  and  N_4
REMARK    3  A    between atoms: N_7  and  C_8
REMARK    4  A    between atoms: C_8  and  C_9
REMARK                            x       y       z     vdW  Elec       q    Type
REMARK                         _______ _______ _______ _____ _____    ______ ____
ROOT
ATOM      1  N   UNL     1       6.888   7.361  17.288  0.00  0.00    +0.000 NA
ATOM      2  C   UNL     1       7.273   6.410  16.213  0.00  0.00    +0.000 C 
ATOM      3  C   UNL     1       7.554   4.958  16.682  0.00  0.00    +0.000 C 
ATOM      4  N   UNL     1       6.482   4.344  17.493  0.00  0.00    +0.000 NA
ATOM      5  C   UNL     1       6.136   5.273  18.591  0.00  0.00    +0.000 C 
ATOM      6  C   UNL     1       5.844   6.726  18.133  0.00  0.00    +0.000 C 
ENDROOT
BRANCH   1   7
ATOM      7  C   UNL     1       8.094   7.722  18.070  0.00  0.00    +0.000 C 
BRANCH   7   9
ATOM      8  O   UNL     1       7.733   9.965  17.336  0.00  0.00    +0.000 OA
ATOM      9  C   UNL     1       8.348   9.231  18.106  0.00  0.00    +0.000 C 
ATOM     10  N   UNL     1       9.291   9.598  19.042  0.00  0.00    +0.000 N 
ATOM     11  C   UNL     1       9.580  10.922  19.390  0.00  0.00    +0.000 A 
ATOM     12  C   UNL     1      10.675  11.161  20.214  0.00  0.00    +0.000 A 
ATOM     13  C   UNL     1      10.968  12.476  20.587  0.00  0.00    +0.000 A 
ATOM     14  C   UNL     1      10.156  13.513  20.138  0.00  0.00    +0.000 A 
ATOM     15  C   UNL     1       9.082  13.185  19.333  0.00  0.00    +0.000 A 
ATOM     16  N   UNL     1       8.789  11.923  18.960  0.00  0.00    +0.000 NA
ATOM     17  H   UNL     1       9.858   8.847  19.423  0.00  0.00    +0.000 HD
ENDBRANCH   7   9
ENDBRANCH   1   7
BRANCH   4  18
ATOM     18  C   UNL     1       5.274   4.036  16.688  0.00  0.00    +0.000 C 
BRANCH  18  19
ATOM     19  C   UNL     1       4.013   3.991  17.544  0.00  0.00    +0.000 C 
ATOM     20  O   UNL     1       3.076   4.762  17.317  0.00  0.00    +0.000 OA
ATOM     21  N   UNL     1       4.057   3.079  18.576  0.00  0.00    +0.000 N 
ATOM     22  C   UNL     1       2.998   2.888  19.459  0.00  0.00    +0.000 A 
ATOM     23  C   UNL     1       1.680   2.888  19.015  0.00  0.00    +0.000 A 
ATOM     24  C   UNL     1       0.657   2.801  19.951  0.00  0.00    +0.000 A 
ATOM     25  C   UNL     1       0.984   2.738  21.298  0.00  0.00    +0.000 A 
ATOM     26  C   UNL     1       2.325   2.697  21.643  0.00  0.00    +0.000 A 
ATOM     27  N   UNL     1       3.341   2.724  20.753  0.00  0.00    +0.000 NA
ATOM     28  H   UNL     1       4.968   2.797  18.915  0.00  0.00    +0.000 HD
ENDBRANCH  18  19
ENDBRANCH   4  18
TORSDOF 4
ENDMDL
MODEL 8
REMARK VINA RESULT:      -6.9      8.395     10.008
REMARK  Name = 
REMARK  4 active torsions:
REMARK  status: ('A' for Active; 'I' for Inactive)
REMARK    1  A    between atoms: C_2  and  C_3
REMARK    2  A    between atoms: C_3  and  N_4
REMARK    3  A    between atoms: N_7  and  C_8
REMARK    4  A    between atoms: C_8  and  C_9
REMARK                            x       y       z     vdW  Elec       q    Type
REMARK                         _______ _______ _______ _____ _____    ______ ____
ROOT
ATOM      1  N   UNL     1       0.983  10.303  19.613  0.00  0.00    +0.000 NA
ATOM      2  C   UNL     1       1.271  11.741  19.372  0.00  0.00    +0.000 C 
ATOM      3  C   UNL     1       0.250  12.477  18.464  0.00  0.00    +0.000 C 
ATOM      4  N   UNL     1      -1.163  12.341  18.873  0.00  0.00    +0.000 NA
ATOM      5  C   UNL     1      -1.458  10.903  19.065  0.00  0.00    +0.000 C 
ATOM      6  C   UNL     1      -0.450  10.159  19.978  0.00  0.00    +0.000 C 
ENDROOT
BRANCH   1   7
ATOM      7  C   UNL     1       1.329   9.529  18.398  0.00  0.00    +0.000 C 
BRANCH   7   9
ATOM      8  O   UNL     1       2.028   7.714  19.782  0.00  0.00    +0.000 OA
ATOM      9  C   UNL     1       2.168   8.286  18.704  0.00  0.00    +0.000 C 
ATOM     10  N   UNL     1       3.030   7.950  17.681  0.00  0.00    +0.000 N 
ATOM     11  C   UNL     1       3.779   6.769  17.641  0.00  0.00    +0.000 A 
ATOM     12  C   UNL     1       4.741   6.635  16.645  0.00  0.00    +0.000 A 
ATOM     13  C   UNL     1       5.486   5.455  16.578  0.00  0.00    +0.000 A 
ATOM     14  C   UNL     1       5.244   4.437  17.495  0.00  0.00    +0.000 A 
ATOM     15  C   UNL     1       4.261   4.649  18.443  0.00  0.00    +0.000 A 
ATOM     16  N   UNL     1       3.537   5.784  18.525  0.00  0.00    +0.000 NA
ATOM     17  H   UNL     1       3.178   8.660  16.971  0.00  0.00    +0.000 HD
ENDBRANCH   7   9
ENDBRANCH   1   7
BRANCH   4  18
ATOM     18  C   UNL     1      -1.464  13.091  20.117  0.00  0.00    +0.000 C 
BRANCH  18  19
ATOM     19  C   UNL     1      -2.820  12.710  20.701  0.00  0.00    +0.000 C 
ATOM     20  O   UNL     1      -2.913  12.344  21.876  0.00  0.00    +0.000 OA
ATOM     21  N   UNL     1      -3.863  12.767  19.804  0.00  0.00    +0.000 N 
ATOM     22  C   UNL     1      -5.176  12.463  20.153  0.00  0.00    +0.000 A 
ATOM     23  C   UNL     1      -5.709  12.866  21.373  0.00  0.00    +0.000 A 
ATOM     24  C   UNL     1      -6.987  12.444  21.718  0.00  0.00    +0.000 A 
ATOM     25  C   UNL     1      -7.680  11.620  20.843  0.00  0.00    +0.000 A 
ATOM     26  C   UNL     1      -7.088  11.310  19.631  0.00  0.00    +0.000 A 
ATOM     27  N   UNL     1      -5.870  11.749  19.244  0.00  0.00    +0.000 NA
ATOM     28  H   UNL     1      -3.642  12.688  18.819  0.00  0.00    +0.000 HD
ENDBRANCH  18  19
ENDBRANCH   4  18
TORSDOF 4
ENDMDL
MODEL 9
REMARK VINA RESULT:      -6.9      8.174      9.987
REMARK  Name = 
REMARK  4 active torsions:
REMARK  status: ('A' for Active; 'I' for Inactive)
REMARK    1  A    between atoms: C_2  and  C_3
REMARK    2  A    between atoms: C_3  and  N_4
REMARK    3  A    between atoms: N_7  and  C_8
REMARK    4  A    between atoms: C_8  and  C_9
REMARK                            x       y       z     vdW  Elec       q    Type
REMARK                         _______ _______ _______ _____ _____    ______ ____
ROOT
ATOM      1  N   UNL     1       0.876  10.124  18.561  0.00  0.00    +0.000 NA
ATOM      2  C   UNL     1      -0.523  10.019  19.049  0.00  0.00    +0.000 C 
ATOM      3  C   UNL     1      -0.765  10.550  20.488  0.00  0.00    +0.000 C 
ATOM      4  N   UNL     1      -0.281  11.923  20.737  0.00  0.00    +0.000 NA
ATOM      5  C   UNL     1       1.129  12.010  20.293  0.00  0.00    +0.000 C 
ATOM      6  C   UNL     1       1.380  11.491  18.854  0.00  0.00    +0.000 C 
ENDROOT
BRANCH   1   7
ATOM      7  C   UNL     1       1.697   9.077  19.212  0.00  0.00    +0.000 C 
BRANCH   7   9
ATOM      8  O   UNL     1       2.857   8.689  17.161  0.00  0.00    +0.000 OA
ATOM      9  C   UNL     1       2.439   8.194  18.205  0.00  0.00    +0.000 C 
ATOM     10  N   UNL     1       2.546   6.881  18.613  0.00  0.00    +0.000 N 
ATOM     11  C   UNL     1       3.319   5.915  17.960  0.00  0.00    +0.000 A 
ATOM     12  C   UNL     1       3.198   4.591  18.368  0.00  0.00    +0.000 A 
ATOM     13  C   UNL     1       3.976   3.615  17.739  0.00  0.00    +0.000 A 
ATOM     14  C   UNL     1       4.860   3.987  16.730  0.00  0.00    +0.000 A 
ATOM     15  C   UNL     1       4.925   5.326  16.397  0.00  0.00    +0.000 A 
ATOM     16  N   UNL     1       4.178   6.279  16.990  0.00  0.00    +0.000 NA
ATOM     17  H   UNL     1       1.948   6.603  19.384  0.00  0.00    +0.000 HD
ENDBRANCH   7   9
ENDBRANCH   1   7
BRANCH   4  18
ATOM     18  C   UNL     1      -1.098  12.944  20.035  0.00  0.00    +0.000 C 
BRANCH  18  19
ATOM     19  C   UNL     1      -2.591  12.743  20.274  0.00  0.00    +0.000 C 
ATOM     20  O   UNL     1      -3.058  12.832  21.413  0.00  0.00    +0.000 OA
ATOM     21  N   UNL     1      -3.310  12.418  19.145  0.00  0.00    +0.000 N 
ATOM     22  C   UNL     1      -4.685  12.205  19.163  0.00  0.00    +0.000 A 
ATOM     23  C   UNL     1      -5.530  13.004  19.927  0.00  0.00    +0.000 A 
ATOM     24  C   UNL     1      -6.879  12.681  19.995  0.00  0.00    +0.000 A 
ATOM     25  C   UNL     1      -7.336  11.563  19.314  0.00  0.00    +0.000 A 
ATOM     26  C   UNL     1      -6.431  10.854  18.540  0.00  0.00    +0.000 A 
ATOM     27  N   UNL     1      -5.125  11.175  18.412  0.00  0.00    +0.000 NA
ATOM     28  H   UNL     1      -2.810  11.991  18.376  0.00  0.00    +0.000 HD
ENDBRANCH  18  19
ENDBRANCH   4  18
TORSDOF 4
ENDMDL
