MODEL 1
REMARK VINA RESULT:      -8.5      0.000      0.000
REMARK  Name = 
REMARK  7 active torsions:
REMARK  status: ('A' for Active; 'I' for Inactive)
REMARK    1  A    between atoms: C_1  and  C_2
REMARK    2  A    between atoms: C_2  and  C_3
REMARK    3  A    between atoms: C_3  and  C_4
REMARK    4  A    between atoms: C_6  and  O_7
REMARK    5  A    between atoms: C_12  and  C_13
REMARK    6  A    between atoms: C_15  and  N_16
REMARK    7  A    between atoms: C_17  and  C_19
REMARK                            x       y       z     vdW  Elec       q    Type
REMARK                         _______ _______ _______ _____ _____    ______ ____
ROOT
ATOM      1  C   UNL     1       7.948   7.919  17.833  0.00  0.00    +0.000 A 
ATOM      2  C   UNL     1       8.300   7.367  19.045  0.00  0.00    +0.000 A 
ATOM      3  C   UNL     1       7.797   6.119  19.285  0.00  0.00    +0.000 A 
ATOM      4  N   UNL     1       7.027   5.441  18.435  0.00  0.00    +0.000 NA
ATOM      5  C   UNL     1       6.773   6.003  17.244  0.00  0.00    +0.000 A 
ATOM      6  N   UNL     1       5.994   5.284  16.315  0.00  0.00    +0.000 N 
ATOM      7  N   UNL     1       6.128   5.441  14.939  0.00  0.00    +0.000 N 
ATOM      8  C   UNL     1       5.926   4.235  14.297  0.00  0.00    +0.000 C 
ATOM      9  C   UNL     1       5.861   4.090  12.821  0.00  0.00    +0.000 C 
ATOM     10  C   UNL     1       5.774   3.266  15.214  0.00  0.00    +0.000 C 
ATOM     11  C   UNL     1       5.858   3.845  16.612  0.00  0.00    +0.000 C 
ATOM     12  N   UNL     1       7.205   7.247  16.922  0.00  0.00    +0.000 NA
ATOM     13  H   UNL     1       5.723   6.274  14.515  0.00  0.00    +0.000 HD
ENDROOT
BRANCH  11  14
ATOM     14  N   UNL     1       4.594   3.639  17.243  0.00  0.00    +0.000 N 
ATOM     15  C   UNL     1       4.486   3.328  18.573  0.00  0.00    +0.000 C 
ATOM     16  O   UNL     1       5.478   3.187  19.284  0.00  0.00    +0.000 OA
ATOM     17  H   UNL     1       3.775   3.809  16.684  0.00  0.00    +0.000 HD
BRANCH  15  18
ATOM     18  C   UNL     1       3.128   3.154  19.077  0.00  0.00    +0.000 A 
ATOM     19  C   UNL     1       1.967   3.118  18.324  0.00  0.00    +0.000 A 
ATOM     20  C   UNL     1       0.798   2.951  19.121  0.00  0.00    +0.000 A 
ATOM     21  C   UNL     1       1.099   2.873  20.461  0.00  0.00    +0.000 A 
ATOM     22  S   UNL     1       2.780   2.992  20.749  0.00  0.00    +0.000 S 
ENDBRANCH  15  18
ENDBRANCH  11  14
BRANCH   3  23
ATOM     23  O   UNL     1       8.054   5.460  20.451  0.00  0.00    +0.000 OA
ATOM     24  H   UNL     1       7.340   5.650  21.075  0.00  0.00    +0.000 HD
ENDBRANCH   3  23
BRANCH   1  25
ATOM     25  C   UNL     1       8.370   9.329  17.498  0.00  0.00    +0.000 C 
BRANCH  25  27
ATOM     26  C   UNL     1       9.923  11.174  18.220  0.00  0.00    +0.000 C 
ATOM     27  C   UNL     1       8.988  10.066  18.688  0.00  0.00    +0.000 C 
ENDBRANCH  25  27
ENDBRANCH   1  25
TORSDOF 5
ENDMDL
MODEL 2
REMARK VINA RESULT:      -7.9      3.513      5.487
REMARK  Name = 
REMARK  7 active torsions:
REMARK  status: ('A' for Active; 'I' for Inactive)
REMARK    1  A    between atoms: C_1  and  C_2
REMARK    2  A    between atoms: C_2  and  C_3
REMARK    3  A    between atoms: C_3  and  C_4
REMARK    4  A    between atoms: C_6  and  O_7
REMARK    5  A    between atoms: C_12  and  C_13
REMARK    6  A    between atoms: C_15  and  N_16
REMARK    7  A    between atoms: C_17  and  C_19
REMARK                            x       y       z     vdW  Elec       q    Type
REMARK                         _______ _______ _______ _____ _____    ______ ____
ROOT
ATOM      1  C   UNL     1       6.508   4.633  16.967  0.00  0.00    +0.000 A 
ATOM      2  C   UNL     1       7.417   5.048  17.916  0.00  0.00    +0.000 A 
ATOM      3  C   UNL     1       6.889   5.332  19.144  0.00  0.00    +0.000 A 
ATOM      4  N   UNL     1       5.598   5.218  19.454  0.00  0.00    +0.000 NA
ATOM      5  C   UNL     1       4.772   4.747  18.508  0.00  0.00    +0.000 A 
ATOM      6  N   UNL     1       3.410   4.581  18.829  0.00  0.00    +0.000 N 
ATOM      7  N   UNL     1       2.605   3.624  18.220  0.00  0.00    +0.000 N 
ATOM      8  C   UNL     1       1.688   3.123  19.124  0.00  0.00    +0.000 C 
ATOM      9  C   UNL     1       0.595   2.190  18.755  0.00  0.00    +0.000 C 
ATOM     10  C   UNL     1       1.938   3.638  20.339  0.00  0.00    +0.000 C 
ATOM     11  C   UNL     1       3.114   4.592  20.275  0.00  0.00    +0.000 C 
ATOM     12  N   UNL     1       5.195   4.461  17.252  0.00  0.00    +0.000 NA
ATOM     13  H   UNL     1       2.278   3.811  17.273  0.00  0.00    +0.000 HD
ENDROOT
BRANCH  11  14
ATOM     14  N   UNL     1       2.637   5.893  20.620  0.00  0.00    +0.000 N 
ATOM     15  C   UNL     1       2.130   6.754  19.683  0.00  0.00    +0.000 C 
ATOM     16  O   UNL     1       2.084   6.456  18.491  0.00  0.00    +0.000 OA
ATOM     17  H   UNL     1       2.617   6.124  21.598  0.00  0.00    +0.000 HD
BRANCH  15  18
ATOM     18  C   UNL     1       1.674   8.045  20.185  0.00  0.00    +0.000 A 
ATOM     19  C   UNL     1       1.408   8.368  21.505  0.00  0.00    +0.000 A 
ATOM     20  C   UNL     1       0.962   9.713  21.665  0.00  0.00    +0.000 A 
ATOM     21  C   UNL     1       0.892  10.374  20.461  0.00  0.00    +0.000 A 
ATOM     22  S   UNL     1       1.369   9.381  19.154  0.00  0.00    +0.000 S 
ENDBRANCH  15  18
ENDBRANCH  11  14
BRANCH   3  23
ATOM     23  O   UNL     1       7.673   5.766  20.172  0.00  0.00    +0.000 OA
ATOM     24  H   UNL     1       7.935   5.001  20.703  0.00  0.00    +0.000 HD
ENDBRANCH   3  23
BRANCH   1  25
ATOM     25  C   UNL     1       6.963   4.381  15.550  0.00  0.00    +0.000 C 
BRANCH  25  27
ATOM     26  C   UNL     1       6.291   3.744  13.210  0.00  0.00    +0.000 C 
ATOM     27  C   UNL     1       5.800   4.228  14.568  0.00  0.00    +0.000 C 
ENDBRANCH  25  27
ENDBRANCH   1  25
TORSDOF 5
ENDMDL
MODEL 3
REMARK VINA RESULT:      -7.6      4.006      5.943
REMARK  Name = 
REMARK  7 active torsions:
REMARK  status: ('A' for Active; 'I' for Inactive)
REMARK    1  A    between atoms: C_1  and  C_2
REMARK    2  A    between atoms: C_2  and  C_3
REMARK    3  A    between atoms: C_3  and  C_4
REMARK    4  A    between atoms: C_6  and  O_7
REMARK    5  A    between atoms: C_12  and  C_13
REMARK    6  A    between atoms: C_15  and  N_16
REMARK    7  A    between atoms: C_17  and  C_19
REMARK                            x       y       z     vdW  Elec       q    Type
REMARK                         _______ _______ _______ _____ _____    ______ ____
ROOT
ATOM      1  C   UNL     1       6.157   4.768  15.643  0.00  0.00    +0.000 A 
ATOM      2  C   UNL     1       7.063   5.598  16.266  0.00  0.00    +0.000 A 
ATOM      3  C   UNL     1       6.581   6.282  17.347  0.00  0.00    +0.000 A 
ATOM      4  N   UNL     1       5.335   6.177  17.809  0.00  0.00    +0.000 NA
ATOM      5  C   UNL     1       4.518   5.305  17.201  0.00  0.00    +0.000 A 
ATOM      6  N   UNL     1       3.210   5.151  17.701  0.00  0.00    +0.000 N 
ATOM      7  N   UNL     1       2.494   3.963  17.582  0.00  0.00    +0.000 N 
ATOM      8  C   UNL     1       1.704   3.766  18.699  0.00  0.00    +0.000 C 
ATOM      9  C   UNL     1       0.716   2.666  18.823  0.00  0.00    +0.000 C 
ATOM     10  C   UNL     1       1.963   4.729  19.598  0.00  0.00    +0.000 C 
ATOM     11  C   UNL     1       3.004   5.689  19.059  0.00  0.00    +0.000 C 
ATOM     12  N   UNL     1       4.895   4.599  16.107  0.00  0.00    +0.000 NA
ATOM     13  H   UNL     1       2.089   3.742  16.674  0.00  0.00    +0.000 HD
ENDROOT
BRANCH  11  14
ATOM     14  N   UNL     1       2.390   6.973  18.939  0.00  0.00    +0.000 N 
ATOM     15  C   UNL     1       1.859   7.629  20.018  0.00  0.00    +0.000 C 
ATOM     16  O   UNL     1       1.866   7.132  21.142  0.00  0.00    +0.000 OA
ATOM     17  H   UNL     1       2.431   7.412  18.036  0.00  0.00    +0.000 HD
BRANCH  15  18
ATOM     18  C   UNL     1       1.271   8.935  19.743  0.00  0.00    +0.000 A 
ATOM     19  C   UNL     1       0.555   9.720  20.630  0.00  0.00    +0.000 A 
ATOM     20  C   UNL     1       0.100  10.938  20.046  0.00  0.00    +0.000 A 
ATOM     21  C   UNL     1       0.475  11.044  18.726  0.00  0.00    +0.000 A 
ATOM     22  S   UNL     1       1.375   9.687  18.204  0.00  0.00    +0.000 S 
ENDBRANCH  15  18
ENDBRANCH  11  14
BRANCH   3  23
ATOM     23  O   UNL     1       7.365   7.147  18.049  0.00  0.00    +0.000 OA
ATOM     24  H   UNL     1       6.879   7.975  18.169  0.00  0.00    +0.000 HD
ENDBRANCH   3  23
BRANCH   1  25
ATOM     25  C   UNL     1       6.551   4.034  14.385  0.00  0.00    +0.000 C 
BRANCH  25  27
ATOM     26  C   UNL     1       5.856   3.195  12.116  0.00  0.00    +0.000 C 
ATOM     27  C   UNL     1       5.389   3.858  13.406  0.00  0.00    +0.000 C 
ENDBRANCH  25  27
ENDBRANCH   1  25
TORSDOF 5
ENDMDL
MODEL 4
REMARK VINA RESULT:      -7.3      5.029      7.114
REMARK  Name = 
REMARK  7 active torsions:
REMARK  status: ('A' for Active; 'I' for Inactive)
REMARK    1  A    between atoms: C_1  and  C_2
REMARK    2  A    between atoms: C_2  and  C_3
REMARK    3  A    between atoms: C_3  and  C_4
REMARK    4  A    between atoms: C_6  and  O_7
REMARK    5  A    between atoms: C_12  and  C_13
REMARK    6  A    between atoms: C_15  and  N_16
REMARK    7  A    between atoms: C_17  and  C_19
REMARK                            x       y       z     vdW  Elec       q    Type
REMARK                         _______ _______ _______ _____ _____    ______ ____
ROOT
ATOM      1  C   UNL     1       1.150   9.371  21.034  0.00  0.00    +0.000 A 
ATOM      2  C   UNL     1       0.990   9.971  19.804  0.00  0.00    +0.000 A 
ATOM      3  C   UNL     1       1.318   9.194  18.729  0.00  0.00    +0.000 A 
ATOM      4  N   UNL     1       1.753   7.937  18.813  0.00  0.00    +0.000 NA
ATOM      5  C   UNL     1       1.825   7.385  20.032  0.00  0.00    +0.000 A 
ATOM      6  N   UNL     1       2.244   6.044  20.139  0.00  0.00    +0.000 N 
ATOM      7  N   UNL     1       1.834   5.207  21.172  0.00  0.00    +0.000 N 
ATOM      8  C   UNL     1       1.682   3.914  20.709  0.00  0.00    +0.000 C 
ATOM      9  C   UNL     1       1.390   2.755  21.589  0.00  0.00    +0.000 C 
ATOM     10  C   UNL     1       1.870   3.895  19.380  0.00  0.00    +0.000 C 
ATOM     11  C   UNL     1       2.200   5.286  18.874  0.00  0.00    +0.000 C 
ATOM     12  N   UNL     1       1.546   8.082  21.162  0.00  0.00    +0.000 NA
ATOM     13  H   UNL     1       2.268   5.332  22.085  0.00  0.00    +0.000 HD
ENDROOT
BRANCH  11  14
ATOM     14  N   UNL     1       3.520   5.248  18.332  0.00  0.00    +0.000 N 
ATOM     15  C   UNL     1       3.849   4.447  17.270  0.00  0.00    +0.000 C 
ATOM     16  O   UNL     1       3.025   3.702  16.746  0.00  0.00    +0.000 OA
ATOM     17  H   UNL     1       4.187   5.896  18.717  0.00  0.00    +0.000 HD
BRANCH  15  18
ATOM     18  C   UNL     1       5.235   4.521  16.823  0.00  0.00    +0.000 A 
ATOM     19  C   UNL     1       6.360   4.568  17.628  0.00  0.00    +0.000 A 
ATOM     20  C   UNL     1       7.571   4.652  16.881  0.00  0.00    +0.000 A 
ATOM     21  C   UNL     1       7.335   4.676  15.526  0.00  0.00    +0.000 A 
ATOM     22  S   UNL     1       5.666   4.589  15.164  0.00  0.00    +0.000 S 
ENDBRANCH  15  18
ENDBRANCH  11  14
BRANCH   3  23
ATOM     23  O   UNL     1       1.221   9.666  17.453  0.00  0.00    +0.000 OA
ATOM     24  H   UNL     1       0.474  10.280  17.409  0.00  0.00    +0.000 HD
ENDBRANCH   3  23
BRANCH   1  25
ATOM     25  C   UNL     1       0.906  10.164  22.295  0.00  0.00    +0.000 C 
BRANCH  25  27
ATOM     26  C   UNL     1      -1.319  11.049  23.068  0.00  0.00    +0.000 C 
ATOM     27  C   UNL     1      -0.423   9.821  22.969  0.00  0.00    +0.000 C 
ENDBRANCH  25  27
ENDBRANCH   1  25
TORSDOF 5
ENDMDL
MODEL 5
REMARK VINA RESULT:      -7.2      3.532      5.483
REMARK  Name = 
REMARK  7 active torsions:
REMARK  status: ('A' for Active; 'I' for Inactive)
REMARK    1  A    between atoms: C_1  and  C_2
REMARK    2  A    between atoms: C_2  and  C_3
REMARK    3  A    between atoms: C_3  and  C_4
REMARK    4  A    between atoms: C_6  and  O_7
REMARK    5  A    between atoms: C_12  and  C_13
REMARK    6  A    between atoms: C_15  and  N_16
REMARK    7  A    between atoms: C_17  and  C_19
REMARK                            x       y       z     vdW  Elec       q    Type
REMARK                         _______ _______ _______ _____ _____    ______ ____
ROOT
ATOM      1  C   UNL     1       6.470   4.826  16.093  0.00  0.00    +0.000 A 
ATOM      2  C   UNL     1       7.433   5.417  16.881  0.00  0.00    +0.000 A 
ATOM      3  C   UNL     1       7.011   5.819  18.116  0.00  0.00    +0.000 A 
ATOM      4  N   UNL     1       5.770   5.661  18.576  0.00  0.00    +0.000 NA
ATOM      5  C   UNL     1       4.893   5.020  17.789  0.00  0.00    +0.000 A 
ATOM      6  N   UNL     1       3.587   4.807  18.274  0.00  0.00    +0.000 N 
ATOM      7  N   UNL     1       2.803   3.729  17.874  0.00  0.00    +0.000 N 
ATOM      8  C   UNL     1       2.023   3.288  18.926  0.00  0.00    +0.000 C 
ATOM      9  C   UNL     1       0.976   2.245  18.793  0.00  0.00    +0.000 C 
ATOM     10  C   UNL     1       2.353   3.968  20.036  0.00  0.00    +0.000 C 
ATOM     11  C   UNL     1       3.438   4.982  19.731  0.00  0.00    +0.000 C 
ATOM     12  N   UNL     1       5.209   4.606  16.537  0.00  0.00    +0.000 NA
ATOM     13  H   UNL     1       2.369   3.773  16.954  0.00  0.00    +0.000 HD
ENDROOT
BRANCH  11  14
ATOM     14  N   UNL     1       2.896   6.282  19.968  0.00  0.00    +0.000 N 
ATOM     15  C   UNL     1       2.234   6.983  18.995  0.00  0.00    +0.000 C 
ATOM     16  O   UNL     1       2.095   6.535  17.860  0.00  0.00    +0.000 OA
ATOM     17  H   UNL     1       2.953   6.632  20.909  0.00  0.00    +0.000 HD
BRANCH  15  18
ATOM     18  C   UNL     1       1.730   8.294  19.387  0.00  0.00    +0.000 A 
ATOM     19  C   UNL     1       1.574   9.397  18.565  0.00  0.00    +0.000 A 
ATOM     20  C   UNL     1       1.071  10.536  19.258  0.00  0.00    +0.000 A 
ATOM     21  C   UNL     1       0.866  10.272  20.593  0.00  0.00    +0.000 A 
ATOM     22  S   UNL     1       1.269   8.662  20.998  0.00  0.00    +0.000 S 
ENDBRANCH  15  18
ENDBRANCH  11  14
BRANCH   3  23
ATOM     23  O   UNL     1       7.856   6.431  18.994  0.00  0.00    +0.000 OA
ATOM     24  H   UNL     1       8.559   5.808  19.228  0.00  0.00    +0.000 HD
ENDBRANCH   3  23
BRANCH   1  25
ATOM     25  C   UNL     1       6.799   4.426  14.675  0.00  0.00    +0.000 C 
BRANCH  25  27
ATOM     26  C   UNL     1       5.955   3.425  12.526  0.00  0.00    +0.000 C 
ATOM     27  C   UNL     1       5.562   4.053  13.857  0.00  0.00    +0.000 C 
ENDBRANCH  25  27
ENDBRANCH   1  25
TORSDOF 5
ENDMDL
MODEL 6
REMARK VINA RESULT:      -7.0      3.789      5.944
REMARK  Name = 
REMARK  7 active torsions:
REMARK  status: ('A' for Active; 'I' for Inactive)
REMARK    1  A    between atoms: C_1  and  C_2
REMARK    2  A    between atoms: C_2  and  C_3
REMARK    3  A    between atoms: C_3  and  C_4
REMARK    4  A    between atoms: C_6  and  O_7
REMARK    5  A    between atoms: C_12  and  C_13
REMARK    6  A    between atoms: C_15  and  N_16
REMARK    7  A    between atoms: C_17  and  C_19
REMARK                            x       y       z     vdW  Elec       q    Type
REMARK                         _______ _______ _______ _____ _____    ______ ____
ROOT
ATOM      1  C   UNL     1       6.002   4.280  14.996  0.00  0.00    +0.000 A 
ATOM      2  C   UNL     1       6.974   5.135  15.467  0.00  0.00    +0.000 A 
ATOM      3  C   UNL     1       6.616   5.883  16.553  0.00  0.00    +0.000 A 
ATOM      4  N   UNL     1       5.429   5.817  17.155  0.00  0.00    +0.000 NA
ATOM      5  C   UNL     1       4.548   4.919  16.692  0.00  0.00    +0.000 A 
ATOM      6  N   UNL     1       3.302   4.805  17.341  0.00  0.00    +0.000 N 
ATOM      7  N   UNL     1       2.574   3.619  17.370  0.00  0.00    +0.000 N 
ATOM      8  C   UNL     1       1.912   3.493  18.576  0.00  0.00    +0.000 C 
ATOM      9  C   UNL     1       0.940   2.411  18.871  0.00  0.00    +0.000 C 
ATOM     10  C   UNL     1       2.271   4.503  19.385  0.00  0.00    +0.000 C 
ATOM     11  C   UNL     1       3.249   5.422  18.680  0.00  0.00    +0.000 C 
ATOM     12  N   UNL     1       4.799   4.149  15.605  0.00  0.00    +0.000 NA
ATOM     13  H   UNL     1       2.070   3.351  16.526  0.00  0.00    +0.000 HD
ENDROOT
BRANCH  11  14
ATOM     14  N   UNL     1       2.629   6.702  18.556  0.00  0.00    +0.000 N 
ATOM     15  C   UNL     1       2.119   7.372  19.636  0.00  0.00    +0.000 C 
ATOM     16  O   UNL     1       2.150   6.890  20.766  0.00  0.00    +0.000 OA
ATOM     17  H   UNL     1       2.650   7.129  17.645  0.00  0.00    +0.000 HD
BRANCH  15  18
ATOM     18  C   UNL     1       1.522   8.672  19.355  0.00  0.00    +0.000 A 
ATOM     19  C   UNL     1       1.522   9.334  18.138  0.00  0.00    +0.000 A 
ATOM     20  C   UNL     1       0.866  10.598  18.197  0.00  0.00    +0.000 A 
ATOM     21  C   UNL     1       0.392  10.869  19.460  0.00  0.00    +0.000 A 
ATOM     22  S   UNL     1       0.730   9.603  20.558  0.00  0.00    +0.000 S 
ENDBRANCH  15  18
ENDBRANCH  11  14
BRANCH   3  23
ATOM     23  O   UNL     1       7.476   6.780  17.114  0.00  0.00    +0.000 OA
ATOM     24  H   UNL     1       7.143   7.018  17.991  0.00  0.00    +0.000 HD
ENDBRANCH   3  23
BRANCH   1  25
ATOM     25  C   UNL     1       6.253   3.472  13.746  0.00  0.00    +0.000 C 
BRANCH  25  27
ATOM     26  C   UNL     1       4.676   3.204  11.803  0.00  0.00    +0.000 C 
ATOM     27  C   UNL     1       5.679   4.124  12.487  0.00  0.00    +0.000 C 
ENDBRANCH  25  27
ENDBRANCH   1  25
TORSDOF 5
ENDMDL
MODEL 7
REMARK VINA RESULT:      -6.7      3.349      5.794
REMARK  Name = 
REMARK  7 active torsions:
REMARK  status: ('A' for Active; 'I' for Inactive)
REMARK    1  A    between atoms: C_1  and  C_2
REMARK    2  A    between atoms: C_2  and  C_3
REMARK    3  A    between atoms: C_3  and  C_4
REMARK    4  A    between atoms: C_6  and  O_7
REMARK    5  A    between atoms: C_12  and  C_13
REMARK    6  A    between atoms: C_15  and  N_16
REMARK    7  A    between atoms: C_17  and  C_19
REMARK                            x       y       z     vdW  Elec       q    Type
REMARK                         _______ _______ _______ _____ _____    ______ ____
ROOT
ATOM      1  C   UNL     1       5.913   4.118  14.488  0.00  0.00    +0.000 A 
ATOM      2  C   UNL     1       6.973   4.968  14.715  0.00  0.00    +0.000 A 
ATOM      3  C   UNL     1       6.944   5.632  15.909  0.00  0.00    +0.000 A 
ATOM      4  N   UNL     1       5.987   5.490  16.826  0.00  0.00    +0.000 NA
ATOM      5  C   UNL     1       5.016   4.599  16.577  0.00  0.00    +0.000 A 
ATOM      6  N   UNL     1       4.017   4.406  17.552  0.00  0.00    +0.000 N 
ATOM      7  N   UNL     1       3.341   3.199  17.707  0.00  0.00    +0.000 N 
ATOM      8  C   UNL     1       3.064   2.973  19.042  0.00  0.00    +0.000 C 
ATOM      9  C   UNL     1       2.232   1.846  19.529  0.00  0.00    +0.000 C 
ATOM     10  C   UNL     1       3.636   3.937  19.781  0.00  0.00    +0.000 C 
ATOM     11  C   UNL     1       4.356   4.930  18.890  0.00  0.00    +0.000 C 
ATOM     12  N   UNL     1       4.944   3.911  15.411  0.00  0.00    +0.000 NA
ATOM     13  H   UNL     1       2.614   2.973  17.031  0.00  0.00    +0.000 HD
ENDROOT
BRANCH  11  14
ATOM     14  N   UNL     1       3.715   6.196  19.045  0.00  0.00    +0.000 N 
ATOM     15  C   UNL     1       2.521   6.486  18.441  0.00  0.00    +0.000 C 
ATOM     16  O   UNL     1       1.953   5.675  17.714  0.00  0.00    +0.000 OA
ATOM     17  H   UNL     1       4.143   6.845  19.684  0.00  0.00    +0.000 HD
BRANCH  15  18
ATOM     18  C   UNL     1       1.985   7.818  18.698  0.00  0.00    +0.000 A 
ATOM     19  C   UNL     1       1.893   8.859  17.790  0.00  0.00    +0.000 A 
ATOM     20  C   UNL     1       1.335  10.040  18.359  0.00  0.00    +0.000 A 
ATOM     21  C   UNL     1       1.024   9.870  19.688  0.00  0.00    +0.000 A 
ATOM     22  S   UNL     1       1.397   8.295  20.237  0.00  0.00    +0.000 S 
ENDBRANCH  15  18
ENDBRANCH  11  14
BRANCH   3  23
ATOM     23  O   UNL     1       7.923   6.514  16.257  0.00  0.00    +0.000 OA
ATOM     24  H   UNL     1       8.499   6.093  16.911  0.00  0.00    +0.000 HD
ENDBRANCH   3  23
BRANCH   1  25
ATOM     25  C   UNL     1       5.792   3.403  13.164  0.00  0.00    +0.000 C 
BRANCH  25  27
ATOM     26  C   UNL     1       4.131   3.133  11.293  0.00  0.00    +0.000 C 
ATOM     27  C   UNL     1       4.875   4.126  12.176  0.00  0.00    +0.000 C 
ENDBRANCH  25  27
ENDBRANCH   1  25
TORSDOF 5
ENDMDL
MODEL 8
REMARK VINA RESULT:      -6.6      9.150     10.654
REMARK  Name = 
REMARK  7 active torsions:
REMARK  status: ('A' for Active; 'I' for Inactive)
REMARK    1  A    between atoms: C_1  and  C_2
REMARK    2  A    between atoms: C_2  and  C_3
REMARK    3  A    between atoms: C_3  and  C_4
REMARK    4  A    between atoms: C_6  and  O_7
REMARK    5  A    between atoms: C_12  and  C_13
REMARK    6  A    between atoms: C_15  and  N_16
REMARK    7  A    between atoms: C_17  and  C_19
REMARK                            x       y       z     vdW  Elec       q    Type
REMARK                         _______ _______ _______ _____ _____    ______ ____
ROOT
ATOM      1  C   UNL     1       1.285   8.447  20.431  0.00  0.00    +0.000 A 
ATOM      2  C   UNL     1       1.076   8.863  21.728  0.00  0.00    +0.000 A 
ATOM      3  C   UNL     1       0.288   9.972  21.865  0.00  0.00    +0.000 A 
ATOM      4  N   UNL     1      -0.270  10.629  20.848  0.00  0.00    +0.000 NA
ATOM      5  C   UNL     1      -0.084  10.138  19.615  0.00  0.00    +0.000 A 
ATOM      6  N   UNL     1      -0.699  10.796  18.531  0.00  0.00    +0.000 N 
ATOM      7  N   UNL     1      -1.076  10.135  17.365  0.00  0.00    +0.000 N 
ATOM      8  C   UNL     1      -2.241  10.679  16.861  0.00  0.00    +0.000 C 
ATOM      9  C   UNL     1      -2.830  10.294  15.554  0.00  0.00    +0.000 C 
ATOM     10  C   UNL     1      -2.705  11.602  17.719  0.00  0.00    +0.000 C 
ATOM     11  C   UNL     1      -1.778  11.728  18.911  0.00  0.00    +0.000 C 
ATOM     12  N   UNL     1       0.701   9.060  19.373  0.00  0.00    +0.000 NA
ATOM     13  H   UNL     1      -0.343   9.893  16.700  0.00  0.00    +0.000 HD
ENDROOT
BRANCH  11  14
ATOM     14  N   UNL     1      -1.243  13.051  18.907  0.00  0.00    +0.000 N 
ATOM     15  C   UNL     1      -1.371  13.892  19.981  0.00  0.00    +0.000 C 
ATOM     16  O   UNL     1      -1.975  13.553  20.995  0.00  0.00    +0.000 OA
ATOM     17  H   UNL     1      -0.697  13.317  18.104  0.00  0.00    +0.000 HD
BRANCH  15  18
ATOM     18  C   UNL     1      -0.766  15.211  19.832  0.00  0.00    +0.000 A 
ATOM     19  C   UNL     1       0.415  15.507  19.174  0.00  0.00    +0.000 A 
ATOM     20  C   UNL     1       0.741  16.894  19.222  0.00  0.00    +0.000 A 
ATOM     21  C   UNL     1      -0.197  17.615  19.922  0.00  0.00    +0.000 A 
ATOM     22  S   UNL     1      -1.462  16.626  20.508  0.00  0.00    +0.000 S 
ENDBRANCH  15  18
ENDBRANCH  11  14
BRANCH   3  23
ATOM     23  O   UNL     1       0.009  10.500  23.090  0.00  0.00    +0.000 OA
ATOM     24  H   UNL     1      -0.580  11.258  22.971  0.00  0.00    +0.000 HD
ENDBRANCH   3  23
BRANCH   1  25
ATOM     25  C   UNL     1       2.213   7.290  20.154  0.00  0.00    +0.000 C 
BRANCH  25  27
ATOM     26  C   UNL     1       2.381   5.750  18.170  0.00  0.00    +0.000 C 
ATOM     27  C   UNL     1       2.595   7.170  18.678  0.00  0.00    +0.000 C 
ENDBRANCH  25  27
ENDBRANCH   1  25
TORSDOF 5
ENDMDL
MODEL 9
REMARK VINA RESULT:      -6.6      9.084     10.775
REMARK  Name = 
REMARK  7 active torsions:
REMARK  status: ('A' for Active; 'I' for Inactive)
REMARK    1  A    between atoms: C_1  and  C_2
REMARK    2  A    between atoms: C_2  and  C_3
REMARK    3  A    between atoms: C_3  and  C_4
REMARK    4  A    between atoms: C_6  and  O_7
REMARK    5  A    between atoms: C_12  and  C_13
REMARK    6  A    between atoms: C_15  and  N_16
REMARK    7  A    between atoms: C_17  and  C_19
REMARK                            x       y       z     vdW  Elec       q    Type
REMARK                         _______ _______ _______ _____ _____    ______ ____
ROOT
ATOM      1  C   UNL     1       0.741   8.645  21.006  0.00  0.00    +0.000 A 
ATOM      2  C   UNL     1       0.517   9.350  22.168  0.00  0.00    +0.000 A 
ATOM      3  C   UNL     1      -0.093  10.563  22.007  0.00  0.00    +0.000 A 
ATOM      4  N   UNL     1      -0.473  11.064  20.832  0.00  0.00    +0.000 NA
ATOM      5  C   UNL     1      -0.289  10.303  19.743  0.00  0.00    +0.000 A 
ATOM      6  N   UNL     1      -0.722  10.798  18.497  0.00  0.00    +0.000 N 
ATOM      7  N   UNL     1      -1.123   9.967  17.455  0.00  0.00    +0.000 N 
ATOM      8  C   UNL     1      -2.153  10.552  16.744  0.00  0.00    +0.000 C 
ATOM      9  C   UNL     1      -2.711   9.988  15.490  0.00  0.00    +0.000 C 
ATOM     10  C   UNL     1      -2.519  11.691  17.354  0.00  0.00    +0.000 C 
ATOM     11  C   UNL     1      -1.662  11.932  18.581  0.00  0.00    +0.000 C 
ATOM     12  N   UNL     1       0.330   9.097  19.797  0.00  0.00    +0.000 NA
ATOM     13  H   UNL     1      -0.397   9.488  16.924  0.00  0.00    +0.000 HD
ENDROOT
BRANCH  11  14
ATOM     14  N   UNL     1      -0.925  13.136  18.364  0.00  0.00    +0.000 N 
ATOM     15  C   UNL     1      -0.904  14.151  19.283  0.00  0.00    +0.000 C 
ATOM     16  O   UNL     1      -1.541  14.084  20.333  0.00  0.00    +0.000 OA
ATOM     17  H   UNL     1      -0.356  13.176  17.536  0.00  0.00    +0.000 HD
BRANCH  15  18
ATOM     18  C   UNL     1      -0.102  15.316  18.927  0.00  0.00    +0.000 A 
ATOM     19  C   UNL     1      -0.577  16.554  18.530  0.00  0.00    +0.000 A 
ATOM     20  C   UNL     1       0.468  17.478  18.236  0.00  0.00    +0.000 A 
ATOM     21  C   UNL     1       1.711  16.915  18.408  0.00  0.00    +0.000 A 
ATOM     22  S   UNL     1       1.614  15.290  18.929  0.00  0.00    +0.000 S 
ENDBRANCH  15  18
ENDBRANCH  11  14
BRANCH   3  23
ATOM     23  O   UNL     1      -0.362  11.371  23.071  0.00  0.00    +0.000 OA
ATOM     24  H   UNL     1      -1.292  11.259  23.314  0.00  0.00    +0.000 HD
ENDBRANCH   3  23
BRANCH   1  25
ATOM     25  C   UNL     1       1.490   7.336  21.053  0.00  0.00    +0.000 C 
BRANCH  25  27
ATOM     26  C   UNL     1       2.305   5.533  19.498  0.00  0.00    +0.000 C 
ATOM     27  C   UNL     1       2.246   7.032  19.758  0.00  0.00    +0.000 C 
ENDBRANCH  25  27
ENDBRANCH   1  25
TORSDOF 5
ENDMDL
