MODEL 1
REMARK VINA RESULT:      -7.5      0.000      0.000
REMARK  Name = 
REMARK  8 active torsions:
REMARK  status: ('A' for Active; 'I' for Inactive)
REMARK    1  A    between atoms: C_1  and  C_2
REMARK    2  A    between atoms: C_4  and  C_5
REMARK    3  A    between atoms: N_6  and  N_7
REMARK    4  A    between atoms: C_12  and  C_13
REMARK    5  A    between atoms: N_14  and  C_15
REMARK    6  A    between atoms: C_18  and  O_19
REMARK    7  A    between atoms: O_19  and  C_20
REMARK    8  A    between atoms: C_20  and  C_21
REMARK                            x       y       z     vdW  Elec       q    Type
REMARK                         _______ _______ _______ _____ _____    ______ ____
ROOT
ATOM      1  C   UNL     1       0.892   9.700  18.952  0.00  0.00    +0.000 A 
ATOM      2  C   UNL     1       0.974   9.108  20.216  0.00  0.00    +0.000 A 
ATOM      3  C   UNL     1       1.680   7.926  20.412  0.00  0.00    +0.000 A 
ATOM      4  C   UNL     1       2.226   7.250  19.326  0.00  0.00    +0.000 A 
ATOM      5  C   UNL     1       2.134   7.814  18.056  0.00  0.00    +0.000 A 
ATOM      6  C   UNL     1       1.481   9.040  17.868  0.00  0.00    +0.000 A 
ENDROOT
BRANCH   1  13
ATOM      7  C   UNL     1      -2.077  10.150  18.061  0.00  0.00    +0.000 C 
ATOM      8  C   UNL     1      -1.059  11.199  18.359  0.00  0.00    +0.000 A 
ATOM      9  C   UNL     1      -1.277  12.561  18.343  0.00  0.00    +0.000 A 
ATOM     10  C   UNL     1      -0.108  13.213  18.789  0.00  0.00    +0.000 A 
ATOM     11  C   UNL     1       0.828  12.225  19.067  0.00  0.00    +0.000 A 
ATOM     12  C   UNL     1       2.257  12.426  19.479  0.00  0.00    +0.000 C 
ATOM     13  N   UNL     1       0.247  10.971  18.801  0.00  0.00    +0.000 N 
BRANCH  10  14
ATOM     14  C   UNL     1       0.117  14.639  18.914  0.00  0.00    +0.000 C 
ATOM     15  N   UNL     1       1.274  15.130  18.607  0.00  0.00    +0.000 NA
BRANCH  15  16
ATOM     16  N   UNL     1       1.421  16.459  18.832  0.00  0.00    +0.000 N 
ATOM     17  C   UNL     1       1.997  17.150  19.871  0.00  0.00    +0.000 A 
ATOM     18  N   UNL     1       1.916  18.443  19.667  0.00  0.00    +0.000 NA
ATOM     19  N   UNL     1       1.307  18.630  18.445  0.00  0.00    +0.000 NA
ATOM     20  C   UNL     1       1.043  17.441  17.956  0.00  0.00    +0.000 A 
ENDBRANCH  15  16
ENDBRANCH  10  14
ENDBRANCH   1  13
BRANCH   4  21
ATOM     21  O   UNL     1       2.852   6.039  19.411  0.00  0.00    +0.000 OA
BRANCH  21  22
ATOM     22  C   UNL     1       4.276   6.100  19.301  0.00  0.00    +0.000 C 
BRANCH  22  23
ATOM     23  C   UNL     1       4.670   5.566  17.959  0.00  0.00    +0.000 A 
ATOM     24  C   UNL     1       4.215   4.314  17.528  0.00  0.00    +0.000 A 
ATOM     25  C   UNL     1       4.607   3.820  16.284  0.00  0.00    +0.000 A 
ATOM     26  C   UNL     1       5.454   4.573  15.476  0.00  0.00    +0.000 A 
ATOM     27 CL   UNL     1       5.946   3.957  13.944  0.00  0.00    +0.000 Cl
ATOM     28  C   UNL     1       5.917   5.819  15.894  0.00  0.00    +0.000 A 
ATOM     29  C   UNL     1       5.528   6.312  17.136  0.00  0.00    +0.000 A 
ENDBRANCH  22  23
ENDBRANCH  21  22
ENDBRANCH   4  21
TORSDOF 6
ENDMDL
MODEL 2
REMARK VINA RESULT:      -7.4      0.434      1.129
REMARK  Name = 
REMARK  8 active torsions:
REMARK  status: ('A' for Active; 'I' for Inactive)
REMARK    1  A    between atoms: C_1  and  C_2
REMARK    2  A    between atoms: C_4  and  C_5
REMARK    3  A    between atoms: N_6  and  N_7
REMARK    4  A    between atoms: C_12  and  C_13
REMARK    5  A    between atoms: N_14  and  C_15
REMARK    6  A    between atoms: C_18  and  O_19
REMARK    7  A    between atoms: O_19  and  C_20
REMARK    8  A    between atoms: C_20  and  C_21
REMARK                            x       y       z     vdW  Elec       q    Type
REMARK                         _______ _______ _______ _____ _____    ______ ____
ROOT
ATOM      1  C   UNL     1       0.868   9.589  19.010  0.00  0.00    +0.000 A 
ATOM      2  C   UNL     1       0.917   8.941  20.248  0.00  0.00    +0.000 A 
ATOM      3  C   UNL     1       1.651   7.772  20.420  0.00  0.00    +0.000 A 
ATOM      4  C   UNL     1       2.263   7.166  19.328  0.00  0.00    +0.000 A 
ATOM      5  C   UNL     1       2.206   7.786  18.082  0.00  0.00    +0.000 A 
ATOM      6  C   UNL     1       1.523   8.999  17.923  0.00  0.00    +0.000 A 
ENDROOT
BRANCH   1  13
ATOM      7  C   UNL     1      -2.039  10.001  17.919  0.00  0.00    +0.000 C 
ATOM      8  C   UNL     1      -1.086  11.061  18.363  0.00  0.00    +0.000 A 
ATOM      9  C   UNL     1      -1.353  12.413  18.417  0.00  0.00    +0.000 A 
ATOM     10  C   UNL     1      -0.247  13.071  18.994  0.00  0.00    +0.000 A 
ATOM     11  C   UNL     1       0.701  12.097  19.281  0.00  0.00    +0.000 A 
ATOM     12  C   UNL     1       2.086  12.316  19.817  0.00  0.00    +0.000 C 
ATOM     13  N   UNL     1       0.189  10.846  18.891  0.00  0.00    +0.000 N 
BRANCH  10  14
ATOM     14  C   UNL     1      -0.086  14.492  19.227  0.00  0.00    +0.000 C 
ATOM     15  N   UNL     1       0.799  15.151  18.553  0.00  0.00    +0.000 NA
BRANCH  15  16
ATOM     16  N   UNL     1       0.939  16.456  18.893  0.00  0.00    +0.000 N 
ATOM     17  C   UNL     1       1.363  17.546  18.171  0.00  0.00    +0.000 A 
ATOM     18  N   UNL     1       1.335  18.629  18.911  0.00  0.00    +0.000 NA
ATOM     19  N   UNL     1       0.845  18.271  20.148  0.00  0.00    +0.000 NA
ATOM     20  C   UNL     1       0.594  16.982  20.109  0.00  0.00    +0.000 A 
ENDBRANCH  15  16
ENDBRANCH  10  14
ENDBRANCH   1  13
BRANCH   4  21
ATOM     21  O   UNL     1       2.924   5.972  19.383  0.00  0.00    +0.000 OA
BRANCH  21  22
ATOM     22  C   UNL     1       4.346   6.077  19.287  0.00  0.00    +0.000 C 
BRANCH  22  23
ATOM     23  C   UNL     1       4.768   5.566  17.944  0.00  0.00    +0.000 A 
ATOM     24  C   UNL     1       5.331   6.430  16.996  0.00  0.00    +0.000 A 
ATOM     25  C   UNL     1       5.701   5.944  15.743  0.00  0.00    +0.000 A 
ATOM     26  C   UNL     1       5.504   4.601  15.435  0.00  0.00    +0.000 A 
ATOM     27 CL   UNL     1       5.952   4.004  13.882  0.00  0.00    +0.000 Cl
ATOM     28  C   UNL     1       4.943   3.731  16.368  0.00  0.00    +0.000 A 
ATOM     29  C   UNL     1       4.571   4.215  17.619  0.00  0.00    +0.000 A 
ENDBRANCH  22  23
ENDBRANCH  21  22
ENDBRANCH   4  21
TORSDOF 6
ENDMDL
MODEL 3
REMARK VINA RESULT:      -7.4      3.056      4.675
REMARK  Name = 
REMARK  8 active torsions:
REMARK  status: ('A' for Active; 'I' for Inactive)
REMARK    1  A    between atoms: C_1  and  C_2
REMARK    2  A    between atoms: C_4  and  C_5
REMARK    3  A    between atoms: N_6  and  N_7
REMARK    4  A    between atoms: C_12  and  C_13
REMARK    5  A    between atoms: N_14  and  C_15
REMARK    6  A    between atoms: C_18  and  O_19
REMARK    7  A    between atoms: O_19  and  C_20
REMARK    8  A    between atoms: C_20  and  C_21
REMARK                            x       y       z     vdW  Elec       q    Type
REMARK                         _______ _______ _______ _____ _____    ______ ____
ROOT
ATOM      1  C   UNL     1       0.689   9.661  19.406  0.00  0.00    +0.000 A 
ATOM      2  C   UNL     1       1.381   9.400  18.219  0.00  0.00    +0.000 A 
ATOM      3  C   UNL     1       2.206   8.287  18.097  0.00  0.00    +0.000 A 
ATOM      4  C   UNL     1       2.442   7.469  19.196  0.00  0.00    +0.000 A 
ATOM      5  C   UNL     1       1.778   7.726  20.394  0.00  0.00    +0.000 A 
ATOM      6  C   UNL     1       0.895   8.810  20.498  0.00  0.00    +0.000 A 
ENDROOT
BRANCH   1  13
ATOM      7  C   UNL     1       1.191  12.395  20.848  0.00  0.00    +0.000 C 
ATOM      8  C   UNL     1      -0.052  11.965  20.144  0.00  0.00    +0.000 A 
ATOM      9  C   UNL     1      -1.182  12.734  19.963  0.00  0.00    +0.000 A 
ATOM     10  C   UNL     1      -2.092  12.021  19.154  0.00  0.00    +0.000 A 
ATOM     11  C   UNL     1      -1.500  10.800  18.855  0.00  0.00    +0.000 A 
ATOM     12  C   UNL     1      -2.116   9.659  18.101  0.00  0.00    +0.000 C 
ATOM     13  N   UNL     1      -0.233  10.757  19.467  0.00  0.00    +0.000 N 
BRANCH  10  14
ATOM     14  C   UNL     1      -3.411  12.439  18.727  0.00  0.00    +0.000 C 
ATOM     15  N   UNL     1      -4.448  12.063  19.404  0.00  0.00    +0.000 NA
BRANCH  15  16
ATOM     16  N   UNL     1      -5.647  12.430  18.887  0.00  0.00    +0.000 N 
ATOM     17  C   UNL     1      -6.648  13.230  19.385  0.00  0.00    +0.000 A 
ATOM     18  N   UNL     1      -7.640  13.312  18.530  0.00  0.00    +0.000 NA
ATOM     19  N   UNL     1      -7.286  12.585  17.415  0.00  0.00    +0.000 NA
ATOM     20  C   UNL     1      -6.090  12.089  17.637  0.00  0.00    +0.000 A 
ENDBRANCH  15  16
ENDBRANCH  10  14
ENDBRANCH   1  13
BRANCH   4  21
ATOM     21  O   UNL     1       3.307   6.412  19.196  0.00  0.00    +0.000 OA
BRANCH  21  22
ATOM     22  C   UNL     1       2.927   5.337  18.334  0.00  0.00    +0.000 C 
BRANCH  22  23
ATOM     23  C   UNL     1       3.964   5.201  17.262  0.00  0.00    +0.000 A 
ATOM     24  C   UNL     1       4.397   3.936  16.844  0.00  0.00    +0.000 A 
ATOM     25  C   UNL     1       5.377   3.825  15.859  0.00  0.00    +0.000 A 
ATOM     26  C   UNL     1       5.926   4.974  15.296  0.00  0.00    +0.000 A 
ATOM     27 CL   UNL     1       7.145   4.836  14.087  0.00  0.00    +0.000 Cl
ATOM     28  C   UNL     1       5.506   6.238  15.705  0.00  0.00    +0.000 A 
ATOM     29  C   UNL     1       4.530   6.351  16.690  0.00  0.00    +0.000 A 
ENDBRANCH  22  23
ENDBRANCH  21  22
ENDBRANCH   4  21
TORSDOF 6
ENDMDL
MODEL 4
REMARK VINA RESULT:      -7.4      1.027      1.612
REMARK  Name = 
REMARK  8 active torsions:
REMARK  status: ('A' for Active; 'I' for Inactive)
REMARK    1  A    between atoms: C_1  and  C_2
REMARK    2  A    between atoms: C_4  and  C_5
REMARK    3  A    between atoms: N_6  and  N_7
REMARK    4  A    between atoms: C_12  and  C_13
REMARK    5  A    between atoms: N_14  and  C_15
REMARK    6  A    between atoms: C_18  and  O_19
REMARK    7  A    between atoms: O_19  and  C_20
REMARK    8  A    between atoms: C_20  and  C_21
REMARK                            x       y       z     vdW  Elec       q    Type
REMARK                         _______ _______ _______ _____ _____    ______ ____
ROOT
ATOM      1  C   UNL     1       0.945   9.705  18.892  0.00  0.00    +0.000 A 
ATOM      2  C   UNL     1       1.578   9.128  17.787  0.00  0.00    +0.000 A 
ATOM      3  C   UNL     1       2.214   7.895  17.884  0.00  0.00    +0.000 A 
ATOM      4  C   UNL     1       2.326   7.263  19.118  0.00  0.00    +0.000 A 
ATOM      5  C   UNL     1       1.720   7.834  20.235  0.00  0.00    +0.000 A 
ATOM      6  C   UNL     1       1.021   9.043  20.124  0.00  0.00    +0.000 A 
ENDROOT
BRANCH   1  13
ATOM      7  C   UNL     1      -2.041   9.937  17.974  0.00  0.00    +0.000 C 
ATOM      8  C   UNL     1      -1.105  11.057  18.281  0.00  0.00    +0.000 A 
ATOM      9  C   UNL     1      -1.422  12.400  18.264  0.00  0.00    +0.000 A 
ATOM     10  C   UNL     1      -0.307  13.135  18.720  0.00  0.00    +0.000 A 
ATOM     11  C   UNL     1       0.696  12.218  19.007  0.00  0.00    +0.000 A 
ATOM     12  C   UNL     1       2.102  12.522  19.432  0.00  0.00    +0.000 C 
ATOM     13  N   UNL     1       0.210  10.925  18.736  0.00  0.00    +0.000 N 
BRANCH  10  14
ATOM     14  C   UNL     1      -0.189  14.573  18.848  0.00  0.00    +0.000 C 
ATOM     15  N   UNL     1      -0.465  15.136  19.979  0.00  0.00    +0.000 NA
BRANCH  15  16
ATOM     16  N   UNL     1      -0.408  16.491  19.986  0.00  0.00    +0.000 N 
ATOM     17  C   UNL     1      -0.657  17.410  20.977  0.00  0.00    +0.000 A 
ATOM     18  N   UNL     1      -0.470  18.630  20.533  0.00  0.00    +0.000 NA
ATOM     19  N   UNL     1      -0.048  18.533  19.225  0.00  0.00    +0.000 NA
ATOM     20  C   UNL     1       0.005  17.255  18.927  0.00  0.00    +0.000 A 
ENDBRANCH  15  16
ENDBRANCH  10  14
ENDBRANCH   1  13
BRANCH   4  21
ATOM     21  O   UNL     1       3.012   6.100  19.325  0.00  0.00    +0.000 OA
BRANCH  21  22
ATOM     22  C   UNL     1       4.428   6.211  19.169  0.00  0.00    +0.000 C 
BRANCH  22  23
ATOM     23  C   UNL     1       4.802   5.654  17.830  0.00  0.00    +0.000 A 
ATOM     24  C   UNL     1       5.219   6.500  16.796  0.00  0.00    +0.000 A 
ATOM     25  C   UNL     1       5.545   5.969  15.549  0.00  0.00    +0.000 A 
ATOM     26  C   UNL     1       5.449   4.597  15.334  0.00  0.00    +0.000 A 
ATOM     27 CL   UNL     1       5.842   3.943  13.790  0.00  0.00    +0.000 Cl
ATOM     28  C   UNL     1       5.032   3.744  16.354  0.00  0.00    +0.000 A 
ATOM     29  C   UNL     1       4.704   4.273  17.599  0.00  0.00    +0.000 A 
ENDBRANCH  22  23
ENDBRANCH  21  22
ENDBRANCH   4  21
TORSDOF 6
ENDMDL
MODEL 5
REMARK VINA RESULT:      -7.2      5.975     10.903
REMARK  Name = 
REMARK  8 active torsions:
REMARK  status: ('A' for Active; 'I' for Inactive)
REMARK    1  A    between atoms: C_1  and  C_2
REMARK    2  A    between atoms: C_4  and  C_5
REMARK    3  A    between atoms: N_6  and  N_7
REMARK    4  A    between atoms: C_12  and  C_13
REMARK    5  A    between atoms: N_14  and  C_15
REMARK    6  A    between atoms: C_18  and  O_19
REMARK    7  A    between atoms: O_19  and  C_20
REMARK    8  A    between atoms: C_20  and  C_21
REMARK                            x       y       z     vdW  Elec       q    Type
REMARK                         _______ _______ _______ _____ _____    ______ ____
ROOT
ATOM      1  C   UNL     1       4.105   6.262  18.104  0.00  0.00    +0.000 A 
ATOM      2  C   UNL     1       3.924   5.523  19.277  0.00  0.00    +0.000 A 
ATOM      3  C   UNL     1       2.915   5.842  20.179  0.00  0.00    +0.000 A 
ATOM      4  C   UNL     1       2.134   6.975  19.982  0.00  0.00    +0.000 A 
ATOM      5  C   UNL     1       2.315   7.736  18.829  0.00  0.00    +0.000 A 
ATOM      6  C   UNL     1       3.288   7.377  17.886  0.00  0.00    +0.000 A 
ENDROOT
BRANCH   1  13
ATOM      7  C   UNL     1       6.919   7.570  17.679  0.00  0.00    +0.000 C 
ATOM      8  C   UNL     1       6.325   6.443  16.903  0.00  0.00    +0.000 A 
ATOM      9  C   UNL     1       6.950   5.745  15.890  0.00  0.00    +0.000 A 
ATOM     10  C   UNL     1       6.111   4.685  15.485  0.00  0.00    +0.000 A 
ATOM     11  C   UNL     1       4.962   4.756  16.262  0.00  0.00    +0.000 A 
ATOM     12  C   UNL     1       3.735   3.902  16.138  0.00  0.00    +0.000 C 
ATOM     13  N   UNL     1       5.086   5.846  17.144  0.00  0.00    +0.000 N 
BRANCH  10  14
ATOM     14  C   UNL     1       6.358   3.712  14.441  0.00  0.00    +0.000 C 
ATOM     15  N   UNL     1       6.101   4.020  13.211  0.00  0.00    +0.000 NA
BRANCH  15  16
ATOM     16  N   UNL     1       6.284   3.022  12.310  0.00  0.00    +0.000 N 
ATOM     17  C   UNL     1       5.400   2.147  11.727  0.00  0.00    +0.000 A 
ATOM     18  N   UNL     1       6.024   1.342  10.900  0.00  0.00    +0.000 NA
ATOM     19  N   UNL     1       7.353   1.707  10.895  0.00  0.00    +0.000 NA
ATOM     20  C   UNL     1       7.482   2.720  11.720  0.00  0.00    +0.000 A 
ENDBRANCH  15  16
ENDBRANCH  10  14
ENDBRANCH   1  13
BRANCH   4  21
ATOM     21  O   UNL     1       1.185   7.418  20.859  0.00  0.00    +0.000 OA
BRANCH  21  22
ATOM     22  C   UNL     1       1.631   8.448  21.744  0.00  0.00    +0.000 C 
BRANCH  22  23
ATOM     23  C   UNL     1       0.573   9.504  21.813  0.00  0.00    +0.000 A 
ATOM     24  C   UNL     1       0.263  10.278  20.688  0.00  0.00    +0.000 A 
ATOM     25  C   UNL     1      -0.711  11.272  20.772  0.00  0.00    +0.000 A 
ATOM     26  C   UNL     1      -1.370  11.495  21.977  0.00  0.00    +0.000 A 
ATOM     27 CL   UNL     1      -2.566  12.731  22.083  0.00  0.00    +0.000 Cl
ATOM     28  C   UNL     1      -1.070  10.734  23.105  0.00  0.00    +0.000 A 
ATOM     29  C   UNL     1      -0.096   9.743  23.024  0.00  0.00    +0.000 A 
ENDBRANCH  22  23
ENDBRANCH  21  22
ENDBRANCH   4  21
TORSDOF 6
ENDMDL
MODEL 6
REMARK VINA RESULT:      -7.2      1.609      1.950
REMARK  Name = 
REMARK  8 active torsions:
REMARK  status: ('A' for Active; 'I' for Inactive)
REMARK    1  A    between atoms: C_1  and  C_2
REMARK    2  A    between atoms: C_4  and  C_5
REMARK    3  A    between atoms: N_6  and  N_7
REMARK    4  A    between atoms: C_12  and  C_13
REMARK    5  A    between atoms: N_14  and  C_15
REMARK    6  A    between atoms: C_18  and  O_19
REMARK    7  A    between atoms: O_19  and  C_20
REMARK    8  A    between atoms: C_20  and  C_21
REMARK                            x       y       z     vdW  Elec       q    Type
REMARK                         _______ _______ _______ _____ _____    ______ ____
ROOT
ATOM      1  C   UNL     1       0.650   9.774  19.285  0.00  0.00    +0.000 A 
ATOM      2  C   UNL     1       1.343   9.452  18.114  0.00  0.00    +0.000 A 
ATOM      3  C   UNL     1       2.148   8.320  18.042  0.00  0.00    +0.000 A 
ATOM      4  C   UNL     1       2.365   7.545  19.176  0.00  0.00    +0.000 A 
ATOM      5  C   UNL     1       1.701   7.864  20.358  0.00  0.00    +0.000 A 
ATOM      6  C   UNL     1       0.837   8.966  20.413  0.00  0.00    +0.000 A 
ENDROOT
BRANCH   1  13
ATOM      7  C   UNL     1      -2.162   9.864  17.907  0.00  0.00    +0.000 C 
ATOM      8  C   UNL     1      -1.488  10.970  18.648  0.00  0.00    +0.000 A 
ATOM      9  C   UNL     1      -2.024  12.216  18.900  0.00  0.00    +0.000 A 
ATOM     10  C   UNL     1      -1.133  12.936  19.723  0.00  0.00    +0.000 A 
ATOM     11  C   UNL     1      -0.041  12.110  19.960  0.00  0.00    +0.000 A 
ATOM     12  C   UNL     1       1.213  12.465  20.703  0.00  0.00    +0.000 C 
ATOM     13  N   UNL     1      -0.252  10.888  19.296  0.00  0.00    +0.000 N 
BRANCH  10  14
ATOM     14  C   UNL     1      -1.283  14.289  20.217  0.00  0.00    +0.000 C 
ATOM     15  N   UNL     1      -0.761  15.270  19.554  0.00  0.00    +0.000 NA
BRANCH  15  16
ATOM     16  N   UNL     1      -0.879  16.492  20.130  0.00  0.00    +0.000 N 
ATOM     17  C   UNL     1      -1.275  17.706  19.621  0.00  0.00    +0.000 A 
ATOM     18  N   UNL     1      -1.240  18.630  20.552  0.00  0.00    +0.000 NA
ATOM     19  N   UNL     1      -0.849  18.020  21.724  0.00  0.00    +0.000 NA
ATOM     20  C   UNL     1      -0.663  16.747  21.457  0.00  0.00    +0.000 A 
ENDBRANCH  15  16
ENDBRANCH  10  14
ENDBRANCH   1  13
BRANCH   4  21
ATOM     21  O   UNL     1       3.211   6.474  19.224  0.00  0.00    +0.000 OA
BRANCH  21  22
ATOM     22  C   UNL     1       2.844   5.390  18.368  0.00  0.00    +0.000 C 
BRANCH  22  23
ATOM     23  C   UNL     1       3.912   5.222  17.333  0.00  0.00    +0.000 A 
ATOM     24  C   UNL     1       4.225   3.952  16.832  0.00  0.00    +0.000 A 
ATOM     25  C   UNL     1       5.236   3.808  15.882  0.00  0.00    +0.000 A 
ATOM     26  C   UNL     1       5.935   4.927  15.439  0.00  0.00    +0.000 A 
ATOM     27 CL   UNL     1       7.191   4.746  14.274  0.00  0.00    +0.000 Cl
ATOM     28  C   UNL     1       5.635   6.196  15.932  0.00  0.00    +0.000 A 
ATOM     29  C   UNL     1       4.628   6.341  16.881  0.00  0.00    +0.000 A 
ENDBRANCH  22  23
ENDBRANCH  21  22
ENDBRANCH   4  21
TORSDOF 6
ENDMDL
MODEL 7
REMARK VINA RESULT:      -7.2      3.461      4.070
REMARK  Name = 
REMARK  8 active torsions:
REMARK  status: ('A' for Active; 'I' for Inactive)
REMARK    1  A    between atoms: C_1  and  C_2
REMARK    2  A    between atoms: C_4  and  C_5
REMARK    3  A    between atoms: N_6  and  N_7
REMARK    4  A    between atoms: C_12  and  C_13
REMARK    5  A    between atoms: N_14  and  C_15
REMARK    6  A    between atoms: C_18  and  O_19
REMARK    7  A    between atoms: O_19  and  C_20
REMARK    8  A    between atoms: C_20  and  C_21
REMARK                            x       y       z     vdW  Elec       q    Type
REMARK                         _______ _______ _______ _____ _____    ______ ____
ROOT
ATOM      1  C   UNL     1       1.461   8.066  19.967  0.00  0.00    +0.000 A 
ATOM      2  C   UNL     1       2.336   8.038  18.876  0.00  0.00    +0.000 A 
ATOM      3  C   UNL     1       3.019   6.877  18.532  0.00  0.00    +0.000 A 
ATOM      4  C   UNL     1       2.927   5.747  19.338  0.00  0.00    +0.000 A 
ATOM      5  C   UNL     1       2.077   5.764  20.441  0.00  0.00    +0.000 A 
ATOM      6  C   UNL     1       1.337   6.913  20.751  0.00  0.00    +0.000 A 
ENDROOT
BRANCH   1  13
ATOM      7  C   UNL     1      -0.110   9.747  17.840  0.00  0.00    +0.000 C 
ATOM      8  C   UNL     1       0.026  10.040  19.297  0.00  0.00    +0.000 A 
ATOM      9  C   UNL     1      -0.573  11.086  19.968  0.00  0.00    +0.000 A 
ATOM     10  C   UNL     1      -0.298  10.959  21.346  0.00  0.00    +0.000 A 
ATOM     11  C   UNL     1       0.486   9.823  21.501  0.00  0.00    +0.000 A 
ATOM     12  C   UNL     1       1.111   9.324  22.770  0.00  0.00    +0.000 C 
ATOM     13  N   UNL     1       0.693   9.247  20.234  0.00  0.00    +0.000 N 
BRANCH  10  14
ATOM     14  C   UNL     1      -0.713  11.844  22.415  0.00  0.00    +0.000 C 
ATOM     15  N   UNL     1      -1.874  12.411  22.357  0.00  0.00    +0.000 NA
BRANCH  15  16
ATOM     16  N   UNL     1      -2.147  13.285  23.357  0.00  0.00    +0.000 N 
ATOM     17  C   UNL     1      -1.427  14.338  23.870  0.00  0.00    +0.000 A 
ATOM     18  N   UNL     1      -2.088  14.918  24.843  0.00  0.00    +0.000 NA
ATOM     19  N   UNL     1      -3.296  14.268  24.966  0.00  0.00    +0.000 NA
ATOM     20  C   UNL     1      -3.321  13.318  24.060  0.00  0.00    +0.000 A 
ENDBRANCH  15  16
ENDBRANCH  10  14
ENDBRANCH   1  13
BRANCH   4  21
ATOM     21  O   UNL     1       3.632   4.596  19.131  0.00  0.00    +0.000 OA
BRANCH  21  22
ATOM     22  C   UNL     1       5.050   4.771  19.082  0.00  0.00    +0.000 C 
BRANCH  22  23
ATOM     23  C   UNL     1       5.500   4.589  17.665  0.00  0.00    +0.000 A 
ATOM     24  C   UNL     1       6.821   4.870  17.295  0.00  0.00    +0.000 A 
ATOM     25  C   UNL     1       7.221   4.715  15.969  0.00  0.00    +0.000 A 
ATOM     26  C   UNL     1       6.304   4.285  15.014  0.00  0.00    +0.000 A 
ATOM     27 CL   UNL     1       6.796   4.104  13.374  0.00  0.00    +0.000 Cl
ATOM     28  C   UNL     1       4.985   4.005  15.369  0.00  0.00    +0.000 A 
ATOM     29  C   UNL     1       4.584   4.162  16.692  0.00  0.00    +0.000 A 
ENDBRANCH  22  23
ENDBRANCH  21  22
ENDBRANCH   4  21
TORSDOF 6
ENDMDL
MODEL 8
REMARK VINA RESULT:      -7.2      3.031      4.733
REMARK  Name = 
REMARK  8 active torsions:
REMARK  status: ('A' for Active; 'I' for Inactive)
REMARK    1  A    between atoms: C_1  and  C_2
REMARK    2  A    between atoms: C_4  and  C_5
REMARK    3  A    between atoms: N_6  and  N_7
REMARK    4  A    between atoms: C_12  and  C_13
REMARK    5  A    between atoms: N_14  and  C_15
REMARK    6  A    between atoms: C_18  and  O_19
REMARK    7  A    between atoms: O_19  and  C_20
REMARK    8  A    between atoms: C_20  and  C_21
REMARK                            x       y       z     vdW  Elec       q    Type
REMARK                         _______ _______ _______ _____ _____    ______ ____
ROOT
ATOM      1  C   UNL     1       0.772   9.546  19.251  0.00  0.00    +0.000 A 
ATOM      2  C   UNL     1       1.430   9.270  18.049  0.00  0.00    +0.000 A 
ATOM      3  C   UNL     1       2.227   8.138  17.909  0.00  0.00    +0.000 A 
ATOM      4  C   UNL     1       2.471   7.317  19.004  0.00  0.00    +0.000 A 
ATOM      5  C   UNL     1       1.840   7.590  20.216  0.00  0.00    +0.000 A 
ATOM      6  C   UNL     1       0.985   8.692  20.339  0.00  0.00    +0.000 A 
ENDROOT
BRANCH   1  13
ATOM      7  C   UNL     1       1.364  12.267  20.687  0.00  0.00    +0.000 C 
ATOM      8  C   UNL     1       0.098  11.865  20.007  0.00  0.00    +0.000 A 
ATOM      9  C   UNL     1      -1.019  12.660  19.850  0.00  0.00    +0.000 A 
ATOM     10  C   UNL     1      -1.960  11.969  19.059  0.00  0.00    +0.000 A 
ATOM     11  C   UNL     1      -1.401  10.736  18.746  0.00  0.00    +0.000 A 
ATOM     12  C   UNL     1      -2.058   9.610  18.002  0.00  0.00    +0.000 C 
ATOM     13  N   UNL     1      -0.124  10.663  19.332  0.00  0.00    +0.000 N 
BRANCH  10  14
ATOM     14  C   UNL     1      -3.278  12.417  18.658  0.00  0.00    +0.000 C 
ATOM     15  N   UNL     1      -4.323  11.897  19.216  0.00  0.00    +0.000 NA
BRANCH  15  16
ATOM     16  N   UNL     1      -5.516  12.315  18.724  0.00  0.00    +0.000 N 
ATOM     17  C   UNL     1      -5.944  12.537  17.436  0.00  0.00    +0.000 A 
ATOM     18  N   UNL     1      -7.193  12.938  17.428  0.00  0.00    +0.000 NA
ATOM     19  N   UNL     1      -7.631  12.952  18.735  0.00  0.00    +0.000 NA
ATOM     20  C   UNL     1      -6.628  12.557  19.485  0.00  0.00    +0.000 A 
ENDBRANCH  15  16
ENDBRANCH  10  14
ENDBRANCH   1  13
BRANCH   4  21
ATOM     21  O   UNL     1       3.312   6.240  18.985  0.00  0.00    +0.000 OA
BRANCH  21  22
ATOM     22  C   UNL     1       4.663   6.551  18.638  0.00  0.00    +0.000 C 
BRANCH  22  23
ATOM     23  C   UNL     1       4.999   5.845  17.361  0.00  0.00    +0.000 A 
ATOM     24  C   UNL     1       5.179   6.565  16.174  0.00  0.00    +0.000 A 
ATOM     25  C   UNL     1       5.471   5.892  14.988  0.00  0.00    +0.000 A 
ATOM     26  C   UNL     1       5.578   4.504  14.988  0.00  0.00    +0.000 A 
ATOM     27 CL   UNL     1       5.929   3.673  13.520  0.00  0.00    +0.000 Cl
ATOM     28  C   UNL     1       5.397   3.775  16.161  0.00  0.00    +0.000 A 
ATOM     29  C   UNL     1       5.103   4.445  17.345  0.00  0.00    +0.000 A 
ENDBRANCH  22  23
ENDBRANCH  21  22
ENDBRANCH   4  21
TORSDOF 6
ENDMDL
MODEL 9
REMARK VINA RESULT:      -7.1      2.531      2.766
REMARK  Name = 
REMARK  8 active torsions:
REMARK  status: ('A' for Active; 'I' for Inactive)
REMARK    1  A    between atoms: C_1  and  C_2
REMARK    2  A    between atoms: C_4  and  C_5
REMARK    3  A    between atoms: N_6  and  N_7
REMARK    4  A    between atoms: C_12  and  C_13
REMARK    5  A    between atoms: N_14  and  C_15
REMARK    6  A    between atoms: C_18  and  O_19
REMARK    7  A    between atoms: O_19  and  C_20
REMARK    8  A    between atoms: C_20  and  C_21
REMARK                            x       y       z     vdW  Elec       q    Type
REMARK                         _______ _______ _______ _____ _____    ______ ____
ROOT
ATOM      1  C   UNL     1       0.394   9.936  19.421  0.00  0.00    +0.000 A 
ATOM      2  C   UNL     1       1.097   9.665  18.243  0.00  0.00    +0.000 A 
ATOM      3  C   UNL     1       1.943   8.565  18.147  0.00  0.00    +0.000 A 
ATOM      4  C   UNL     1       2.189   7.774  19.264  0.00  0.00    +0.000 A 
ATOM      5  C   UNL     1       1.514   8.042  20.452  0.00  0.00    +0.000 A 
ATOM      6  C   UNL     1       0.610   9.111  20.531  0.00  0.00    +0.000 A 
ENDROOT
BRANCH   1  13
ATOM      7  C   UNL     1      -2.404   9.969  18.012  0.00  0.00    +0.000 C 
ATOM      8  C   UNL     1      -1.779  11.074  18.797  0.00  0.00    +0.000 A 
ATOM      9  C   UNL     1      -2.363  12.291  19.080  0.00  0.00    +0.000 A 
ATOM     10  C   UNL     1      -1.507  13.016  19.937  0.00  0.00    +0.000 A 
ATOM     11  C   UNL     1      -0.389  12.223  20.161  0.00  0.00    +0.000 A 
ATOM     12  C   UNL     1       0.843  12.598  20.930  0.00  0.00    +0.000 C 
ATOM     13  N   UNL     1      -0.548  11.016  19.456  0.00  0.00    +0.000 N 
BRANCH  10  14
ATOM     14  C   UNL     1      -1.712  14.347  20.471  0.00  0.00    +0.000 C 
ATOM     15  N   UNL     1      -2.880  14.679  20.918  0.00  0.00    +0.000 NA
BRANCH  15  16
ATOM     16  N   UNL     1      -3.004  15.968  21.323  0.00  0.00    +0.000 N 
ATOM     17  C   UNL     1      -3.494  16.516  22.484  0.00  0.00    +0.000 A 
ATOM     18  N   UNL     1      -3.417  17.825  22.446  0.00  0.00    +0.000 NA
ATOM     19  N   UNL     1      -2.827  18.168  21.249  0.00  0.00    +0.000 NA
ATOM     20  C   UNL     1      -2.568  17.051  20.608  0.00  0.00    +0.000 A 
ENDBRANCH  15  16
ENDBRANCH  10  14
ENDBRANCH   1  13
BRANCH   4  21
ATOM     21  O   UNL     1       3.073   6.733  19.288  0.00  0.00    +0.000 OA
BRANCH  21  22
ATOM     22  C   UNL     1       2.685   5.608  18.497  0.00  0.00    +0.000 C 
BRANCH  22  23
ATOM     23  C   UNL     1       3.745   5.366  17.467  0.00  0.00    +0.000 A 
ATOM     24  C   UNL     1       4.044   4.066  17.042  0.00  0.00    +0.000 A 
ATOM     25  C   UNL     1       5.046   3.854  16.097  0.00  0.00    +0.000 A 
ATOM     26  C   UNL     1       5.752   4.937  15.581  0.00  0.00    +0.000 A 
ATOM     27 CL   UNL     1       6.998   4.674  14.421  0.00  0.00    +0.000 Cl
ATOM     28  C   UNL     1       5.467   6.236  15.997  0.00  0.00    +0.000 A 
ATOM     29  C   UNL     1       4.467   6.449  16.943  0.00  0.00    +0.000 A 
ENDBRANCH  22  23
ENDBRANCH  21  22
ENDBRANCH   4  21
TORSDOF 6
ENDMDL
