MODEL 1
REMARK VINA RESULT:      -8.1      0.000      0.000
REMARK  Name = 
REMARK  4 active torsions:
REMARK  status: ('A' for Active; 'I' for Inactive)
REMARK    1  A    between atoms: C_2  and  C_3
REMARK    2  A    between atoms: C_3  and  O_4
REMARK    3  A    between atoms: O_4  and  C_5
REMARK    4  A    between atoms: N_15  and  C_16
REMARK                            x       y       z     vdW  Elec       q    Type
REMARK                         _______ _______ _______ _____ _____    ______ ____
ROOT
ATOM      1  O   UNL     1       1.697   5.100  18.443  0.00  0.00    +0.000 OA
ATOM      2  C   UNL     1       2.575   5.350  19.265  0.00  0.00    +0.000 C 
ATOM      3  N   UNL     1       2.832   6.600  19.811  0.00  0.00    +0.000 N 
ATOM      4  H   UNL     1       3.717   6.715  20.292  0.00  0.00    +0.000 HD
ENDROOT
BRANCH   3   5
ATOM      5  C   UNL     1       2.070   7.773  19.580  0.00  0.00    +0.000 A 
ATOM      6  C   UNL     1       2.033   8.431  18.332  0.00  0.00    +0.000 A 
ATOM      7  C   UNL     1       1.319   9.625  18.160  0.00  0.00    +0.000 A 
ATOM      8  C   UNL     1       0.638  10.126  19.249  0.00  0.00    +0.000 A 
ATOM      9  C   UNL     1       0.623   9.481  20.468  0.00  0.00    +0.000 A 
ATOM     10  C   UNL     1       1.322   8.292  20.650  0.00  0.00    +0.000 A 
ATOM     11  C   UNL     1      -0.192  10.269  21.413  0.00  0.00    +0.000 C 
ATOM     12  O   UNL     1      -0.630  11.398  20.624  0.00  0.00    +0.000 OA
ATOM     13  C   UNL     1      -0.152  11.349  19.344  0.00  0.00    +0.000 C 
ATOM     14  O   UNL     1      -0.349  12.159  18.464  0.00  0.00    +0.000 OA
ENDBRANCH   3   5
BRANCH   2  15
ATOM     15  C   UNL     1       3.470   4.221  19.802  0.00  0.00    +0.000 C 
BRANCH  15  16
ATOM     16  O   UNL     1       4.344   3.652  18.837  0.00  0.00    +0.000 OA
BRANCH  16  17
ATOM     17  C   UNL     1       5.411   4.449  18.455  0.00  0.00    +0.000 A 
ATOM     18  C   UNL     1       6.195   5.170  19.368  0.00  0.00    +0.000 A 
ATOM     19  C   UNL     1       7.274   5.935  18.932  0.00  0.00    +0.000 A 
ATOM     20  C   UNL     1       7.602   5.974  17.582  0.00  0.00    +0.000 A 
ATOM     21  C   UNL     1       6.851   5.257  16.645  0.00  0.00    +0.000 A 
ATOM     22  C   UNL     1       7.204   5.296  15.287  0.00  0.00    +0.000 A 
ATOM     23  C   UNL     1       6.464   4.597  14.335  0.00  0.00    +0.000 A 
ATOM     24  C   UNL     1       5.357   3.856  14.733  0.00  0.00    +0.000 A 
ATOM     25  C   UNL     1       4.999   3.800  16.083  0.00  0.00    +0.000 A 
ATOM     26  C   UNL     1       5.736   4.488  17.073  0.00  0.00    +0.000 A 
ENDBRANCH  16  17
ENDBRANCH  15  16
ENDBRANCH   2  15
TORSDOF 4
ENDMDL
MODEL 2
REMARK VINA RESULT:      -8.1      5.246      8.026
REMARK  Name = 
REMARK  4 active torsions:
REMARK  status: ('A' for Active; 'I' for Inactive)
REMARK    1  A    between atoms: C_2  and  C_3
REMARK    2  A    between atoms: C_3  and  O_4
REMARK    3  A    between atoms: O_4  and  C_5
REMARK    4  A    between atoms: N_15  and  C_16
REMARK                            x       y       z     vdW  Elec       q    Type
REMARK                         _______ _______ _______ _____ _____    ______ ____
ROOT
ATOM      1  O   UNL     1       8.192   6.980  18.767  0.00  0.00    +0.000 OA
ATOM      2  C   UNL     1       7.747   7.800  17.967  0.00  0.00    +0.000 C 
ATOM      3  N   UNL     1       6.622   7.620  17.175  0.00  0.00    +0.000 N 
ATOM      4  H   UNL     1       6.499   8.266  16.403  0.00  0.00    +0.000 HD
ENDROOT
BRANCH   3   5
ATOM      5  C   UNL     1       5.751   6.502  17.221  0.00  0.00    +0.000 A 
ATOM      6  C   UNL     1       6.121   5.221  16.759  0.00  0.00    +0.000 A 
ATOM      7  C   UNL     1       5.211   4.156  16.761  0.00  0.00    +0.000 A 
ATOM      8  C   UNL     1       3.944   4.397  17.249  0.00  0.00    +0.000 A 
ATOM      9  C   UNL     1       3.569   5.627  17.745  0.00  0.00    +0.000 A 
ATOM     10  C   UNL     1       4.466   6.692  17.754  0.00  0.00    +0.000 A 
ATOM     11  C   UNL     1       2.163   5.555  18.186  0.00  0.00    +0.000 C 
ATOM     12  O   UNL     1       1.789   4.188  17.900  0.00  0.00    +0.000 OA
ATOM     13  C   UNL     1       2.814   3.479  17.338  0.00  0.00    +0.000 C 
ATOM     14  O   UNL     1       2.788   2.319  16.989  0.00  0.00    +0.000 OA
ENDBRANCH   3   5
BRANCH   2  15
ATOM     15  C   UNL     1       8.425   9.172  17.815  0.00  0.00    +0.000 C 
BRANCH  15  16
ATOM     16  O   UNL     1       9.023   9.670  19.004  0.00  0.00    +0.000 OA
BRANCH  16  17
ATOM     17  C   UNL     1       9.698  10.872  18.873  0.00  0.00    +0.000 A 
ATOM     18  C   UNL     1      10.381  11.246  17.705  0.00  0.00    +0.000 A 
ATOM     19  C   UNL     1      11.020  12.480  17.617  0.00  0.00    +0.000 A 
ATOM     20  C   UNL     1      10.970  13.370  18.684  0.00  0.00    +0.000 A 
ATOM     21  C   UNL     1      10.287  13.037  19.859  0.00  0.00    +0.000 A 
ATOM     22  C   UNL     1      10.233  13.953  20.921  0.00  0.00    +0.000 A 
ATOM     23  C   UNL     1       9.567  13.638  22.104  0.00  0.00    +0.000 A 
ATOM     24  C   UNL     1       8.952  12.398  22.238  0.00  0.00    +0.000 A 
ATOM     25  C   UNL     1       8.989  11.479  21.185  0.00  0.00    +0.000 A 
ATOM     26  C   UNL     1       9.646  11.774  19.970  0.00  0.00    +0.000 A 
ENDBRANCH  16  17
ENDBRANCH  15  16
ENDBRANCH   2  15
TORSDOF 4
ENDMDL
MODEL 3
REMARK VINA RESULT:      -8.0      5.945      7.733
REMARK  Name = 
REMARK  4 active torsions:
REMARK  status: ('A' for Active; 'I' for Inactive)
REMARK    1  A    between atoms: C_2  and  C_3
REMARK    2  A    between atoms: C_3  and  O_4
REMARK    3  A    between atoms: O_4  and  C_5
REMARK    4  A    between atoms: N_15  and  C_16
REMARK                            x       y       z     vdW  Elec       q    Type
REMARK                         _______ _______ _______ _____ _____    ______ ____
ROOT
ATOM      1  O   UNL     1       7.739   9.917  17.354  0.00  0.00    +0.000 OA
ATOM      2  C   UNL     1       8.191   9.051  18.100  0.00  0.00    +0.000 C 
ATOM      3  N   UNL     1       9.107   9.269  19.121  0.00  0.00    +0.000 N 
ATOM      4  H   UNL     1       9.568   8.451  19.502  0.00  0.00    +0.000 HD
ENDROOT
BRANCH   3   5
ATOM      5  C   UNL     1       9.602  10.533  19.528  0.00  0.00    +0.000 A 
ATOM      6  C   UNL     1       9.259  11.133  20.759  0.00  0.00    +0.000 A 
ATOM      7  C   UNL     1       9.717  12.413  21.097  0.00  0.00    +0.000 A 
ATOM      8  C   UNL     1      10.532  13.061  20.194  0.00  0.00    +0.000 A 
ATOM      9  C   UNL     1      10.917  12.482  19.004  0.00  0.00    +0.000 A 
ATOM     10  C   UNL     1      10.475  11.208  18.658  0.00  0.00    +0.000 A 
ATOM     11  C   UNL     1      11.784  13.427  18.272  0.00  0.00    +0.000 C 
ATOM     12  O   UNL     1      11.852  14.573  19.151  0.00  0.00    +0.000 OA
ATOM     13  C   UNL     1      11.118  14.394  20.291  0.00  0.00    +0.000 C 
ATOM     14  O   UNL     1      10.985  15.184  21.200  0.00  0.00    +0.000 OA
ENDBRANCH   3   5
BRANCH   2  15
ATOM     15  C   UNL     1       7.714   7.596  17.968  0.00  0.00    +0.000 C 
BRANCH  15  16
ATOM     16  O   UNL     1       6.413   7.450  17.416  0.00  0.00    +0.000 OA
BRANCH  16  17
ATOM     17  C   UNL     1       6.125   6.201  16.889  0.00  0.00    +0.000 A 
ATOM     18  C   UNL     1       7.038   5.464  16.119  0.00  0.00    +0.000 A 
ATOM     19  C   UNL     1       6.707   4.200  15.638  0.00  0.00    +0.000 A 
ATOM     20  C   UNL     1       5.470   3.641  15.936  0.00  0.00    +0.000 A 
ATOM     21  C   UNL     1       4.540   4.341  16.712  0.00  0.00    +0.000 A 
ATOM     22  C   UNL     1       3.300   3.757  17.016  0.00  0.00    +0.000 A 
ATOM     23  C   UNL     1       2.356   4.440  17.780  0.00  0.00    +0.000 A 
ATOM     24  C   UNL     1       2.640   5.720  18.242  0.00  0.00    +0.000 A 
ATOM     25  C   UNL     1       3.874   6.311  17.955  0.00  0.00    +0.000 A 
ATOM     26  C   UNL     1       4.856   5.640  17.195  0.00  0.00    +0.000 A 
ENDBRANCH  16  17
ENDBRANCH  15  16
ENDBRANCH   2  15
TORSDOF 4
ENDMDL
MODEL 4
REMARK VINA RESULT:      -7.9      2.557      4.623
REMARK  Name = 
REMARK  4 active torsions:
REMARK  status: ('A' for Active; 'I' for Inactive)
REMARK    1  A    between atoms: C_2  and  C_3
REMARK    2  A    between atoms: C_3  and  O_4
REMARK    3  A    between atoms: O_4  and  C_5
REMARK    4  A    between atoms: N_15  and  C_16
REMARK                            x       y       z     vdW  Elec       q    Type
REMARK                         _______ _______ _______ _____ _____    ______ ____
ROOT
ATOM      1  O   UNL     1       1.369   8.582  19.851  0.00  0.00    +0.000 OA
ATOM      2  C   UNL     1       1.557   8.777  18.653  0.00  0.00    +0.000 C 
ATOM      3  N   UNL     1       0.778   9.588  17.839  0.00  0.00    +0.000 N 
ATOM      4  H   UNL     1       0.898   9.480  16.839  0.00  0.00    +0.000 HD
ENDROOT
BRANCH   3   5
ATOM      5  C   UNL     1      -0.305  10.394  18.272  0.00  0.00    +0.000 A 
ATOM      6  C   UNL     1      -0.158  11.439  19.209  0.00  0.00    +0.000 A 
ATOM      7  C   UNL     1      -1.264  12.171  19.661  0.00  0.00    +0.000 A 
ATOM      8  C   UNL     1      -2.501  11.847  19.146  0.00  0.00    +0.000 A 
ATOM      9  C   UNL     1      -2.667  10.859  18.198  0.00  0.00    +0.000 A 
ATOM     10  C   UNL     1      -1.576  10.130  17.735  0.00  0.00    +0.000 A 
ATOM     11  C   UNL     1      -4.099  10.764  17.855  0.00  0.00    +0.000 C 
ATOM     12  O   UNL     1      -4.713  11.778  18.683  0.00  0.00    +0.000 OA
ATOM     13  C   UNL     1      -3.800  12.431  19.463  0.00  0.00    +0.000 C 
ATOM     14  O   UNL     1      -4.025  13.319  20.256  0.00  0.00    +0.000 OA
ENDBRANCH   3   5
BRANCH   2  15
ATOM     15  C   UNL     1       2.759   8.128  17.948  0.00  0.00    +0.000 C 
BRANCH  15  16
ATOM     16  O   UNL     1       3.442   7.152  18.723  0.00  0.00    +0.000 OA
BRANCH  16  17
ATOM     17  C   UNL     1       3.478   5.878  18.180  0.00  0.00    +0.000 A 
ATOM     18  C   UNL     1       4.305   5.527  17.101  0.00  0.00    +0.000 A 
ATOM     19  C   UNL     1       4.323   4.223  16.613  0.00  0.00    +0.000 A 
ATOM     20  C   UNL     1       3.536   3.244  17.206  0.00  0.00    +0.000 A 
ATOM     21  C   UNL     1       2.710   3.554  18.292  0.00  0.00    +0.000 A 
ATOM     22  C   UNL     1       1.931   2.550  18.889  0.00  0.00    +0.000 A 
ATOM     23  C   UNL     1       1.095   2.839  19.965  0.00  0.00    +0.000 A 
ATOM     24  C   UNL     1       1.023   4.139  20.451  0.00  0.00    +0.000 A 
ATOM     25  C   UNL     1       1.800   5.148  19.873  0.00  0.00    +0.000 A 
ATOM     26  C   UNL     1       2.666   4.884  18.789  0.00  0.00    +0.000 A 
ENDBRANCH  16  17
ENDBRANCH  15  16
ENDBRANCH   2  15
TORSDOF 4
ENDMDL
MODEL 5
REMARK VINA RESULT:      -7.9      0.814      1.560
REMARK  Name = 
REMARK  4 active torsions:
REMARK  status: ('A' for Active; 'I' for Inactive)
REMARK    1  A    between atoms: C_2  and  C_3
REMARK    2  A    between atoms: C_3  and  O_4
REMARK    3  A    between atoms: O_4  and  C_5
REMARK    4  A    between atoms: N_15  and  C_16
REMARK                            x       y       z     vdW  Elec       q    Type
REMARK                         _______ _______ _______ _____ _____    ______ ____
ROOT
ATOM      1  O   UNL     1       1.033   4.911  20.286  0.00  0.00    +0.000 OA
ATOM      2  C   UNL     1       2.191   5.272  20.093  0.00  0.00    +0.000 C 
ATOM      3  N   UNL     1       2.624   6.590  20.043  0.00  0.00    +0.000 N 
ATOM      4  H   UNL     1       3.544   6.754  19.652  0.00  0.00    +0.000 HD
ENDROOT
BRANCH   3   5
ATOM      5  C   UNL     1       1.822   7.731  20.296  0.00  0.00    +0.000 A 
ATOM      6  C   UNL     1       1.245   8.002  21.555  0.00  0.00    +0.000 A 
ATOM      7  C   UNL     1       0.404   9.106  21.748  0.00  0.00    +0.000 A 
ATOM      8  C   UNL     1       0.174   9.933  20.668  0.00  0.00    +0.000 A 
ATOM      9  C   UNL     1       0.759   9.716  19.439  0.00  0.00    +0.000 A 
ATOM     10  C   UNL     1       1.602   8.626  19.236  0.00  0.00    +0.000 A 
ATOM     11  C   UNL     1       0.315  10.772  18.507  0.00  0.00    +0.000 C 
ATOM     12  O   UNL     1      -0.557  11.592  19.317  0.00  0.00    +0.000 OA
ATOM     13  C   UNL     1      -0.669  11.121  20.596  0.00  0.00    +0.000 C 
ATOM     14  O   UNL     1      -1.333  11.598  21.489  0.00  0.00    +0.000 OA
ENDBRANCH   3   5
BRANCH   2  15
ATOM     15  C   UNL     1       3.305   4.226  19.924  0.00  0.00    +0.000 C 
BRANCH  15  16
ATOM     16  O   UNL     1       3.800   4.101  18.597  0.00  0.00    +0.000 OA
BRANCH  16  17
ATOM     17  C   UNL     1       5.061   4.634  18.379  0.00  0.00    +0.000 A 
ATOM     18  C   UNL     1       5.865   5.147  19.408  0.00  0.00    +0.000 A 
ATOM     19  C   UNL     1       7.137   5.645  19.137  0.00  0.00    +0.000 A 
ATOM     20  C   UNL     1       7.636   5.618  17.839  0.00  0.00    +0.000 A 
ATOM     21  C   UNL     1       6.867   5.101  16.791  0.00  0.00    +0.000 A 
ATOM     22  C   UNL     1       7.390   5.067  15.489  0.00  0.00    +0.000 A 
ATOM     23  C   UNL     1       6.639   4.566  14.429  0.00  0.00    +0.000 A 
ATOM     24  C   UNL     1       5.350   4.097  14.660  0.00  0.00    +0.000 A 
ATOM     25  C   UNL     1       4.819   4.116  15.952  0.00  0.00    +0.000 A 
ATOM     26  C   UNL     1       5.560   4.607  17.050  0.00  0.00    +0.000 A 
ENDBRANCH  16  17
ENDBRANCH  15  16
ENDBRANCH   2  15
TORSDOF 4
ENDMDL
MODEL 6
REMARK VINA RESULT:      -7.9      5.271      6.973
REMARK  Name = 
REMARK  4 active torsions:
REMARK  status: ('A' for Active; 'I' for Inactive)
REMARK    1  A    between atoms: C_2  and  C_3
REMARK    2  A    between atoms: C_3  and  O_4
REMARK    3  A    between atoms: O_4  and  C_5
REMARK    4  A    between atoms: N_15  and  C_16
REMARK                            x       y       z     vdW  Elec       q    Type
REMARK                         _______ _______ _______ _____ _____    ______ ____
ROOT
ATOM      1  O   UNL     1       7.611   8.315  17.261  0.00  0.00    +0.000 OA
ATOM      2  C   UNL     1       8.159   7.892  18.276  0.00  0.00    +0.000 C 
ATOM      3  N   UNL     1       8.906   8.655  19.163  0.00  0.00    +0.000 N 
ATOM      4  H   UNL     1       9.488   8.150  19.821  0.00  0.00    +0.000 HD
ENDROOT
BRANCH   3   5
ATOM      5  C   UNL     1       9.084  10.060  19.095  0.00  0.00    +0.000 A 
ATOM      6  C   UNL     1       8.954  10.794  17.896  0.00  0.00    +0.000 A 
ATOM      7  C   UNL     1       9.201  12.172  17.857  0.00  0.00    +0.000 A 
ATOM      8  C   UNL     1       9.559  12.793  19.035  0.00  0.00    +0.000 A 
ATOM      9  C   UNL     1       9.652  12.108  20.228  0.00  0.00    +0.000 A 
ATOM     10  C   UNL     1       9.402  10.740  20.282  0.00  0.00    +0.000 A 
ATOM     11  C   UNL     1      10.050  13.053  21.290  0.00  0.00    +0.000 C 
ATOM     12  O   UNL     1      10.166  14.315  20.594  0.00  0.00    +0.000 OA
ATOM     13  C   UNL     1       9.891  14.196  19.259  0.00  0.00    +0.000 C 
ATOM     14  O   UNL     1       9.914  15.080  18.432  0.00  0.00    +0.000 OA
ENDBRANCH   3   5
BRANCH   2  15
ATOM     15  C   UNL     1       8.011   6.413  18.670  0.00  0.00    +0.000 C 
BRANCH  15  16
ATOM     16  O   UNL     1       6.688   6.023  19.010  0.00  0.00    +0.000 OA
BRANCH  16  17
ATOM     17  C   UNL     1       6.017   5.288  18.046  0.00  0.00    +0.000 A 
ATOM     18  C   UNL     1       6.647   4.760  16.908  0.00  0.00    +0.000 A 
ATOM     19  C   UNL     1       5.930   4.003  15.984  0.00  0.00    +0.000 A 
ATOM     20  C   UNL     1       4.580   3.742  16.192  0.00  0.00    +0.000 A 
ATOM     21  C   UNL     1       3.924   4.240  17.322  0.00  0.00    +0.000 A 
ATOM     22  C   UNL     1       2.564   3.955  17.525  0.00  0.00    +0.000 A 
ATOM     23  C   UNL     1       1.888   4.449  18.639  0.00  0.00    +0.000 A 
ATOM     24  C   UNL     1       2.565   5.241  19.559  0.00  0.00    +0.000 A 
ATOM     25  C   UNL     1       3.922   5.526  19.376  0.00  0.00    +0.000 A 
ATOM     26  C   UNL     1       4.637   5.030  18.264  0.00  0.00    +0.000 A 
ENDBRANCH  16  17
ENDBRANCH  15  16
ENDBRANCH   2  15
TORSDOF 4
ENDMDL
MODEL 7
REMARK VINA RESULT:      -7.8      0.979      2.219
REMARK  Name = 
REMARK  4 active torsions:
REMARK  status: ('A' for Active; 'I' for Inactive)
REMARK    1  A    between atoms: C_2  and  C_3
REMARK    2  A    between atoms: C_3  and  O_4
REMARK    3  A    between atoms: O_4  and  C_5
REMARK    4  A    between atoms: N_15  and  C_16
REMARK                            x       y       z     vdW  Elec       q    Type
REMARK                         _______ _______ _______ _____ _____    ______ ____
ROOT
ATOM      1  O   UNL     1       1.352   4.305  19.218  0.00  0.00    +0.000 OA
ATOM      2  C   UNL     1       2.466   4.524  19.688  0.00  0.00    +0.000 C 
ATOM      3  N   UNL     1       3.009   5.781  19.914  0.00  0.00    +0.000 N 
ATOM      4  H   UNL     1       4.007   5.823  20.083  0.00  0.00    +0.000 HD
ENDROOT
BRANCH   3   5
ATOM      5  C   UNL     1       2.338   7.015  19.725  0.00  0.00    +0.000 A 
ATOM      6  C   UNL     1       2.389   7.741  18.516  0.00  0.00    +0.000 A 
ATOM      7  C   UNL     1       1.764   8.989  18.390  0.00  0.00    +0.000 A 
ATOM      8  C   UNL     1       1.081   9.477  19.483  0.00  0.00    +0.000 A 
ATOM      9  C   UNL     1       0.979   8.770  20.662  0.00  0.00    +0.000 A 
ATOM     10  C   UNL     1       1.589   7.526  20.799  0.00  0.00    +0.000 A 
ATOM     11  C   UNL     1       0.187   9.560  21.625  0.00  0.00    +0.000 C 
ATOM     12  O   UNL     1      -0.145  10.758  20.887  0.00  0.00    +0.000 OA
ATOM     13  C   UNL     1       0.373  10.746  19.622  0.00  0.00    +0.000 C 
ATOM     14  O   UNL     1       0.263  11.613  18.784  0.00  0.00    +0.000 OA
ENDBRANCH   3   5
BRANCH   2  15
ATOM     15  C   UNL     1       3.364   3.352  20.116  0.00  0.00    +0.000 C 
BRANCH  15  16
ATOM     16  O   UNL     1       4.729   3.488  19.742  0.00  0.00    +0.000 OA
BRANCH  16  17
ATOM     17  C   UNL     1       4.952   3.899  18.438  0.00  0.00    +0.000 A 
ATOM     18  C   UNL     1       4.227   3.404  17.343  0.00  0.00    +0.000 A 
ATOM     19  C   UNL     1       4.473   3.874  16.055  0.00  0.00    +0.000 A 
ATOM     20  C   UNL     1       5.429   4.861  15.842  0.00  0.00    +0.000 A 
ATOM     21  C   UNL     1       6.161   5.387  16.912  0.00  0.00    +0.000 A 
ATOM     22  C   UNL     1       7.113   6.393  16.682  0.00  0.00    +0.000 A 
ATOM     23  C   UNL     1       7.859   6.924  17.732  0.00  0.00    +0.000 A 
ATOM     24  C   UNL     1       7.666   6.449  19.024  0.00  0.00    +0.000 A 
ATOM     25  C   UNL     1       6.715   5.454  19.270  0.00  0.00    +0.000 A 
ATOM     26  C   UNL     1       5.934   4.904  18.229  0.00  0.00    +0.000 A 
ENDBRANCH  16  17
ENDBRANCH  15  16
ENDBRANCH   2  15
TORSDOF 4
ENDMDL
MODEL 8
REMARK VINA RESULT:      -7.8      1.005      2.736
REMARK  Name = 
REMARK  4 active torsions:
REMARK  status: ('A' for Active; 'I' for Inactive)
REMARK    1  A    between atoms: C_2  and  C_3
REMARK    2  A    between atoms: C_3  and  O_4
REMARK    3  A    between atoms: O_4  and  C_5
REMARK    4  A    between atoms: N_15  and  C_16
REMARK                            x       y       z     vdW  Elec       q    Type
REMARK                         _______ _______ _______ _____ _____    ______ ____
ROOT
ATOM      1  O   UNL     1       1.572   4.737  17.627  0.00  0.00    +0.000 OA
ATOM      2  C   UNL     1       2.411   4.506  18.493  0.00  0.00    +0.000 C 
ATOM      3  N   UNL     1       2.817   5.399  19.477  0.00  0.00    +0.000 N 
ATOM      4  H   UNL     1       3.669   5.171  19.976  0.00  0.00    +0.000 HD
ENDROOT
BRANCH   3   5
ATOM      5  C   UNL     1       2.267   6.686  19.698  0.00  0.00    +0.000 A 
ATOM      6  C   UNL     1       1.595   7.041  20.888  0.00  0.00    +0.000 A 
ATOM      7  C   UNL     1       1.008   8.304  21.043  0.00  0.00    +0.000 A 
ATOM      8  C   UNL     1       1.126   9.198  20.000  0.00  0.00    +0.000 A 
ATOM      9  C   UNL     1       1.813   8.892  18.845  0.00  0.00    +0.000 A 
ATOM     10  C   UNL     1       2.406   7.644  18.680  0.00  0.00    +0.000 A 
ATOM     11  C   UNL     1       1.756  10.054  17.936  0.00  0.00    +0.000 C 
ATOM     12  O   UNL     1       0.988  11.027  18.678  0.00  0.00    +0.000 OA
ATOM     13  C   UNL     1       0.592  10.551  19.898  0.00  0.00    +0.000 C 
ATOM     14  O   UNL     1      -0.065  11.140  20.729  0.00  0.00    +0.000 OA
ENDBRANCH   3   5
BRANCH   2  15
ATOM     15  C   UNL     1       3.075   3.122  18.572  0.00  0.00    +0.000 C 
BRANCH  15  16
ATOM     16  O   UNL     1       4.496   3.147  18.545  0.00  0.00    +0.000 OA
BRANCH  16  17
ATOM     17  C   UNL     1       5.060   3.875  17.510  0.00  0.00    +0.000 A 
ATOM     18  C   UNL     1       4.679   3.722  16.168  0.00  0.00    +0.000 A 
ATOM     19  C   UNL     1       5.259   4.501  15.170  0.00  0.00    +0.000 A 
ATOM     20  C   UNL     1       6.211   5.460  15.496  0.00  0.00    +0.000 A 
ATOM     21  C   UNL     1       6.605   5.650  16.825  0.00  0.00    +0.000 A 
ATOM     22  C   UNL     1       7.556   6.632  17.141  0.00  0.00    +0.000 A 
ATOM     23  C   UNL     1       7.969   6.832  18.456  0.00  0.00    +0.000 A 
ATOM     24  C   UNL     1       7.439   6.044  19.471  0.00  0.00    +0.000 A 
ATOM     25  C   UNL     1       6.483   5.068  19.174  0.00  0.00    +0.000 A 
ATOM     26  C   UNL     1       6.035   4.850  17.852  0.00  0.00    +0.000 A 
ENDBRANCH  16  17
ENDBRANCH  15  16
ENDBRANCH   2  15
TORSDOF 4
ENDMDL
MODEL 9
REMARK VINA RESULT:      -7.8      2.820      8.732
REMARK  Name = 
REMARK  4 active torsions:
REMARK  status: ('A' for Active; 'I' for Inactive)
REMARK    1  A    between atoms: C_2  and  C_3
REMARK    2  A    between atoms: C_3  and  O_4
REMARK    3  A    between atoms: O_4  and  C_5
REMARK    4  A    between atoms: N_15  and  C_16
REMARK                            x       y       z     vdW  Elec       q    Type
REMARK                         _______ _______ _______ _____ _____    ______ ____
ROOT
ATOM      1  O   UNL     1       1.582   8.151  20.280  0.00  0.00    +0.000 OA
ATOM      2  C   UNL     1       1.933   8.388  19.127  0.00  0.00    +0.000 C 
ATOM      3  N   UNL     1       2.638   7.517  18.307  0.00  0.00    +0.000 N 
ATOM      4  H   UNL     1       3.062   7.914  17.477  0.00  0.00    +0.000 HD
ENDROOT
BRANCH   3   5
ATOM      5  C   UNL     1       2.990   6.183  18.632  0.00  0.00    +0.000 A 
ATOM      6  C   UNL     1       4.178   5.845  19.315  0.00  0.00    +0.000 A 
ATOM      7  C   UNL     1       4.522   4.509  19.560  0.00  0.00    +0.000 A 
ATOM      8  C   UNL     1       3.649   3.533  19.128  0.00  0.00    +0.000 A 
ATOM      9  C   UNL     1       2.462   3.837  18.496  0.00  0.00    +0.000 A 
ATOM     10  C   UNL     1       2.105   5.160  18.253  0.00  0.00    +0.000 A 
ATOM     11  C   UNL     1       1.763   2.579  18.167  0.00  0.00    +0.000 C 
ATOM     12  O   UNL     1       2.653   1.556  18.668  0.00  0.00    +0.000 OA
ATOM     13  C   UNL     1       3.780   2.084  19.234  0.00  0.00    +0.000 C 
ATOM     14  O   UNL     1       4.700   1.470  19.728  0.00  0.00    +0.000 OA
ENDBRANCH   3   5
BRANCH   2  15
ATOM     15  C   UNL     1       1.558   9.725  18.468  0.00  0.00    +0.000 C 
BRANCH  15  16
ATOM     16  O   UNL     1       0.290   9.731  17.827  0.00  0.00    +0.000 OA
BRANCH  16  17
ATOM     17  C   UNL     1      -0.681  10.512  18.433  0.00  0.00    +0.000 A 
ATOM     18  C   UNL     1      -0.474  11.188  19.646  0.00  0.00    +0.000 A 
ATOM     19  C   UNL     1      -1.476  11.983  20.197  0.00  0.00    +0.000 A 
ATOM     20  C   UNL     1      -2.691  12.134  19.538  0.00  0.00    +0.000 A 
ATOM     21  C   UNL     1      -2.927  11.486  18.321  0.00  0.00    +0.000 A 
ATOM     22  C   UNL     1      -4.153  11.660  17.661  0.00  0.00    +0.000 A 
ATOM     23  C   UNL     1      -4.412  11.016  16.453  0.00  0.00    +0.000 A 
ATOM     24  C   UNL     1      -3.448  10.184  15.895  0.00  0.00    +0.000 A 
ATOM     25  C   UNL     1      -2.218  10.008  16.536  0.00  0.00    +0.000 A 
ATOM     26  C   UNL     1      -1.921  10.657  17.755  0.00  0.00    +0.000 A 
ENDBRANCH  16  17
ENDBRANCH  15  16
ENDBRANCH   2  15
TORSDOF 4
ENDMDL
