MODEL 1
REMARK VINA RESULT:     -10.1      0.000      0.000
REMARK  Name = 
REMARK  5 active torsions:
REMARK  status: ('A' for Active; 'I' for Inactive)
REMARK    1  A    between atoms: C_2  and  C_4
REMARK    2  A    between atoms: C_7  and  C_8
REMARK    3  A    between atoms: C_8  and  C_9
REMARK    4  A    between atoms: C_18  and  C_19
REMARK    5  A    between atoms: C_19  and  C_20
REMARK                            x       y       z     vdW  Elec       q    Type
REMARK                         _______ _______ _______ _____ _____    ______ ____
ROOT
ATOM      1  C   UNL     1      -0.928  11.559  20.836  0.00  0.00    +0.000 C 
ATOM      2  N   UNL     1      -0.283  12.854  20.377  0.00  0.00    +0.000 NA
ATOM      3  C   UNL     1       0.011  12.868  18.961  0.00  0.00    +0.000 C 
ATOM      4  C   UNL     1       1.132  11.912  18.662  0.00  0.00    +0.000 C 
ATOM      5  N   UNL     1       0.931  10.622  19.287  0.00  0.00    +0.000 N 
ATOM      6  C   UNL     1       0.168  10.384  20.440  0.00  0.00    +0.000 A 
ATOM      7  N   UNL     1       0.452   9.107  20.792  0.00  0.00    +0.000 NA
ATOM      8  C   UNL     1       1.396   8.550  19.816  0.00  0.00    +0.000 A 
ATOM      9  C   UNL     1       2.147   7.298  19.619  0.00  0.00    +0.000 A 
ATOM     10  C   UNL     1       3.026   7.078  18.466  0.00  0.00    +0.000 A 
ATOM     11  C   UNL     1       3.061   8.111  17.510  0.00  0.00    +0.000 A 
ATOM     12  C   UNL     1       2.377   9.302  17.689  0.00  0.00    +0.000 A 
ATOM     13  C   UNL     1       1.593   9.504  18.838  0.00  0.00    +0.000 A 
ATOM     14  H   UNL     1       0.571  12.976  20.927  0.00  0.00    +0.000 HD
ENDROOT
BRANCH  10  15
ATOM     15  C   UNL     1       4.022   5.873  18.170  0.00  0.00    +0.000 C 
ATOM     16  C   UNL     1       4.685   6.090  16.749  0.00  0.00    +0.000 C 
ATOM     17  C   UNL     1       5.916   5.183  16.712  0.00  0.00    +0.000 C 
ATOM     18  C   UNL     1       6.419   5.163  18.143  0.00  0.00    +0.000 C 
ATOM     19  C   UNL     1       5.312   5.787  19.019  0.00  0.00    +0.000 C 
BRANCH  15  20
ATOM     20  C   UNL     1       3.305   4.446  18.054  0.00  0.00    +0.000 C 
ATOM     21  O   UNL     1       2.907   4.028  16.960  0.00  0.00    +0.000 OA
ATOM     22  N   UNL     1       3.210   3.609  19.163  0.00  0.00    +0.000 N 
ATOM     23  C   UNL     1       2.882   2.177  18.955  0.00  0.00    +0.000 C 
ATOM     24  C   UNL     1       1.428   1.866  19.327  0.00  0.00    +0.000 C 
ATOM     25  C   UNL     1       1.112   2.368  20.735  0.00  0.00    +0.000 C 
ATOM     26  C   UNL     1       1.491   3.843  20.882  0.00  0.00    +0.000 C 
ATOM     27  C   UNL     1       2.957   4.081  20.507  0.00  0.00    +0.000 C 
ENDBRANCH  15  20
ENDBRANCH  10  15
BRANCH   1  28
ATOM     28  C   UNL     1      -1.477  12.158  22.238  0.00  0.00    +0.000 C 
BRANCH  28  32
ATOM     29  C   UNL     1      -5.623  12.869  23.664  0.00  0.00    +0.000 A 
ATOM     30  C   UNL     1      -5.213  13.174  22.354  0.00  0.00    +0.000 A 
ATOM     31  C   UNL     1      -3.881  13.002  21.906  0.00  0.00    +0.000 A 
ATOM     32  C   UNL     1      -2.895  12.512  22.746  0.00  0.00    +0.000 A 
ATOM     33  C   UNL     1      -3.328  12.167  24.074  0.00  0.00    +0.000 A 
ATOM     34  C   UNL     1      -4.664  12.346  24.531  0.00  0.00    +0.000 A 
BRANCH  29  36
ATOM     35  N   UNL     1      -7.915  12.131  23.960  0.00  0.00    +0.000 NA
ATOM     36  C   UNL     1      -7.069  13.110  24.047  0.00  0.00    +0.000 C 
ATOM     37  N   UNL     1      -7.535  14.324  24.472  0.00  0.00    +0.000 N 
ATOM     38  H   UNL     1      -8.841  12.437  24.262  0.00  0.00    +0.000 HD
ATOM     39  H   UNL     1      -8.540  14.468  24.400  0.00  0.00    +0.000 HD
ATOM     40  H   UNL     1      -7.025  15.147  24.189  0.00  0.00    +0.000 HD
ENDBRANCH  29  36
ENDBRANCH  28  32
ENDBRANCH   1  28
TORSDOF 5
ENDMDL
MODEL 2
REMARK VINA RESULT:      -9.6      1.288      1.521
REMARK  Name = 
REMARK  5 active torsions:
REMARK  status: ('A' for Active; 'I' for Inactive)
REMARK    1  A    between atoms: C_2  and  C_4
REMARK    2  A    between atoms: C_7  and  C_8
REMARK    3  A    between atoms: C_8  and  C_9
REMARK    4  A    between atoms: C_18  and  C_19
REMARK    5  A    between atoms: C_19  and  C_20
REMARK                            x       y       z     vdW  Elec       q    Type
REMARK                         _______ _______ _______ _____ _____    ______ ____
ROOT
ATOM      1  C   UNL     1      -0.760  11.122  21.440  0.00  0.00    +0.000 C 
ATOM      2  N   UNL     1      -0.344  12.452  20.841  0.00  0.00    +0.000 NA
ATOM      3  C   UNL     1      -0.320  12.439  19.395  0.00  0.00    +0.000 C 
ATOM      4  C   UNL     1       0.815  11.581  18.909  0.00  0.00    +0.000 C 
ATOM      5  N   UNL     1       0.863  10.304  19.587  0.00  0.00    +0.000 N 
ATOM      6  C   UNL     1       0.354  10.040  20.868  0.00  0.00    +0.000 A 
ATOM      7  N   UNL     1       0.824   8.810  21.187  0.00  0.00    +0.000 NA
ATOM      8  C   UNL     1       1.621   8.306  20.063  0.00  0.00    +0.000 A 
ATOM      9  C   UNL     1       2.443   7.123  19.754  0.00  0.00    +0.000 A 
ATOM     10  C   UNL     1       3.111   6.941  18.460  0.00  0.00    +0.000 A 
ATOM     11  C   UNL     1       2.865   7.935  17.494  0.00  0.00    +0.000 A 
ATOM     12  C   UNL     1       2.111   9.063  17.774  0.00  0.00    +0.000 A 
ATOM     13  C   UNL     1       1.538   9.236  19.045  0.00  0.00    +0.000 A 
ATOM     14  H   UNL     1       0.582  12.676  21.217  0.00  0.00    +0.000 HD
ENDROOT
BRANCH  10  15
ATOM     15  C   UNL     1       4.149   5.825  18.007  0.00  0.00    +0.000 C 
ATOM     16  C   UNL     1       4.728   6.207  16.584  0.00  0.00    +0.000 C 
ATOM     17  C   UNL     1       5.999   5.375  16.406  0.00  0.00    +0.000 C 
ATOM     18  C   UNL     1       6.574   5.251  17.804  0.00  0.00    +0.000 C 
ATOM     19  C   UNL     1       5.483   5.731  18.785  0.00  0.00    +0.000 C 
BRANCH  15  20
ATOM     20  C   UNL     1       3.499   4.378  17.789  0.00  0.00    +0.000 C 
ATOM     21  O   UNL     1       3.221   3.977  16.653  0.00  0.00    +0.000 OA
ATOM     22  N   UNL     1       3.331   3.508  18.864  0.00  0.00    +0.000 N 
ATOM     23  C   UNL     1       3.076   2.072  18.591  0.00  0.00    +0.000 C 
ATOM     24  C   UNL     1       1.607   1.701  18.816  0.00  0.00    +0.000 C 
ATOM     25  C   UNL     1       1.142   2.153  20.200  0.00  0.00    +0.000 C 
ATOM     26  C   UNL     1       1.451   3.636  20.418  0.00  0.00    +0.000 C 
ATOM     27  C   UNL     1       2.936   3.934  20.188  0.00  0.00    +0.000 C 
ENDBRANCH  15  20
ENDBRANCH  10  15
BRANCH   1  28
ATOM     28  C   UNL     1      -1.096  11.721  22.907  0.00  0.00    +0.000 C 
BRANCH  28  32
ATOM     29  C   UNL     1      -4.082  14.812  24.029  0.00  0.00    +0.000 A 
ATOM     30  C   UNL     1      -2.698  15.061  24.038  0.00  0.00    +0.000 A 
ATOM     31  C   UNL     1      -1.736  14.068  23.735  0.00  0.00    +0.000 A 
ATOM     32  C   UNL     1      -2.112  12.777  23.403  0.00  0.00    +0.000 A 
ATOM     33  C   UNL     1      -3.531  12.537  23.360  0.00  0.00    +0.000 A 
ATOM     34  C   UNL     1      -4.501  13.531  23.672  0.00  0.00    +0.000 A 
BRANCH  29  36
ATOM     35  N   UNL     1      -6.297  15.789  24.187  0.00  0.00    +0.000 NA
ATOM     36  C   UNL     1      -5.026  15.942  24.390  0.00  0.00    +0.000 C 
ATOM     37  N   UNL     1      -4.598  17.132  24.911  0.00  0.00    +0.000 N 
ATOM     38  H   UNL     1      -6.805  16.622  24.489  0.00  0.00    +0.000 HD
ATOM     39  H   UNL     1      -5.241  17.916  24.822  0.00  0.00    +0.000 HD
ATOM     40  H   UNL     1      -3.648  17.414  24.720  0.00  0.00    +0.000 HD
ENDBRANCH  29  36
ENDBRANCH  28  32
ENDBRANCH   1  28
TORSDOF 5
ENDMDL
MODEL 3
REMARK VINA RESULT:      -9.5      1.744      3.456
REMARK  Name = 
REMARK  5 active torsions:
REMARK  status: ('A' for Active; 'I' for Inactive)
REMARK    1  A    between atoms: C_2  and  C_4
REMARK    2  A    between atoms: C_7  and  C_8
REMARK    3  A    between atoms: C_8  and  C_9
REMARK    4  A    between atoms: C_18  and  C_19
REMARK    5  A    between atoms: C_19  and  C_20
REMARK                            x       y       z     vdW  Elec       q    Type
REMARK                         _______ _______ _______ _____ _____    ______ ____
ROOT
ATOM      1  C   UNL     1      -0.489  11.153  21.294  0.00  0.00    +0.000 C 
ATOM      2  N   UNL     1       0.135  12.315  20.545  0.00  0.00    +0.000 NA
ATOM      3  C   UNL     1       0.175  12.110  19.115  0.00  0.00    +0.000 C 
ATOM      4  C   UNL     1       1.171  11.033  18.780  0.00  0.00    +0.000 C 
ATOM      5  N   UNL     1       1.011   9.864  19.616  0.00  0.00    +0.000 N 
ATOM      6  C   UNL     1       0.452   9.849  20.902  0.00  0.00    +0.000 A 
ATOM      7  N   UNL     1       0.722   8.615  21.390  0.00  0.00    +0.000 NA
ATOM      8  C   UNL     1       1.446   7.853  20.366  0.00  0.00    +0.000 A 
ATOM      9  C   UNL     1       2.080   6.530  20.237  0.00  0.00    +0.000 A 
ATOM     10  C   UNL     1       2.729   6.082  19.000  0.00  0.00    +0.000 A 
ATOM     11  C   UNL     1       2.652   6.967  17.908  0.00  0.00    +0.000 A 
ATOM     12  C   UNL     1       2.077   8.223  18.017  0.00  0.00    +0.000 A 
ATOM     13  C   UNL     1       1.521   8.644  19.236  0.00  0.00    +0.000 A 
ATOM     14  H   UNL     1       1.079  12.443  20.921  0.00  0.00    +0.000 HD
ENDROOT
BRANCH  10  15
ATOM     15  C   UNL     1       3.588   4.771  18.726  0.00  0.00    +0.000 C 
ATOM     16  C   UNL     1       3.123   3.633  19.724  0.00  0.00    +0.000 C 
ATOM     17  C   UNL     1       3.644   2.319  19.139  0.00  0.00    +0.000 C 
ATOM     18  C   UNL     1       3.592   2.521  17.637  0.00  0.00    +0.000 C 
ATOM     19  C   UNL     1       3.349   4.025  17.392  0.00  0.00    +0.000 C 
BRANCH  15  20
ATOM     20  C   UNL     1       5.152   4.941  19.027  0.00  0.00    +0.000 C 
ATOM     21  O   UNL     1       5.624   4.601  20.118  0.00  0.00    +0.000 OA
ATOM     22  N   UNL     1       6.021   5.376  18.029  0.00  0.00    +0.000 N 
ATOM     23  C   UNL     1       7.480   5.178  18.213  0.00  0.00    +0.000 C 
ATOM     24  C   UNL     1       8.190   6.483  18.588  0.00  0.00    +0.000 C 
ATOM     25  C   UNL     1       7.843   7.591  17.595  0.00  0.00    +0.000 C 
ATOM     26  C   UNL     1       6.326   7.727  17.443  0.00  0.00    +0.000 C 
ATOM     27  C   UNL     1       5.683   6.391  17.056  0.00  0.00    +0.000 C 
ENDBRANCH  15  20
ENDBRANCH  10  15
BRANCH   1  28
ATOM     28  C   UNL     1      -0.749  11.982  22.662  0.00  0.00    +0.000 C 
BRANCH  28  32
ATOM     29  C   UNL     1      -4.177  14.567  23.800  0.00  0.00    +0.000 A 
ATOM     30  C   UNL     1      -2.846  14.904  24.100  0.00  0.00    +0.000 A 
ATOM     31  C   UNL     1      -1.750  14.062  23.790  0.00  0.00    +0.000 A 
ATOM     32  C   UNL     1      -1.934  12.842  23.160  0.00  0.00    +0.000 A 
ATOM     33  C   UNL     1      -3.295  12.519  22.822  0.00  0.00    +0.000 A 
ATOM     34  C   UNL     1      -4.400  13.359  23.139  0.00  0.00    +0.000 A 
BRANCH  29  36
ATOM     35  N   UNL     1      -6.509  15.130  24.158  0.00  0.00    +0.000 NA
ATOM     36  C   UNL     1      -5.278  15.532  24.194  0.00  0.00    +0.000 C 
ATOM     37  N   UNL     1      -5.035  16.822  24.577  0.00  0.00    +0.000 N 
ATOM     38  H   UNL     1      -7.134  15.879  24.460  0.00  0.00    +0.000 HD
ATOM     39  H   UNL     1      -5.823  17.463  24.514  0.00  0.00    +0.000 HD
ATOM     40  H   UNL     1      -4.183  17.255  24.254  0.00  0.00    +0.000 HD
ENDBRANCH  29  36
ENDBRANCH  28  32
ENDBRANCH   1  28
TORSDOF 5
ENDMDL
MODEL 4
REMARK VINA RESULT:      -9.5      1.627      1.981
REMARK  Name = 
REMARK  5 active torsions:
REMARK  status: ('A' for Active; 'I' for Inactive)
REMARK    1  A    between atoms: C_2  and  C_4
REMARK    2  A    between atoms: C_7  and  C_8
REMARK    3  A    between atoms: C_8  and  C_9
REMARK    4  A    between atoms: C_18  and  C_19
REMARK    5  A    between atoms: C_19  and  C_20
REMARK                            x       y       z     vdW  Elec       q    Type
REMARK                         _______ _______ _______ _____ _____    ______ ____
ROOT
ATOM      1  C   UNL     1      -0.797  10.821  21.320  0.00  0.00    +0.000 C 
ATOM      2  N   UNL     1      -0.415  12.159  20.717  0.00  0.00    +0.000 NA
ATOM      3  C   UNL     1      -0.350  12.130  19.272  0.00  0.00    +0.000 C 
ATOM      4  C   UNL     1       0.829  11.310  18.829  0.00  0.00    +0.000 C 
ATOM      5  N   UNL     1       0.906  10.044  19.524  0.00  0.00    +0.000 N 
ATOM      6  C   UNL     1       0.373   9.775  20.793  0.00  0.00    +0.000 A 
ATOM      7  N   UNL     1       0.880   8.568  21.140  0.00  0.00    +0.000 NA
ATOM      8  C   UNL     1       1.726   8.081  20.044  0.00  0.00    +0.000 A 
ATOM      9  C   UNL     1       2.600   6.928  19.773  0.00  0.00    +0.000 A 
ATOM     10  C   UNL     1       3.310   6.757  18.500  0.00  0.00    +0.000 A 
ATOM     11  C   UNL     1       3.054   7.730  17.515  0.00  0.00    +0.000 A 
ATOM     12  C   UNL     1       2.250   8.831  17.761  0.00  0.00    +0.000 A 
ATOM     13  C   UNL     1       1.636   8.996  19.014  0.00  0.00    +0.000 A 
ATOM     14  H   UNL     1       0.491  12.421  21.116  0.00  0.00    +0.000 HD
ENDROOT
BRANCH  10  15
ATOM     15  C   UNL     1       4.402   5.675  18.089  0.00  0.00    +0.000 C 
ATOM     16  C   UNL     1       5.065   6.108  16.718  0.00  0.00    +0.000 C 
ATOM     17  C   UNL     1       6.364   5.308  16.604  0.00  0.00    +0.000 C 
ATOM     18  C   UNL     1       6.848   5.159  18.034  0.00  0.00    +0.000 C 
ATOM     19  C   UNL     1       5.683   5.590  18.952  0.00  0.00    +0.000 C 
BRANCH  15  20
ATOM     20  C   UNL     1       3.801   4.221  17.792  0.00  0.00    +0.000 C 
ATOM     21  O   UNL     1       3.673   3.818  16.630  0.00  0.00    +0.000 OA
ATOM     22  N   UNL     1       3.510   3.348  18.838  0.00  0.00    +0.000 N 
ATOM     23  C   UNL     1       3.309   1.910  18.536  0.00  0.00    +0.000 C 
ATOM     24  C   UNL     1       1.827   1.521  18.575  0.00  0.00    +0.000 C 
ATOM     25  C   UNL     1       1.187   1.966  19.888  0.00  0.00    +0.000 C 
ATOM     26  C   UNL     1       1.449   3.452  20.143  0.00  0.00    +0.000 C 
ATOM     27  C   UNL     1       2.947   3.769  20.102  0.00  0.00    +0.000 C 
ENDBRANCH  15  20
ENDBRANCH  10  15
BRANCH   1  28
ATOM     28  C   UNL     1      -1.196  11.423  22.771  0.00  0.00    +0.000 C 
BRANCH  28  32
ATOM     29  C   UNL     1      -3.115  15.119  24.315  0.00  0.00    +0.000 A 
ATOM     30  C   UNL     1      -3.829  13.925  24.115  0.00  0.00    +0.000 A 
ATOM     31  C   UNL     1      -3.240  12.757  23.572  0.00  0.00    +0.000 A 
ATOM     32  C   UNL     1      -1.904  12.727  23.208  0.00  0.00    +0.000 A 
ATOM     33  C   UNL     1      -1.169  13.940  23.449  0.00  0.00    +0.000 A 
ATOM     34  C   UNL     1      -1.760  15.119  23.986  0.00  0.00    +0.000 A 
BRANCH  29  36
ATOM     35  N   UNL     1      -3.160  17.316  25.342  0.00  0.00    +0.000 NA
ATOM     36  C   UNL     1      -3.848  16.318  24.884  0.00  0.00    +0.000 C 
ATOM     37  N   UNL     1      -5.212  16.394  24.950  0.00  0.00    +0.000 N 
ATOM     38  H   UNL     1      -3.785  18.051  25.678  0.00  0.00    +0.000 HD
ATOM     39  H   UNL     1      -5.591  17.067  25.614  0.00  0.00    +0.000 HD
ATOM     40  H   UNL     1      -5.730  15.529  24.969  0.00  0.00    +0.000 HD
ENDBRANCH  29  36
ENDBRANCH  28  32
ENDBRANCH   1  28
TORSDOF 5
ENDMDL
MODEL 5
REMARK VINA RESULT:      -9.3      2.617      4.390
REMARK  Name = 
REMARK  5 active torsions:
REMARK  status: ('A' for Active; 'I' for Inactive)
REMARK    1  A    between atoms: C_2  and  C_4
REMARK    2  A    between atoms: C_7  and  C_8
REMARK    3  A    between atoms: C_8  and  C_9
REMARK    4  A    between atoms: C_18  and  C_19
REMARK    5  A    between atoms: C_19  and  C_20
REMARK                            x       y       z     vdW  Elec       q    Type
REMARK                         _______ _______ _______ _____ _____    ______ ____
ROOT
ATOM      1  C   UNL     1      -0.126  11.295  20.831  0.00  0.00    +0.000 C 
ATOM      2  N   UNL     1      -1.073  10.923  21.957  0.00  0.00    +0.000 NA
ATOM      3  C   UNL     1      -0.433  10.159  23.005  0.00  0.00    +0.000 C 
ATOM      4  C   UNL     1      -0.091   8.784  22.500  0.00  0.00    +0.000 C 
ATOM      5  N   UNL     1       0.563   8.823  21.211  0.00  0.00    +0.000 N 
ATOM      6  C   UNL     1       0.435   9.846  20.260  0.00  0.00    +0.000 A 
ATOM      7  N   UNL     1       1.014   9.359  19.137  0.00  0.00    +0.000 NA
ATOM      8  C   UNL     1       1.526   8.013  19.419  0.00  0.00    +0.000 A 
ATOM      9  C   UNL     1       2.184   6.921  18.681  0.00  0.00    +0.000 A 
ATOM     10  C   UNL     1       2.584   5.663  19.322  0.00  0.00    +0.000 A 
ATOM     11  C   UNL     1       2.367   5.582  20.711  0.00  0.00    +0.000 A 
ATOM     12  C   UNL     1       1.732   6.592  21.417  0.00  0.00    +0.000 A 
ATOM     13  C   UNL     1       1.305   7.757  20.758  0.00  0.00    +0.000 A 
ATOM     14  H   UNL     1      -1.843  10.393  21.539  0.00  0.00    +0.000 HD
ENDROOT
BRANCH  10  15
ATOM     15  C   UNL     1       3.154   4.331  18.667  0.00  0.00    +0.000 C 
ATOM     16  C   UNL     1       2.727   3.094  19.558  0.00  0.00    +0.000 C 
ATOM     17  C   UNL     1       2.907   1.856  18.678  0.00  0.00    +0.000 C 
ATOM     18  C   UNL     1       2.585   2.333  17.275  0.00  0.00    +0.000 C 
ATOM     19  C   UNL     1       2.537   3.875  17.323  0.00  0.00    +0.000 C 
BRANCH  15  20
ATOM     20  C   UNL     1       4.753   4.253  18.629  0.00  0.00    +0.000 C 
ATOM     21  O   UNL     1       5.373   3.617  19.489  0.00  0.00    +0.000 OA
ATOM     22  N   UNL     1       5.465   4.814  17.571  0.00  0.00    +0.000 N 
ATOM     23  C   UNL     1       6.881   4.421  17.372  0.00  0.00    +0.000 C 
ATOM     24  C   UNL     1       7.848   5.515  17.836  0.00  0.00    +0.000 C 
ATOM     25  C   UNL     1       7.490   6.857  17.199  0.00  0.00    +0.000 C 
ATOM     26  C   UNL     1       6.013   7.190  17.429  0.00  0.00    +0.000 C 
ATOM     27  C   UNL     1       5.104   6.061  16.933  0.00  0.00    +0.000 C 
ENDBRANCH  15  20
ENDBRANCH  10  15
BRANCH   1  28
ATOM     28  C   UNL     1      -1.077  12.454  20.217  0.00  0.00    +0.000 C 
BRANCH  28  32
ATOM     29  C   UNL     1      -5.201  12.149  18.595  0.00  0.00    +0.000 A 
ATOM     30  C   UNL     1      -4.090  11.588  17.942  0.00  0.00    +0.000 A 
ATOM     31  C   UNL     1      -2.764  11.726  18.421  0.00  0.00    +0.000 A 
ATOM     32  C   UNL     1      -2.488  12.429  19.582  0.00  0.00    +0.000 A 
ATOM     33  C   UNL     1      -3.633  12.970  20.267  0.00  0.00    +0.000 A 
ATOM     34  C   UNL     1      -4.965  12.840  19.783  0.00  0.00    +0.000 A 
BRANCH  29  36
ATOM     35  N   UNL     1      -7.376  11.079  18.498  0.00  0.00    +0.000 NA
ATOM     36  C   UNL     1      -6.575  11.959  17.984  0.00  0.00    +0.000 C 
ATOM     37  N   UNL     1      -7.011  12.667  16.899  0.00  0.00    +0.000 N 
ATOM     38  H   UNL     1      -8.264  11.073  17.994  0.00  0.00    +0.000 HD
ATOM     39  H   UNL     1      -7.790  12.261  16.383  0.00  0.00    +0.000 HD
ATOM     40  H   UNL     1      -6.316  13.046  16.274  0.00  0.00    +0.000 HD
ENDBRANCH  29  36
ENDBRANCH  28  32
ENDBRANCH   1  28
TORSDOF 5
ENDMDL
MODEL 6
REMARK VINA RESULT:      -9.2      1.219      3.077
REMARK  Name = 
REMARK  5 active torsions:
REMARK  status: ('A' for Active; 'I' for Inactive)
REMARK    1  A    between atoms: C_2  and  C_4
REMARK    2  A    between atoms: C_7  and  C_8
REMARK    3  A    between atoms: C_8  and  C_9
REMARK    4  A    between atoms: C_18  and  C_19
REMARK    5  A    between atoms: C_19  and  C_20
REMARK                            x       y       z     vdW  Elec       q    Type
REMARK                         _______ _______ _______ _____ _____    ______ ____
ROOT
ATOM      1  C   UNL     1      -0.630  12.195  20.153  0.00  0.00    +0.000 C 
ATOM      2  N   UNL     1       0.425  13.209  19.751  0.00  0.00    +0.000 NA
ATOM      3  C   UNL     1       0.988  12.953  18.444  0.00  0.00    +0.000 C 
ATOM      4  C   UNL     1       1.837  11.712  18.486  0.00  0.00    +0.000 C 
ATOM      5  N   UNL     1       1.167  10.614  19.149  0.00  0.00    +0.000 N 
ATOM      6  C   UNL     1       0.154  10.738  20.112  0.00  0.00    +0.000 A 
ATOM      7  N   UNL     1      -0.002   9.492  20.621  0.00  0.00    +0.000 NA
ATOM      8  C   UNL     1       0.925   8.585  19.934  0.00  0.00    +0.000 A 
ATOM      9  C   UNL     1       1.325   7.170  20.015  0.00  0.00    +0.000 A 
ATOM     10  C   UNL     1       2.321   6.577  19.115  0.00  0.00    +0.000 A 
ATOM     11  C   UNL     1       2.829   7.426  18.113  0.00  0.00    +0.000 A 
ATOM     12  C   UNL     1       2.479   8.764  18.035  0.00  0.00    +0.000 A 
ATOM     13  C   UNL     1       1.569   9.314  18.954  0.00  0.00    +0.000 A 
ATOM     14  H   UNL     1       1.153  13.186  20.471  0.00  0.00    +0.000 HD
ENDROOT
BRANCH  10  15
ATOM     15  C   UNL     1       2.983   5.131  19.151  0.00  0.00    +0.000 C 
ATOM     16  C   UNL     1       2.789   4.512  20.595  0.00  0.00    +0.000 C 
ATOM     17  C   UNL     1       3.034   3.009  20.448  0.00  0.00    +0.000 C 
ATOM     18  C   UNL     1       2.530   2.674  19.057  0.00  0.00    +0.000 C 
ATOM     19  C   UNL     1       2.304   4.014  18.324  0.00  0.00    +0.000 C 
BRANCH  15  20
ATOM     20  C   UNL     1       4.569   5.133  18.935  0.00  0.00    +0.000 C 
ATOM     21  O   UNL     1       5.325   5.549  19.821  0.00  0.00    +0.000 OA
ATOM     22  N   UNL     1       5.129   4.573  17.789  0.00  0.00    +0.000 N 
ATOM     23  C   UNL     1       6.579   4.261  17.779  0.00  0.00    +0.000 C 
ATOM     24  C   UNL     1       7.376   5.282  16.961  0.00  0.00    +0.000 C 
ATOM     25  C   UNL     1       6.775   5.444  15.566  0.00  0.00    +0.000 C 
ATOM     26  C   UNL     1       5.277   5.747  15.653  0.00  0.00    +0.000 C 
ATOM     27  C   UNL     1       4.541   4.683  16.472  0.00  0.00    +0.000 C 
ENDBRANCH  15  20
ENDBRANCH  10  15
BRANCH   1  28
ATOM     28  C   UNL     1      -1.259  13.101  21.339  0.00  0.00    +0.000 C 
BRANCH  28  32
ATOM     29  C   UNL     1      -5.250  12.880  23.276  0.00  0.00    +0.000 A 
ATOM     30  C   UNL     1      -5.093  13.082  21.894  0.00  0.00    +0.000 A 
ATOM     31  C   UNL     1      -3.826  13.209  21.275  0.00  0.00    +0.000 A 
ATOM     32  C   UNL     1      -2.654  13.133  22.009  0.00  0.00    +0.000 A 
ATOM     33  C   UNL     1      -2.820  12.889  23.417  0.00  0.00    +0.000 A 
ATOM     34  C   UNL     1      -4.092  12.770  24.045  0.00  0.00    +0.000 A 
BRANCH  29  36
ATOM     35  N   UNL     1      -7.083  13.713  24.629  0.00  0.00    +0.000 NA
ATOM     36  C   UNL     1      -6.653  12.779  23.841  0.00  0.00    +0.000 C 
ATOM     37  N   UNL     1      -7.492  11.734  23.568  0.00  0.00    +0.000 N 
ATOM     38  H   UNL     1      -8.043  13.518  24.918  0.00  0.00    +0.000 HD
ATOM     39  H   UNL     1      -8.261  11.595  24.220  0.00  0.00    +0.000 HD
ATOM     40  H   UNL     1      -7.075  10.855  23.300  0.00  0.00    +0.000 HD
ENDBRANCH  29  36
ENDBRANCH  28  32
ENDBRANCH   1  28
TORSDOF 5
ENDMDL
MODEL 7
REMARK VINA RESULT:      -9.1      3.102     11.049
REMARK  Name = 
REMARK  5 active torsions:
REMARK  status: ('A' for Active; 'I' for Inactive)
REMARK    1  A    between atoms: C_2  and  C_4
REMARK    2  A    between atoms: C_7  and  C_8
REMARK    3  A    between atoms: C_8  and  C_9
REMARK    4  A    between atoms: C_18  and  C_19
REMARK    5  A    between atoms: C_19  and  C_20
REMARK                            x       y       z     vdW  Elec       q    Type
REMARK                         _______ _______ _______ _____ _____    ______ ____
ROOT
ATOM      1  C   UNL     1       1.858  10.554  18.592  0.00  0.00    +0.000 C 
ATOM      2  N   UNL     1       2.363  11.562  17.577  0.00  0.00    +0.000 NA
ATOM      3  C   UNL     1       2.610  12.867  18.149  0.00  0.00    +0.000 C 
ATOM      4  C   UNL     1       1.306  13.518  18.520  0.00  0.00    +0.000 C 
ATOM      5  N   UNL     1       0.438  12.623  19.253  0.00  0.00    +0.000 N 
ATOM      6  C   UNL     1       0.465  11.222  19.186  0.00  0.00    +0.000 A 
ATOM      7  N   UNL     1      -0.654  10.817  19.834  0.00  0.00    +0.000 NA
ATOM      8  C   UNL     1      -1.366  12.002  20.326  0.00  0.00    +0.000 A 
ATOM      9  C   UNL     1      -2.626  12.302  21.027  0.00  0.00    +0.000 A 
ATOM     10  C   UNL     1      -3.025  13.668  21.385  0.00  0.00    +0.000 A 
ATOM     11  C   UNL     1      -2.097  14.681  21.081  0.00  0.00    +0.000 A 
ATOM     12  C   UNL     1      -0.916  14.419  20.405  0.00  0.00    +0.000 A 
ATOM     13  C   UNL     1      -0.595  13.106  20.021  0.00  0.00    +0.000 A 
ATOM     14  H   UNL     1       1.661  11.618  16.834  0.00  0.00    +0.000 HD
ENDROOT
BRANCH  10  15
ATOM     15  C   UNL     1      -4.398  14.193  21.994  0.00  0.00    +0.000 C 
ATOM     16  C   UNL     1      -4.173  14.582  23.511  0.00  0.00    +0.000 C 
ATOM     17  C   UNL     1      -5.358  15.467  23.902  0.00  0.00    +0.000 C 
ATOM     18  C   UNL     1      -5.702  16.227  22.636  0.00  0.00    +0.000 C 
ATOM     19  C   UNL     1      -4.933  15.551  21.481  0.00  0.00    +0.000 C 
BRANCH  15  20
ATOM     20  C   UNL     1      -5.557  13.090  22.040  0.00  0.00    +0.000 C 
ATOM     21  O   UNL     1      -5.790  12.464  23.081  0.00  0.00    +0.000 OA
ATOM     22  N   UNL     1      -6.389  12.890  20.941  0.00  0.00    +0.000 N 
ATOM     23  C   UNL     1      -7.657  12.144  21.128  0.00  0.00    +0.000 C 
ATOM     24  C   UNL     1      -7.565  10.716  20.580  0.00  0.00    +0.000 C 
ATOM     25  C   UNL     1      -7.067  10.723  19.136  0.00  0.00    +0.000 C 
ATOM     26  C   UNL     1      -5.767  11.523  19.015  0.00  0.00    +0.000 C 
ATOM     27  C   UNL     1      -5.933  12.941  19.569  0.00  0.00    +0.000 C 
ENDBRANCH  15  20
ENDBRANCH  10  15
BRANCH   1  28
ATOM     28  C   UNL     1       2.183   9.254  17.682  0.00  0.00    +0.000 C 
BRANCH  28  32
ATOM     29  C   UNL     1       3.990   5.372  18.862  0.00  0.00    +0.000 A 
ATOM     30  C   UNL     1       4.410   6.085  17.727  0.00  0.00    +0.000 A 
ATOM     31  C   UNL     1       3.805   7.296  17.311  0.00  0.00    +0.000 A 
ATOM     32  C   UNL     1       2.751   7.854  18.016  0.00  0.00    +0.000 A 
ATOM     33  C   UNL     1       2.349   7.139  19.198  0.00  0.00    +0.000 A 
ATOM     34  C   UNL     1       2.949   5.917  19.614  0.00  0.00    +0.000 A 
BRANCH  29  36
ATOM     35  N   UNL     1       5.929   3.914  18.851  0.00  0.00    +0.000 NA
ATOM     36  C   UNL     1       4.693   4.074  19.207  0.00  0.00    +0.000 C 
ATOM     37  N   UNL     1       4.079   3.048  19.870  0.00  0.00    +0.000 N 
ATOM     38  H   UNL     1       6.271   3.004  19.161  0.00  0.00    +0.000 HD
ATOM     39  H   UNL     1       4.512   2.131  19.776  0.00  0.00    +0.000 HD
ATOM     40  H   UNL     1       3.074   2.986  19.812  0.00  0.00    +0.000 HD
ENDBRANCH  29  36
ENDBRANCH  28  32
ENDBRANCH   1  28
TORSDOF 5
ENDMDL
MODEL 8
REMARK VINA RESULT:      -9.0      3.182      5.871
REMARK  Name = 
REMARK  5 active torsions:
REMARK  status: ('A' for Active; 'I' for Inactive)
REMARK    1  A    between atoms: C_2  and  C_4
REMARK    2  A    between atoms: C_7  and  C_8
REMARK    3  A    between atoms: C_8  and  C_9
REMARK    4  A    between atoms: C_18  and  C_19
REMARK    5  A    between atoms: C_19  and  C_20
REMARK                            x       y       z     vdW  Elec       q    Type
REMARK                         _______ _______ _______ _____ _____    ______ ____
ROOT
ATOM      1  C   UNL     1       0.186  11.313  21.116  0.00  0.00    +0.000 C 
ATOM      2  N   UNL     1      -1.010  10.937  21.970  0.00  0.00    +0.000 NA
ATOM      3  C   UNL     1      -0.688   9.977  23.003  0.00  0.00    +0.000 C 
ATOM      4  C   UNL     1      -0.392   8.639  22.384  0.00  0.00    +0.000 C 
ATOM      5  N   UNL     1       0.520   8.745  21.266  0.00  0.00    +0.000 N 
ATOM      6  C   UNL     1       0.702   9.882  20.465  0.00  0.00    +0.000 A 
ATOM      7  N   UNL     1       1.452   9.460  19.419  0.00  0.00    +0.000 NA
ATOM      8  C   UNL     1       1.751   8.035  19.600  0.00  0.00    +0.000 A 
ATOM      9  C   UNL     1       2.432   6.962  18.856  0.00  0.00    +0.000 A 
ATOM     10  C   UNL     1       2.556   5.596  19.377  0.00  0.00    +0.000 A 
ATOM     11  C   UNL     1       2.044   5.379  20.670  0.00  0.00    +0.000 A 
ATOM     12  C   UNL     1       1.382   6.372  21.375  0.00  0.00    +0.000 A 
ATOM     13  C   UNL     1       1.226   7.653  20.819  0.00  0.00    +0.000 A 
ATOM     14  H   UNL     1      -1.725  10.565  21.339  0.00  0.00    +0.000 HD
ENDROOT
BRANCH  10  15
ATOM     15  C   UNL     1       3.111   4.288  18.661  0.00  0.00    +0.000 C 
ATOM     16  C   UNL     1       2.686   3.019  19.507  0.00  0.00    +0.000 C 
ATOM     17  C   UNL     1       2.849   1.816  18.576  0.00  0.00    +0.000 C 
ATOM     18  C   UNL     1       2.515   2.351  17.197  0.00  0.00    +0.000 C 
ATOM     19  C   UNL     1       2.476   3.890  17.307  0.00  0.00    +0.000 C 
BRANCH  15  20
ATOM     20  C   UNL     1       4.709   4.203  18.602  0.00  0.00    +0.000 C 
ATOM     21  O   UNL     1       5.338   3.577  19.463  0.00  0.00    +0.000 OA
ATOM     22  N   UNL     1       5.408   4.745  17.526  0.00  0.00    +0.000 N 
ATOM     23  C   UNL     1       6.819   4.342  17.313  0.00  0.00    +0.000 C 
ATOM     24  C   UNL     1       7.797   5.440  17.746  0.00  0.00    +0.000 C 
ATOM     25  C   UNL     1       7.435   6.774  17.095  0.00  0.00    +0.000 C 
ATOM     26  C   UNL     1       5.964   7.116  17.341  0.00  0.00    +0.000 C 
ATOM     27  C   UNL     1       5.043   5.984  16.874  0.00  0.00    +0.000 C 
ENDBRANCH  15  20
ENDBRANCH  10  15
BRANCH   1  28
ATOM     28  C   UNL     1      -0.489  12.651  20.501  0.00  0.00    +0.000 C 
BRANCH  28  32
ATOM     29  C   UNL     1       1.156  16.254  18.490  0.00  0.00    +0.000 A 
ATOM     30  C   UNL     1       1.978  15.243  19.017  0.00  0.00    +0.000 A 
ATOM     31  C   UNL     1       1.466  14.117  19.707  0.00  0.00    +0.000 A 
ATOM     32  C   UNL     1       0.105  13.947  19.900  0.00  0.00    +0.000 A 
ATOM     33  C   UNL     1      -0.733  14.967  19.326  0.00  0.00    +0.000 A 
ATOM     34  C   UNL     1      -0.222  16.104  18.639  0.00  0.00    +0.000 A 
BRANCH  29  36
ATOM     35  N   UNL     1       1.526  18.631  18.175  0.00  0.00    +0.000 NA
ATOM     36  C   UNL     1       1.808  17.427  17.786  0.00  0.00    +0.000 C 
ATOM     37  N   UNL     1       2.678  17.279  16.741  0.00  0.00    +0.000 N 
ATOM     38  H   UNL     1       2.047  19.312  17.621  0.00  0.00    +0.000 HD
ATOM     39  H   UNL     1       2.808  18.096  16.148  0.00  0.00    +0.000 HD
ATOM     40  H   UNL     1       2.613  16.434  16.193  0.00  0.00    +0.000 HD
ENDBRANCH  29  36
ENDBRANCH  28  32
ENDBRANCH   1  28
TORSDOF 5
ENDMDL
MODEL 9
REMARK VINA RESULT:      -9.0      1.747      3.418
REMARK  Name = 
REMARK  5 active torsions:
REMARK  status: ('A' for Active; 'I' for Inactive)
REMARK    1  A    between atoms: C_2  and  C_4
REMARK    2  A    between atoms: C_7  and  C_8
REMARK    3  A    between atoms: C_8  and  C_9
REMARK    4  A    between atoms: C_18  and  C_19
REMARK    5  A    between atoms: C_19  and  C_20
REMARK                            x       y       z     vdW  Elec       q    Type
REMARK                         _______ _______ _______ _____ _____    ______ ____
ROOT
ATOM      1  C   UNL     1      -0.624  11.325  21.351  0.00  0.00    +0.000 C 
ATOM      2  N   UNL     1       0.157  12.447  20.693  0.00  0.00    +0.000 NA
ATOM      3  C   UNL     1       0.344  12.250  19.273  0.00  0.00    +0.000 C 
ATOM      4  C   UNL     1       1.295  11.109  19.035  0.00  0.00    +0.000 C 
ATOM      5  N   UNL     1       0.964   9.947  19.830  0.00  0.00    +0.000 N 
ATOM      6  C   UNL     1       0.265   9.963  21.046  0.00  0.00    +0.000 A 
ATOM      7  N   UNL     1       0.394   8.709  21.543  0.00  0.00    +0.000 NA
ATOM      8  C   UNL     1       1.175   7.906  20.594  0.00  0.00    +0.000 A 
ATOM      9  C   UNL     1       1.728   6.543  20.517  0.00  0.00    +0.000 A 
ATOM     10  C   UNL     1       2.480   6.061  19.353  0.00  0.00    +0.000 A 
ATOM     11  C   UNL     1       2.585   6.957  18.272  0.00  0.00    +0.000 A 
ATOM     12  C   UNL     1       2.088   8.248  18.336  0.00  0.00    +0.000 A 
ATOM     13  C   UNL     1       1.429   8.699  19.492  0.00  0.00    +0.000 A 
ATOM     14  H   UNL     1       1.060  12.507  21.173  0.00  0.00    +0.000 HD
ENDROOT
BRANCH  10  15
ATOM     15  C   UNL     1       3.273   4.696  19.157  0.00  0.00    +0.000 C 
ATOM     16  C   UNL     1       3.231   3.877  20.511  0.00  0.00    +0.000 C 
ATOM     17  C   UNL     1       3.603   2.438  20.148  0.00  0.00    +0.000 C 
ATOM     18  C   UNL     1       3.044   2.239  18.752  0.00  0.00    +0.000 C 
ATOM     19  C   UNL     1       2.648   3.634  18.222  0.00  0.00    +0.000 C 
BRANCH  15  20
ATOM     20  C   UNL     1       4.835   4.885  18.862  0.00  0.00    +0.000 C 
ATOM     21  O   UNL     1       5.592   5.328  19.734  0.00  0.00    +0.000 OA
ATOM     22  N   UNL     1       5.385   4.458  17.656  0.00  0.00    +0.000 N 
ATOM     23  C   UNL     1       6.857   4.308  17.552  0.00  0.00    +0.000 C 
ATOM     24  C   UNL     1       7.493   5.457  16.762  0.00  0.00    +0.000 C 
ATOM     25  C   UNL     1       6.799   5.633  15.413  0.00  0.00    +0.000 C 
ATOM     26  C   UNL     1       5.285   5.764  15.595  0.00  0.00    +0.000 C 
ATOM     27  C   UNL     1       4.714   4.579  16.380  0.00  0.00    +0.000 C 
ENDBRANCH  15  20
ENDBRANCH  10  15
BRANCH   1  28
ATOM     28  C   UNL     1      -0.978  12.160  22.693  0.00  0.00    +0.000 C 
BRANCH  28  32
ATOM     29  C   UNL     1      -4.031  15.136  23.941  0.00  0.00    +0.000 A 
ATOM     30  C   UNL     1      -4.362  13.815  23.593  0.00  0.00    +0.000 A 
ATOM     31  C   UNL     1      -3.405  12.874  23.142  0.00  0.00    +0.000 A 
ATOM     32  C   UNL     1      -2.066  13.209  23.022  0.00  0.00    +0.000 A 
ATOM     33  C   UNL     1      -1.726  14.552  23.414  0.00  0.00    +0.000 A 
ATOM     34  C   UNL     1      -2.688  15.503  23.860  0.00  0.00    +0.000 A 
BRANCH  29  36
ATOM     35  N   UNL     1      -6.326  15.919  23.898  0.00  0.00    +0.000 NA
ATOM     36  C   UNL     1      -5.137  16.068  24.392  0.00  0.00    +0.000 C 
ATOM     37  N   UNL     1      -4.938  17.078  25.293  0.00  0.00    +0.000 N 
ATOM     38  H   UNL     1      -6.965  16.606  24.302  0.00  0.00    +0.000 HD
ATOM     39  H   UNL     1      -5.633  17.823  25.290  0.00  0.00    +0.000 HD
ATOM     40  H   UNL     1      -4.004  17.447  25.386  0.00  0.00    +0.000 HD
ENDBRANCH  29  36
ENDBRANCH  28  32
ENDBRANCH   1  28
TORSDOF 5
ENDMDL
