MODEL 1
REMARK VINA RESULT:      -6.4      0.000      0.000
REMARK  Name = 
REMARK  16 active torsions:
REMARK  status: ('A' for Active; 'I' for Inactive)
REMARK    1  A    between atoms: C_1  and  O_2
REMARK    2  A    between atoms: O_2  and  C_3
REMARK    3  A    between atoms: C_3  and  C_4
REMARK    4  A    between atoms: C_4  and  N_5
REMARK    5  A    between atoms: N_5  and  C_6
REMARK    6  A    between atoms: N_5  and  C_10
REMARK    7  A    between atoms: C_6  and  C_7
REMARK    8  A    between atoms: C_7  and  O_8
REMARK    9  A    between atoms: O_8  and  C_9
REMARK   10  A    between atoms: C_12  and  C_13
REMARK   11  A    between atoms: C_18  and  C_19
REMARK   12  A    between atoms: N_25  and  C_26
REMARK   13  A    between atoms: C_26  and  C_27
REMARK   14  A    between atoms: C_27  and  C_28
REMARK   15  A    between atoms: C_28  and  N_29
REMARK   16  A    between atoms: C_34  and  C_35
REMARK                            x       y       z     vdW  Elec       q    Type
REMARK                         _______ _______ _______ _____ _____    ______ ____
ROOT
ATOM      1  C   UNL     1       0.547  10.447  19.437  0.00  0.00    +0.000 A 
ATOM      2  N   UNL     1      -0.033  10.506  20.679  0.00  0.00    +0.000 NA
ATOM      3  C   UNL     1       0.135   9.525  21.586  0.00  0.00    +0.000 A 
ATOM      4  C   UNL     1      -0.507   9.702  22.927  0.00  0.00    +0.000 C 
ATOM      5  N   UNL     1       0.861   8.420  21.415  0.00  0.00    +0.000 NA
ATOM      6  C   UNL     1       1.412   8.359  20.191  0.00  0.00    +0.000 A 
ATOM      7  C   UNL     1       1.311   9.278  19.169  0.00  0.00    +0.000 A 
ATOM      8  N   UNL     1       2.050   8.825  18.077  0.00  0.00    +0.000 NA
ATOM      9  C   UNL     1       2.573   7.654  18.426  0.00  0.00    +0.000 A 
ATOM     10  N   UNL     1       2.232   7.369  19.740  0.00  0.00    +0.000 N 
ENDROOT
BRANCH   9  11
ATOM     11  C   UNL     1       3.474   6.843  17.583  0.00  0.00    +0.000 A 
ATOM     12  C   UNL     1       4.523   7.460  16.889  0.00  0.00    +0.000 A 
ATOM     13  C   UNL     1       5.477   6.697  16.201  0.00  0.00    +0.000 A 
ATOM     14  C   UNL     1       5.398   5.307  16.202  0.00  0.00    +0.000 A 
ATOM     15  C   UNL     1       4.330   4.681  16.837  0.00  0.00    +0.000 A 
ATOM     16  C   UNL     1       3.357   5.448  17.485  0.00  0.00    +0.000 A 
ENDBRANCH   9  11
BRANCH   1  17
ATOM     17  N   UNL     1       0.371  11.546  18.561  0.00  0.00    +0.000 N 
BRANCH  17  18
ATOM     18  C   UNL     1       1.451  12.554  18.638  0.00  0.00    +0.000 C 
BRANCH  18  19
ATOM     19  C   UNL     1       1.000  13.784  19.456  0.00  0.00    +0.000 C 
BRANCH  19  21
ATOM     20  C   UNL     1       1.695  16.023  19.446  0.00  0.00    +0.000 C 
ATOM     21  O   UNL     1       1.062  14.993  18.688  0.00  0.00    +0.000 OA
ENDBRANCH  19  21
ENDBRANCH  18  19
ENDBRANCH  17  18
BRANCH  17  22
ATOM     22  C   UNL     1      -1.042  11.945  18.434  0.00  0.00    +0.000 C 
BRANCH  22  23
ATOM     23  C   UNL     1      -1.932  11.077  17.527  0.00  0.00    +0.000 C 
BRANCH  23  24
ATOM     24  O   UNL     1      -3.239  10.802  18.039  0.00  0.00    +0.000 OA
ATOM     25  C   UNL     1      -4.260  11.573  17.421  0.00  0.00    +0.000 C 
ENDBRANCH  23  24
ENDBRANCH  22  23
ENDBRANCH  17  22
ENDBRANCH   1  17
BRANCH  10  26
ATOM     26  C   UNL     1       2.658   6.278  20.596  0.00  0.00    +0.000 C 
BRANCH  26  27
ATOM     27  C   UNL     1       1.565   5.293  20.999  0.00  0.00    +0.000 C 
BRANCH  27  28
ATOM     28  C   UNL     1       1.067   4.408  19.843  0.00  0.00    +0.000 C 
BRANCH  28  29
ATOM     29  N   UNL     1       1.364   2.997  20.125  0.00  0.00    +0.000 NA
ATOM     30  C   UNL     1       1.121   2.094  18.986  0.00  0.00    +0.000 C 
ATOM     31  C   UNL     1       2.267   2.007  17.981  0.00  0.00    +0.000 C 
ATOM     32  C   UNL     1       3.548   1.594  18.686  0.00  0.00    +0.000 C 
ATOM     33  C   UNL     1       3.856   2.595  19.791  0.00  0.00    +0.000 C 
ATOM     34  C   UNL     1       2.679   2.793  20.765  0.00  0.00    +0.000 C 
ATOM     35  C   UNL     1       2.562   1.618  21.745  0.00  0.00    +0.000 C 
ENDBRANCH  28  29
ENDBRANCH  27  28
ENDBRANCH  26  27
ENDBRANCH  10  26
TORSDOF 12
ENDMDL
MODEL 2
REMARK VINA RESULT:      -6.4      3.231      8.800
REMARK  Name = 
REMARK  16 active torsions:
REMARK  status: ('A' for Active; 'I' for Inactive)
REMARK    1  A    between atoms: C_1  and  O_2
REMARK    2  A    between atoms: O_2  and  C_3
REMARK    3  A    between atoms: C_3  and  C_4
REMARK    4  A    between atoms: C_4  and  N_5
REMARK    5  A    between atoms: N_5  and  C_6
REMARK    6  A    between atoms: N_5  and  C_10
REMARK    7  A    between atoms: C_6  and  C_7
REMARK    8  A    between atoms: C_7  and  O_8
REMARK    9  A    between atoms: O_8  and  C_9
REMARK   10  A    between atoms: C_12  and  C_13
REMARK   11  A    between atoms: C_18  and  C_19
REMARK   12  A    between atoms: N_25  and  C_26
REMARK   13  A    between atoms: C_26  and  C_27
REMARK   14  A    between atoms: C_27  and  C_28
REMARK   15  A    between atoms: C_28  and  N_29
REMARK   16  A    between atoms: C_34  and  C_35
REMARK                            x       y       z     vdW  Elec       q    Type
REMARK                         _______ _______ _______ _____ _____    ______ ____
ROOT
ATOM      1  C   UNL     1       3.068   6.096  18.606  0.00  0.00    +0.000 A 
ATOM      2  N   UNL     1       3.022   5.113  19.562  0.00  0.00    +0.000 NA
ATOM      3  C   UNL     1       2.328   5.271  20.706  0.00  0.00    +0.000 A 
ATOM      4  C   UNL     1       2.306   4.124  21.669  0.00  0.00    +0.000 C 
ATOM      5  N   UNL     1       1.619   6.347  21.046  0.00  0.00    +0.000 NA
ATOM      6  C   UNL     1       1.683   7.313  20.115  0.00  0.00    +0.000 A 
ATOM      7  C   UNL     1       2.360   7.291  18.914  0.00  0.00    +0.000 A 
ATOM      8  N   UNL     1       2.147   8.497  18.250  0.00  0.00    +0.000 NA
ATOM      9  C   UNL     1       1.370   9.236  19.035  0.00  0.00    +0.000 A 
ATOM     10  N   UNL     1       1.034   8.510  20.168  0.00  0.00    +0.000 N 
ENDROOT
BRANCH   9  11
ATOM     11  C   UNL     1       0.852  10.576  18.696  0.00  0.00    +0.000 A 
ATOM     12  C   UNL     1      -0.500  10.739  18.366  0.00  0.00    +0.000 A 
ATOM     13  C   UNL     1      -1.048  12.016  18.182  0.00  0.00    +0.000 A 
ATOM     14  C   UNL     1      -0.252  13.149  18.332  0.00  0.00    +0.000 A 
ATOM     15  C   UNL     1       1.105  13.004  18.602  0.00  0.00    +0.000 A 
ATOM     16  C   UNL     1       1.656  11.726  18.741  0.00  0.00    +0.000 A 
ENDBRANCH   9  11
BRANCH   1  17
ATOM     17  N   UNL     1       3.769   5.831  17.405  0.00  0.00    +0.000 N 
BRANCH  17  18
ATOM     18  C   UNL     1       4.086   4.400  17.197  0.00  0.00    +0.000 C 
BRANCH  18  19
ATOM     19  C   UNL     1       2.803   3.587  16.921  0.00  0.00    +0.000 C 
BRANCH  19  21
ATOM     20  C   UNL     1       1.598   2.231  18.406  0.00  0.00    +0.000 C 
ATOM     21  O   UNL     1       2.792   2.341  17.632  0.00  0.00    +0.000 OA
ENDBRANCH  19  21
ENDBRANCH  18  19
ENDBRANCH  17  18
BRANCH  17  22
ATOM     22  C   UNL     1       4.744   6.887  17.075  0.00  0.00    +0.000 C 
BRANCH  22  23
ATOM     23  C   UNL     1       6.205   6.449  16.878  0.00  0.00    +0.000 C 
BRANCH  23  24
ATOM     24  O   UNL     1       7.020   6.498  18.053  0.00  0.00    +0.000 OA
ATOM     25  C   UNL     1       7.624   5.252  18.371  0.00  0.00    +0.000 C 
ENDBRANCH  23  24
ENDBRANCH  22  23
ENDBRANCH  17  22
ENDBRANCH   1  17
BRANCH  10  26
ATOM     26  C   UNL     1       0.122   8.839  21.248  0.00  0.00    +0.000 C 
BRANCH  26  27
ATOM     27  C   UNL     1       0.412  10.147  21.977  0.00  0.00    +0.000 C 
BRANCH  27  28
ATOM     28  C   UNL     1      -0.836  10.815  22.579  0.00  0.00    +0.000 C 
BRANCH  28  29
ATOM     29  N   UNL     1      -1.069  12.116  21.940  0.00  0.00    +0.000 NA
ATOM     30  C   UNL     1      -2.434  12.289  21.411  0.00  0.00    +0.000 C 
ATOM     31  C   UNL     1      -3.465  12.749  22.439  0.00  0.00    +0.000 C 
ATOM     32  C   UNL     1      -3.011  14.043  23.091  0.00  0.00    +0.000 C 
ATOM     33  C   UNL     1      -1.648  13.827  23.734  0.00  0.00    +0.000 C 
ATOM     34  C   UNL     1      -0.606  13.259  22.752  0.00  0.00    +0.000 C 
ATOM     35  C   UNL     1      -0.082  14.346  21.804  0.00  0.00    +0.000 C 
ENDBRANCH  28  29
ENDBRANCH  27  28
ENDBRANCH  26  27
ENDBRANCH  10  26
TORSDOF 12
ENDMDL
MODEL 3
REMARK VINA RESULT:      -6.2      5.908      9.120
REMARK  Name = 
REMARK  16 active torsions:
REMARK  status: ('A' for Active; 'I' for Inactive)
REMARK    1  A    between atoms: C_1  and  O_2
REMARK    2  A    between atoms: O_2  and  C_3
REMARK    3  A    between atoms: C_3  and  C_4
REMARK    4  A    between atoms: C_4  and  N_5
REMARK    5  A    between atoms: N_5  and  C_6
REMARK    6  A    between atoms: N_5  and  C_10
REMARK    7  A    between atoms: C_6  and  C_7
REMARK    8  A    between atoms: C_7  and  O_8
REMARK    9  A    between atoms: O_8  and  C_9
REMARK   10  A    between atoms: C_12  and  C_13
REMARK   11  A    between atoms: C_18  and  C_19
REMARK   12  A    between atoms: N_25  and  C_26
REMARK   13  A    between atoms: C_26  and  C_27
REMARK   14  A    between atoms: C_27  and  C_28
REMARK   15  A    between atoms: C_28  and  N_29
REMARK   16  A    between atoms: C_34  and  C_35
REMARK                            x       y       z     vdW  Elec       q    Type
REMARK                         _______ _______ _______ _____ _____    ______ ____
ROOT
ATOM      1  C   UNL     1       2.388  14.243  20.297  0.00  0.00    +0.000 A 
ATOM      2  N   UNL     1       2.361  14.967  19.133  0.00  0.00    +0.000 NA
ATOM      3  C   UNL     1       3.463  15.574  18.652  0.00  0.00    +0.000 A 
ATOM      4  C   UNL     1       3.341  16.308  17.352  0.00  0.00    +0.000 C 
ATOM      5  N   UNL     1       4.674  15.548  19.209  0.00  0.00    +0.000 NA
ATOM      6  C   UNL     1       4.689  14.853  20.358  0.00  0.00    +0.000 A 
ATOM      7  C   UNL     1       3.641  14.198  20.968  0.00  0.00    +0.000 A 
ATOM      8  N   UNL     1       4.101  13.595  22.137  0.00  0.00    +0.000 NA
ATOM      9  C   UNL     1       5.393  13.890  22.238  0.00  0.00    +0.000 A 
ATOM     10  N   UNL     1       5.789  14.624  21.131  0.00  0.00    +0.000 N 
ENDROOT
BRANCH   9  11
ATOM     11  C   UNL     1       6.290  13.407  23.307  0.00  0.00    +0.000 A 
ATOM     12  C   UNL     1       6.632  14.256  24.368  0.00  0.00    +0.000 A 
ATOM     13  C   UNL     1       7.362  13.779  25.465  0.00  0.00    +0.000 A 
ATOM     14  C   UNL     1       7.755  12.444  25.520  0.00  0.00    +0.000 A 
ATOM     15  C   UNL     1       7.475  11.601  24.450  0.00  0.00    +0.000 A 
ATOM     16  C   UNL     1       6.785  12.093  23.337  0.00  0.00    +0.000 A 
ENDBRANCH   9  11
BRANCH   1  17
ATOM     17  N   UNL     1       1.202  13.585  20.705  0.00  0.00    +0.000 N 
BRANCH  17  18
ATOM     18  C   UNL     1       0.361  13.112  19.583  0.00  0.00    +0.000 C 
BRANCH  18  19
ATOM     19  C   UNL     1       0.514  11.588  19.386  0.00  0.00    +0.000 C 
BRANCH  19  21
ATOM     20  C   UNL     1       1.622   9.893  18.204  0.00  0.00    +0.000 C 
ATOM     21  O   UNL     1       1.677  11.259  18.614  0.00  0.00    +0.000 OA
ENDBRANCH  19  21
ENDBRANCH  18  19
ENDBRANCH  17  18
BRANCH  17  22
ATOM     22  C   UNL     1       0.603  14.195  21.907  0.00  0.00    +0.000 C 
BRANCH  22  23
ATOM     23  C   UNL     1      -0.619  13.484  22.513  0.00  0.00    +0.000 C 
BRANCH  23  24
ATOM     24  O   UNL     1      -0.412  12.115  22.872  0.00  0.00    +0.000 OA
ATOM     25  C   UNL     1      -1.621  11.398  23.078  0.00  0.00    +0.000 C 
ENDBRANCH  23  24
ENDBRANCH  22  23
ENDBRANCH  17  22
ENDBRANCH   1  17
BRANCH  10  26
ATOM     26  C   UNL     1       7.110  15.071  20.734  0.00  0.00    +0.000 C 
BRANCH  26  27
ATOM     27  C   UNL     1       8.110  13.964  20.416  0.00  0.00    +0.000 C 
BRANCH  27  28
ATOM     28  C   UNL     1       8.678  14.029  18.988  0.00  0.00    +0.000 C 
BRANCH  28  29
ATOM     29  N   UNL     1       9.262  12.733  18.618  0.00  0.00    +0.000 NA
ATOM     30  C   UNL     1      10.437  12.834  17.735  0.00  0.00    +0.000 C 
ATOM     31  C   UNL     1      11.760  13.086  18.455  0.00  0.00    +0.000 C 
ATOM     32  C   UNL     1      12.003  12.004  19.493  0.00  0.00    +0.000 C 
ATOM     33  C   UNL     1      10.837  11.978  20.471  0.00  0.00    +0.000 C 
ATOM     34  C   UNL     1       9.472  11.836  19.772  0.00  0.00    +0.000 C 
ATOM     35  C   UNL     1       9.228  10.392  19.312  0.00  0.00    +0.000 C 
ENDBRANCH  28  29
ENDBRANCH  27  28
ENDBRANCH  26  27
ENDBRANCH  10  26
TORSDOF 12
ENDMDL
MODEL 4
REMARK VINA RESULT:      -6.1      3.235      8.631
REMARK  Name = 
REMARK  16 active torsions:
REMARK  status: ('A' for Active; 'I' for Inactive)
REMARK    1  A    between atoms: C_1  and  O_2
REMARK    2  A    between atoms: O_2  and  C_3
REMARK    3  A    between atoms: C_3  and  C_4
REMARK    4  A    between atoms: C_4  and  N_5
REMARK    5  A    between atoms: N_5  and  C_6
REMARK    6  A    between atoms: N_5  and  C_10
REMARK    7  A    between atoms: C_6  and  C_7
REMARK    8  A    between atoms: C_7  and  O_8
REMARK    9  A    between atoms: O_8  and  C_9
REMARK   10  A    between atoms: C_12  and  C_13
REMARK   11  A    between atoms: C_18  and  C_19
REMARK   12  A    between atoms: N_25  and  C_26
REMARK   13  A    between atoms: C_26  and  C_27
REMARK   14  A    between atoms: C_27  and  C_28
REMARK   15  A    between atoms: C_28  and  N_29
REMARK   16  A    between atoms: C_34  and  C_35
REMARK                            x       y       z     vdW  Elec       q    Type
REMARK                         _______ _______ _______ _____ _____    ______ ____
ROOT
ATOM      1  C   UNL     1       3.222   6.004  18.746  0.00  0.00    +0.000 A 
ATOM      2  N   UNL     1       3.097   5.027  19.701  0.00  0.00    +0.000 NA
ATOM      3  C   UNL     1       2.320   5.197  20.788  0.00  0.00    +0.000 A 
ATOM      4  C   UNL     1       2.218   4.056  21.753  0.00  0.00    +0.000 C 
ATOM      5  N   UNL     1       1.594   6.279  21.067  0.00  0.00    +0.000 NA
ATOM      6  C   UNL     1       1.736   7.238  20.138  0.00  0.00    +0.000 A 
ATOM      7  C   UNL     1       2.502   7.205  18.993  0.00  0.00    +0.000 A 
ATOM      8  N   UNL     1       2.347   8.408  18.307  0.00  0.00    +0.000 NA
ATOM      9  C   UNL     1       1.518   9.156  19.027  0.00  0.00    +0.000 A 
ATOM     10  N   UNL     1       1.092   8.440  20.136  0.00  0.00    +0.000 N 
ENDROOT
BRANCH   9  11
ATOM     11  C   UNL     1       1.036  10.498  18.642  0.00  0.00    +0.000 A 
ATOM     12  C   UNL     1      -0.274  10.660  18.170  0.00  0.00    +0.000 A 
ATOM     13  C   UNL     1      -0.801  11.937  17.936  0.00  0.00    +0.000 A 
ATOM     14  C   UNL     1      -0.029  13.071  18.177  0.00  0.00    +0.000 A 
ATOM     15  C   UNL     1       1.292  12.927  18.590  0.00  0.00    +0.000 A 
ATOM     16  C   UNL     1       1.827  11.649  18.779  0.00  0.00    +0.000 A 
ENDBRANCH   9  11
BRANCH   1  17
ATOM     17  N   UNL     1       4.011   5.727  17.602  0.00  0.00    +0.000 N 
BRANCH  17  18
ATOM     18  C   UNL     1       3.661   4.459  16.924  0.00  0.00    +0.000 C 
BRANCH  18  19
ATOM     19  C   UNL     1       4.909   3.813  16.286  0.00  0.00    +0.000 C 
BRANCH  19  21
ATOM     20  C   UNL     1       6.463   4.042  14.545  0.00  0.00    +0.000 C 
ATOM     21  O   UNL     1       5.103   4.239  14.930  0.00  0.00    +0.000 OA
ENDBRANCH  19  21
ENDBRANCH  18  19
ENDBRANCH  17  18
BRANCH  17  22
ATOM     22  C   UNL     1       5.415   6.143  17.771  0.00  0.00    +0.000 C 
BRANCH  22  23
ATOM     23  C   UNL     1       5.956   7.186  16.778  0.00  0.00    +0.000 C 
BRANCH  23  24
ATOM     24  O   UNL     1       7.284   7.647  17.042  0.00  0.00    +0.000 OA
ATOM     25  C   UNL     1       7.858   7.074  18.209  0.00  0.00    +0.000 C 
ENDBRANCH  23  24
ENDBRANCH  22  23
ENDBRANCH  17  22
ENDBRANCH   1  17
BRANCH  10  26
ATOM     26  C   UNL     1       0.103   8.781  21.141  0.00  0.00    +0.000 C 
BRANCH  26  27
ATOM     27  C   UNL     1       0.336  10.101  21.869  0.00  0.00    +0.000 C 
BRANCH  27  28
ATOM     28  C   UNL     1      -0.817  10.509  22.803  0.00  0.00    +0.000 C 
BRANCH  28  29
ATOM     29  N   UNL     1      -1.047  11.958  22.717  0.00  0.00    +0.000 NA
ATOM     30  C   UNL     1      -1.215  12.457  21.341  0.00  0.00    +0.000 C 
ATOM     31  C   UNL     1      -2.629  12.325  20.780  0.00  0.00    +0.000 C 
ATOM     32  C   UNL     1      -3.621  13.023  21.693  0.00  0.00    +0.000 C 
ATOM     33  C   UNL     1      -3.521  12.425  23.090  0.00  0.00    +0.000 C 
ATOM     34  C   UNL     1      -2.086  12.441  23.648  0.00  0.00    +0.000 C 
ATOM     35  C   UNL     1      -1.689  13.844  24.128  0.00  0.00    +0.000 C 
ENDBRANCH  28  29
ENDBRANCH  27  28
ENDBRANCH  26  27
ENDBRANCH  10  26
TORSDOF 12
ENDMDL
MODEL 5
REMARK VINA RESULT:      -6.0      0.719      2.615
REMARK  Name = 
REMARK  16 active torsions:
REMARK  status: ('A' for Active; 'I' for Inactive)
REMARK    1  A    between atoms: C_1  and  O_2
REMARK    2  A    between atoms: O_2  and  C_3
REMARK    3  A    between atoms: C_3  and  C_4
REMARK    4  A    between atoms: C_4  and  N_5
REMARK    5  A    between atoms: N_5  and  C_6
REMARK    6  A    between atoms: N_5  and  C_10
REMARK    7  A    between atoms: C_6  and  C_7
REMARK    8  A    between atoms: C_7  and  O_8
REMARK    9  A    between atoms: O_8  and  C_9
REMARK   10  A    between atoms: C_12  and  C_13
REMARK   11  A    between atoms: C_18  and  C_19
REMARK   12  A    between atoms: N_25  and  C_26
REMARK   13  A    between atoms: C_26  and  C_27
REMARK   14  A    between atoms: C_27  and  C_28
REMARK   15  A    between atoms: C_28  and  N_29
REMARK   16  A    between atoms: C_34  and  C_35
REMARK                            x       y       z     vdW  Elec       q    Type
REMARK                         _______ _______ _______ _____ _____    ______ ____
ROOT
ATOM      1  C   UNL     1       0.765  10.556  19.764  0.00  0.00    +0.000 A 
ATOM      2  N   UNL     1       0.192  10.575  21.011  0.00  0.00    +0.000 NA
ATOM      3  C   UNL     1       0.288   9.526  21.849  0.00  0.00    +0.000 A 
ATOM      4  C   UNL     1      -0.336   9.661  23.204  0.00  0.00    +0.000 C 
ATOM      5  N   UNL     1       0.929   8.384  21.601  0.00  0.00    +0.000 NA
ATOM      6  C   UNL     1       1.471   8.364  20.372  0.00  0.00    +0.000 A 
ATOM      7  C   UNL     1       1.438   9.353  19.413  0.00  0.00    +0.000 A 
ATOM      8  N   UNL     1       2.139   8.920  18.289  0.00  0.00    +0.000 NA
ATOM      9  C   UNL     1       2.573   7.693  18.556  0.00  0.00    +0.000 A 
ATOM     10  N   UNL     1       2.214   7.346  19.850  0.00  0.00    +0.000 N 
ENDROOT
BRANCH   9  11
ATOM     11  C   UNL     1       3.409   6.875  17.655  0.00  0.00    +0.000 A 
ATOM     12  C   UNL     1       4.415   7.483  16.893  0.00  0.00    +0.000 A 
ATOM     13  C   UNL     1       5.313   6.713  16.142  0.00  0.00    +0.000 A 
ATOM     14  C   UNL     1       5.224   5.323  16.149  0.00  0.00    +0.000 A 
ATOM     15  C   UNL     1       4.196   4.705  16.854  0.00  0.00    +0.000 A 
ATOM     16  C   UNL     1       3.275   5.480  17.566  0.00  0.00    +0.000 A 
ENDBRANCH   9  11
BRANCH   1  17
ATOM     17  N   UNL     1       0.670  11.721  18.964  0.00  0.00    +0.000 N 
BRANCH  17  18
ATOM     18  C   UNL     1      -0.500  11.734  18.059  0.00  0.00    +0.000 C 
BRANCH  18  19
ATOM     19  C   UNL     1      -1.715  12.402  18.739  0.00  0.00    +0.000 C 
BRANCH  19  21
ATOM     20  C   UNL     1      -2.628  10.411  17.904  0.00  0.00    +0.000 C 
ATOM     21  O   UNL     1      -2.879  11.565  18.706  0.00  0.00    +0.000 OA
ENDBRANCH  19  21
ENDBRANCH  18  19
ENDBRANCH  17  18
BRANCH  17  22
ATOM     22  C   UNL     1       1.989  12.208  18.520  0.00  0.00    +0.000 C 
BRANCH  22  23
ATOM     23  C   UNL     1       2.137  13.726  18.316  0.00  0.00    +0.000 C 
BRANCH  23  24
ATOM     24  O   UNL     1       2.829  14.417  19.360  0.00  0.00    +0.000 OA
ATOM     25  C   UNL     1       2.009  14.704  20.484  0.00  0.00    +0.000 C 
ENDBRANCH  23  24
ENDBRANCH  22  23
ENDBRANCH  17  22
ENDBRANCH   1  17
BRANCH  10  26
ATOM     26  C   UNL     1       2.558   6.172  20.629  0.00  0.00    +0.000 C 
BRANCH  26  27
ATOM     27  C   UNL     1       1.402   5.226  20.937  0.00  0.00    +0.000 C 
BRANCH  27  28
ATOM     28  C   UNL     1       1.012   4.315  19.760  0.00  0.00    +0.000 C 
BRANCH  28  29
ATOM     29  N   UNL     1       1.339   2.918  20.073  0.00  0.00    +0.000 NA
ATOM     30  C   UNL     1       1.168   1.992  18.940  0.00  0.00    +0.000 C 
ATOM     31  C   UNL     1       2.355   1.925  17.983  0.00  0.00    +0.000 C 
ATOM     32  C   UNL     1       3.618   1.561  18.743  0.00  0.00    +0.000 C 
ATOM     33  C   UNL     1       3.853   2.585  19.844  0.00  0.00    +0.000 C 
ATOM     34  C   UNL     1       2.633   2.761  20.768  0.00  0.00    +0.000 C 
ATOM     35  C   UNL     1       2.511   1.597  21.760  0.00  0.00    +0.000 C 
ENDBRANCH  28  29
ENDBRANCH  27  28
ENDBRANCH  26  27
ENDBRANCH  10  26
TORSDOF 12
ENDMDL
MODEL 6
REMARK VINA RESULT:      -6.0      6.133      9.382
REMARK  Name = 
REMARK  16 active torsions:
REMARK  status: ('A' for Active; 'I' for Inactive)
REMARK    1  A    between atoms: C_1  and  O_2
REMARK    2  A    between atoms: O_2  and  C_3
REMARK    3  A    between atoms: C_3  and  C_4
REMARK    4  A    between atoms: C_4  and  N_5
REMARK    5  A    between atoms: N_5  and  C_6
REMARK    6  A    between atoms: N_5  and  C_10
REMARK    7  A    between atoms: C_6  and  C_7
REMARK    8  A    between atoms: C_7  and  O_8
REMARK    9  A    between atoms: O_8  and  C_9
REMARK   10  A    between atoms: C_12  and  C_13
REMARK   11  A    between atoms: C_18  and  C_19
REMARK   12  A    between atoms: N_25  and  C_26
REMARK   13  A    between atoms: C_26  and  C_27
REMARK   14  A    between atoms: C_27  and  C_28
REMARK   15  A    between atoms: C_28  and  N_29
REMARK   16  A    between atoms: C_34  and  C_35
REMARK                            x       y       z     vdW  Elec       q    Type
REMARK                         _______ _______ _______ _____ _____    ______ ____
ROOT
ATOM      1  C   UNL     1       2.452  14.358  20.538  0.00  0.00    +0.000 A 
ATOM      2  N   UNL     1       2.385  15.134  19.408  0.00  0.00    +0.000 NA
ATOM      3  C   UNL     1       3.471  15.760  18.915  0.00  0.00    +0.000 A 
ATOM      4  C   UNL     1       3.303  16.551  17.654  0.00  0.00    +0.000 C 
ATOM      5  N   UNL     1       4.701  15.709  19.427  0.00  0.00    +0.000 NA
ATOM      6  C   UNL     1       4.756  14.964  20.543  0.00  0.00    +0.000 A 
ATOM      7  C   UNL     1       3.729  14.283  21.160  0.00  0.00    +0.000 A 
ATOM      8  N   UNL     1       4.229  13.629  22.284  0.00  0.00    +0.000 NA
ATOM      9  C   UNL     1       5.524  13.918  22.352  0.00  0.00    +0.000 A 
ATOM     10  N   UNL     1       5.882  14.701  21.265  0.00  0.00    +0.000 N 
ENDROOT
BRANCH   9  11
ATOM     11  C   UNL     1       6.459  13.388  23.365  0.00  0.00    +0.000 A 
ATOM     12  C   UNL     1       6.934  12.074  23.257  0.00  0.00    +0.000 A 
ATOM     13  C   UNL     1       7.930  11.596  24.120  0.00  0.00    +0.000 A 
ATOM     14  C   UNL     1       8.469  12.427  25.099  0.00  0.00    +0.000 A 
ATOM     15  C   UNL     1       7.968  13.715  25.258  0.00  0.00    +0.000 A 
ATOM     16  C   UNL     1       6.943  14.172  24.424  0.00  0.00    +0.000 A 
ENDBRANCH   9  11
BRANCH   1  17
ATOM     17  N   UNL     1       1.280  13.684  20.959  0.00  0.00    +0.000 N 
BRANCH  17  18
ATOM     18  C   UNL     1       1.048  12.395  20.270  0.00  0.00    +0.000 C 
BRANCH  18  19
ATOM     19  C   UNL     1      -0.224  12.458  19.398  0.00  0.00    +0.000 C 
BRANCH  19  21
ATOM     20  C   UNL     1      -0.658  10.286  18.629  0.00  0.00    +0.000 C 
ATOM     21  O   UNL     1      -1.046  11.294  19.561  0.00  0.00    +0.000 OA
ENDBRANCH  19  21
ENDBRANCH  18  19
ENDBRANCH  17  18
BRANCH  17  22
ATOM     22  C   UNL     1       0.169  14.610  21.247  0.00  0.00    +0.000 C 
BRANCH  22  23
ATOM     23  C   UNL     1      -0.591  14.396  22.567  0.00  0.00    +0.000 C 
BRANCH  23  24
ATOM     24  O   UNL     1      -0.379  13.128  23.194  0.00  0.00    +0.000 OA
ATOM     25  C   UNL     1      -1.473  12.233  23.040  0.00  0.00    +0.000 C 
ENDBRANCH  23  24
ENDBRANCH  22  23
ENDBRANCH  17  22
ENDBRANCH   1  17
BRANCH  10  26
ATOM     26  C   UNL     1       7.189  15.164  20.841  0.00  0.00    +0.000 C 
BRANCH  26  27
ATOM     27  C   UNL     1       8.144  14.079  20.354  0.00  0.00    +0.000 C 
BRANCH  27  28
ATOM     28  C   UNL     1       9.240  14.593  19.404  0.00  0.00    +0.000 C 
BRANCH  28  29
ATOM     29  N   UNL     1       9.851  13.469  18.683  0.00  0.00    +0.000 NA
ATOM     30  C   UNL     1      11.249  13.703  18.281  0.00  0.00    +0.000 C 
ATOM     31  C   UNL     1      12.285  13.411  19.363  0.00  0.00    +0.000 C 
ATOM     32  C   UNL     1      12.136  11.983  19.856  0.00  0.00    +0.000 C 
ATOM     33  C   UNL     1      10.720  11.777  20.375  0.00  0.00    +0.000 C 
ATOM     34  C   UNL     1       9.642  12.166  19.346  0.00  0.00    +0.000 C 
ATOM     35  C   UNL     1       9.491  11.090  18.263  0.00  0.00    +0.000 C 
ENDBRANCH  28  29
ENDBRANCH  27  28
ENDBRANCH  26  27
ENDBRANCH  10  26
TORSDOF 12
ENDMDL
MODEL 7
REMARK VINA RESULT:      -5.9      6.209      9.188
REMARK  Name = 
REMARK  16 active torsions:
REMARK  status: ('A' for Active; 'I' for Inactive)
REMARK    1  A    between atoms: C_1  and  O_2
REMARK    2  A    between atoms: O_2  and  C_3
REMARK    3  A    between atoms: C_3  and  C_4
REMARK    4  A    between atoms: C_4  and  N_5
REMARK    5  A    between atoms: N_5  and  C_6
REMARK    6  A    between atoms: N_5  and  C_10
REMARK    7  A    between atoms: C_6  and  C_7
REMARK    8  A    between atoms: C_7  and  O_8
REMARK    9  A    between atoms: O_8  and  C_9
REMARK   10  A    between atoms: C_12  and  C_13
REMARK   11  A    between atoms: C_18  and  C_19
REMARK   12  A    between atoms: N_25  and  C_26
REMARK   13  A    between atoms: C_26  and  C_27
REMARK   14  A    between atoms: C_27  and  C_28
REMARK   15  A    between atoms: C_28  and  N_29
REMARK   16  A    between atoms: C_34  and  C_35
REMARK                            x       y       z     vdW  Elec       q    Type
REMARK                         _______ _______ _______ _____ _____    ______ ____
ROOT
ATOM      1  C   UNL     1       2.442  14.261  20.599  0.00  0.00    +0.000 A 
ATOM      2  N   UNL     1       2.322  14.978  19.435  0.00  0.00    +0.000 NA
ATOM      3  C   UNL     1       3.384  15.576  18.861  0.00  0.00    +0.000 A 
ATOM      4  C   UNL     1       3.157  16.300  17.570  0.00  0.00    +0.000 C 
ATOM      5  N   UNL     1       4.636  15.548  19.316  0.00  0.00    +0.000 NA
ATOM      6  C   UNL     1       4.743  14.861  20.465  0.00  0.00    +0.000 A 
ATOM      7  C   UNL     1       3.746  14.216  21.164  0.00  0.00    +0.000 A 
ATOM      8  N   UNL     1       4.299  13.619  22.296  0.00  0.00    +0.000 NA
ATOM      9  C   UNL     1       5.596  13.908  22.288  0.00  0.00    +0.000 A 
ATOM     10  N   UNL     1       5.902  14.633  21.146  0.00  0.00    +0.000 N 
ENDROOT
BRANCH   9  11
ATOM     11  C   UNL     1       6.577  13.429  23.282  0.00  0.00    +0.000 A 
ATOM     12  C   UNL     1       6.976  12.086  23.278  0.00  0.00    +0.000 A 
ATOM     13  C   UNL     1       8.009  11.639  24.114  0.00  0.00    +0.000 A 
ATOM     14  C   UNL     1       8.662  12.531  24.961  0.00  0.00    +0.000 A 
ATOM     15  C   UNL     1       8.240  13.856  25.020  0.00  0.00    +0.000 A 
ATOM     16  C   UNL     1       7.180  14.286  24.217  0.00  0.00    +0.000 A 
ENDBRANCH   9  11
BRANCH   1  17
ATOM     17  N   UNL     1       1.291  13.612  21.109  0.00  0.00    +0.000 N 
BRANCH  17  18
ATOM     18  C   UNL     1       0.632  12.709  20.139  0.00  0.00    +0.000 C 
BRANCH  18  19
ATOM     19  C   UNL     1       0.340  11.334  20.778  0.00  0.00    +0.000 C 
BRANCH  19  21
ATOM     20  C   UNL     1      -0.905  11.104  22.751  0.00  0.00    +0.000 C 
ATOM     21  O   UNL     1      -0.980  11.269  21.335  0.00  0.00    +0.000 OA
ENDBRANCH  19  21
ENDBRANCH  18  19
ENDBRANCH  17  18
BRANCH  17  22
ATOM     22  C   UNL     1       0.505  14.479  22.006  0.00  0.00    +0.000 C 
BRANCH  22  23
ATOM     23  C   UNL     1      -0.727  15.172  21.400  0.00  0.00    +0.000 C 
BRANCH  23  24
ATOM     24  O   UNL     1      -0.480  16.454  20.815  0.00  0.00    +0.000 OA
ATOM     25  C   UNL     1      -0.986  16.576  19.493  0.00  0.00    +0.000 C 
ENDBRANCH  23  24
ENDBRANCH  22  23
ENDBRANCH  17  22
ENDBRANCH   1  17
BRANCH  10  26
ATOM     26  C   UNL     1       7.188  15.071  20.638  0.00  0.00    +0.000 C 
BRANCH  26  27
ATOM     27  C   UNL     1       8.226  13.970  20.441  0.00  0.00    +0.000 C 
BRANCH  27  28
ATOM     28  C   UNL     1       8.914  14.002  19.065  0.00  0.00    +0.000 C 
BRANCH  28  29
ATOM     29  N   UNL     1       9.330  12.647  18.679  0.00  0.00    +0.000 NA
ATOM     30  C   UNL     1      10.302  12.611  17.573  0.00  0.00    +0.000 C 
ATOM     31  C   UNL     1      11.757  12.804  17.992  0.00  0.00    +0.000 C 
ATOM     32  C   UNL     1      12.142  11.768  19.034  0.00  0.00    +0.000 C 
ATOM     33  C   UNL     1      11.203  11.884  20.226  0.00  0.00    +0.000 C 
ATOM     34  C   UNL     1       9.717  11.804  19.828  0.00  0.00    +0.000 C 
ATOM     35  C   UNL     1       9.297  10.358  19.530  0.00  0.00    +0.000 C 
ENDBRANCH  28  29
ENDBRANCH  27  28
ENDBRANCH  26  27
ENDBRANCH  10  26
TORSDOF 12
ENDMDL
MODEL 8
REMARK VINA RESULT:      -5.9      3.613      9.408
REMARK  Name = 
REMARK  16 active torsions:
REMARK  status: ('A' for Active; 'I' for Inactive)
REMARK    1  A    between atoms: C_1  and  O_2
REMARK    2  A    between atoms: O_2  and  C_3
REMARK    3  A    between atoms: C_3  and  C_4
REMARK    4  A    between atoms: C_4  and  N_5
REMARK    5  A    between atoms: N_5  and  C_6
REMARK    6  A    between atoms: N_5  and  C_10
REMARK    7  A    between atoms: C_6  and  C_7
REMARK    8  A    between atoms: C_7  and  O_8
REMARK    9  A    between atoms: O_8  and  C_9
REMARK   10  A    between atoms: C_12  and  C_13
REMARK   11  A    between atoms: C_18  and  C_19
REMARK   12  A    between atoms: N_25  and  C_26
REMARK   13  A    between atoms: C_26  and  C_27
REMARK   14  A    between atoms: C_27  and  C_28
REMARK   15  A    between atoms: C_28  and  N_29
REMARK   16  A    between atoms: C_34  and  C_35
REMARK                            x       y       z     vdW  Elec       q    Type
REMARK                         _______ _______ _______ _____ _____    ______ ____
ROOT
ATOM      1  C   UNL     1       0.060  10.805  19.730  0.00  0.00    +0.000 A 
ATOM      2  N   UNL     1      -0.142  10.056  20.862  0.00  0.00    +0.000 NA
ATOM      3  C   UNL     1      -0.312  10.629  22.068  0.00  0.00    +0.000 A 
ATOM      4  C   UNL     1      -0.568   9.727  23.236  0.00  0.00    +0.000 C 
ATOM      5  N   UNL     1      -0.316  11.939  22.316  0.00  0.00    +0.000 NA
ATOM      6  C   UNL     1      -0.099  12.666  21.208  0.00  0.00    +0.000 A 
ATOM      7  C   UNL     1       0.103  12.213  19.922  0.00  0.00    +0.000 A 
ATOM      8  N   UNL     1       0.276  13.308  19.077  0.00  0.00    +0.000 NA
ATOM      9  C   UNL     1       0.195  14.395  19.836  0.00  0.00    +0.000 A 
ATOM     10  N   UNL     1      -0.082  14.028  21.144  0.00  0.00    +0.000 N 
ENDROOT
BRANCH   9  11
ATOM     11  C   UNL     1       0.270  15.783  19.338  0.00  0.00    +0.000 A 
ATOM     12  C   UNL     1       1.508  16.437  19.277  0.00  0.00    +0.000 A 
ATOM     13  C   UNL     1       1.628  17.697  18.676  0.00  0.00    +0.000 A 
ATOM     14  C   UNL     1       0.512  18.319  18.121  0.00  0.00    +0.000 A 
ATOM     15  C   UNL     1      -0.735  17.712  18.224  0.00  0.00    +0.000 A 
ATOM     16  C   UNL     1      -0.857  16.474  18.864  0.00  0.00    +0.000 A 
ENDBRANCH   9  11
BRANCH   1  17
ATOM     17  N   UNL     1       0.172  10.129  18.490  0.00  0.00    +0.000 N 
BRANCH  17  18
ATOM     18  C   UNL     1       1.567   9.892  18.059  0.00  0.00    +0.000 C 
BRANCH  18  19
ATOM     19  C   UNL     1       1.876   8.380  18.004  0.00  0.00    +0.000 C 
BRANCH  19  21
ATOM     20  C   UNL     1       2.655   6.505  19.177  0.00  0.00    +0.000 C 
ATOM     21  O   UNL     1       2.183   7.846  19.299  0.00  0.00    +0.000 OA
ENDBRANCH  19  21
ENDBRANCH  18  19
ENDBRANCH  17  18
BRANCH  17  22
ATOM     22  C   UNL     1      -0.869  10.540  17.529  0.00  0.00    +0.000 C 
BRANCH  22  23
ATOM     23  C   UNL     1      -2.259   9.901  17.693  0.00  0.00    +0.000 C 
BRANCH  23  24
ATOM     24  O   UNL     1      -2.917   9.553  16.471  0.00  0.00    +0.000 OA
ATOM     25  C   UNL     1      -2.955  10.616  15.530  0.00  0.00    +0.000 C 
ENDBRANCH  23  24
ENDBRANCH  22  23
ENDBRANCH  17  22
ENDBRANCH   1  17
BRANCH  10  26
ATOM     26  C   UNL     1      -0.376  14.852  22.300  0.00  0.00    +0.000 C 
BRANCH  26  27
ATOM     27  C   UNL     1      -1.736  15.543  22.286  0.00  0.00    +0.000 C 
BRANCH  27  28
ATOM     28  C   UNL     1      -2.921  14.583  22.088  0.00  0.00    +0.000 C 
BRANCH  28  29
ATOM     29  N   UNL     1      -3.549  14.284  23.382  0.00  0.00    +0.000 NA
ATOM     30  C   UNL     1      -4.181  15.449  24.026  0.00  0.00    +0.000 C 
ATOM     31  C   UNL     1      -5.599  15.754  23.549  0.00  0.00    +0.000 C 
ATOM     32  C   UNL     1      -6.485  14.535  23.734  0.00  0.00    +0.000 C 
ATOM     33  C   UNL     1      -5.886  13.360  22.974  0.00  0.00    +0.000 C 
ATOM     34  C   UNL     1      -4.417  13.090  23.350  0.00  0.00    +0.000 C 
ATOM     35  C   UNL     1      -4.309  12.377  24.704  0.00  0.00    +0.000 C 
ENDBRANCH  28  29
ENDBRANCH  27  28
ENDBRANCH  26  27
ENDBRANCH  10  26
TORSDOF 12
ENDMDL
MODEL 9
REMARK VINA RESULT:      -5.9      0.754      2.807
REMARK  Name = 
REMARK  16 active torsions:
REMARK  status: ('A' for Active; 'I' for Inactive)
REMARK    1  A    between atoms: C_1  and  O_2
REMARK    2  A    between atoms: O_2  and  C_3
REMARK    3  A    between atoms: C_3  and  C_4
REMARK    4  A    between atoms: C_4  and  N_5
REMARK    5  A    between atoms: N_5  and  C_6
REMARK    6  A    between atoms: N_5  and  C_10
REMARK    7  A    between atoms: C_6  and  C_7
REMARK    8  A    between atoms: C_7  and  O_8
REMARK    9  A    between atoms: O_8  and  C_9
REMARK   10  A    between atoms: C_12  and  C_13
REMARK   11  A    between atoms: C_18  and  C_19
REMARK   12  A    between atoms: N_25  and  C_26
REMARK   13  A    between atoms: C_26  and  C_27
REMARK   14  A    between atoms: C_27  and  C_28
REMARK   15  A    between atoms: C_28  and  N_29
REMARK   16  A    between atoms: C_34  and  C_35
REMARK                            x       y       z     vdW  Elec       q    Type
REMARK                         _______ _______ _______ _____ _____    ______ ____
ROOT
ATOM      1  C   UNL     1       0.582  10.456  19.642  0.00  0.00    +0.000 A 
ATOM      2  N   UNL     1      -0.032  10.460  20.869  0.00  0.00    +0.000 NA
ATOM      3  C   UNL     1       0.103   9.434  21.730  0.00  0.00    +0.000 A 
ATOM      4  C   UNL     1      -0.574   9.551  23.061  0.00  0.00    +0.000 C 
ATOM      5  N   UNL     1       0.824   8.332  21.524  0.00  0.00    +0.000 NA
ATOM      6  C   UNL     1       1.407   8.326  20.315  0.00  0.00    +0.000 A 
ATOM      7  C   UNL     1       1.343   9.295  19.337  0.00  0.00    +0.000 A 
ATOM      8  N   UNL     1       2.108   8.888  18.244  0.00  0.00    +0.000 NA
ATOM      9  C   UNL     1       2.610   7.697  18.549  0.00  0.00    +0.000 A 
ATOM     10  N   UNL     1       2.231   7.350  19.837  0.00  0.00    +0.000 N 
ENDROOT
BRANCH   9  11
ATOM     11  C   UNL     1       3.527   6.919  17.692  0.00  0.00    +0.000 A 
ATOM     12  C   UNL     1       3.461   5.520  17.688  0.00  0.00    +0.000 A 
ATOM     13  C   UNL     1       4.217   4.766  16.780  0.00  0.00    +0.000 A 
ATOM     14  C   UNL     1       5.045   5.402  15.859  0.00  0.00    +0.000 A 
ATOM     15  C   UNL     1       5.168   6.787  15.887  0.00  0.00    +0.000 A 
ATOM     16  C   UNL     1       4.445   7.532  16.824  0.00  0.00    +0.000 A 
ENDBRANCH   9  11
BRANCH   1  17
ATOM     17  N   UNL     1       0.440  11.599  18.817  0.00  0.00    +0.000 N 
BRANCH  17  18
ATOM     18  C   UNL     1      -0.846  11.656  18.087  0.00  0.00    +0.000 C 
BRANCH  18  19
ATOM     19  C   UNL     1      -1.274  10.249  17.615  0.00  0.00    +0.000 C 
BRANCH  19  21
ATOM     20  C   UNL     1      -3.326  11.372  17.768  0.00  0.00    +0.000 C 
ATOM     21  O   UNL     1      -2.701  10.103  17.583  0.00  0.00    +0.000 OA
ENDBRANCH  19  21
ENDBRANCH  18  19
ENDBRANCH  17  18
BRANCH  17  22
ATOM     22  C   UNL     1       1.706  11.990  18.171  0.00  0.00    +0.000 C 
BRANCH  22  23
ATOM     23  C   UNL     1       2.327  13.328  18.609  0.00  0.00    +0.000 C 
BRANCH  23  24
ATOM     24  O   UNL     1       2.762  13.381  19.971  0.00  0.00    +0.000 OA
ATOM     25  C   UNL     1       1.966  14.233  20.783  0.00  0.00    +0.000 C 
ENDBRANCH  23  24
ENDBRANCH  22  23
ENDBRANCH  17  22
ENDBRANCH   1  17
BRANCH  10  26
ATOM     26  C   UNL     1       2.624   6.214  20.650  0.00  0.00    +0.000 C 
BRANCH  26  27
ATOM     27  C   UNL     1       1.510   5.226  20.980  0.00  0.00    +0.000 C 
BRANCH  27  28
ATOM     28  C   UNL     1       1.090   4.341  19.795  0.00  0.00    +0.000 C 
BRANCH  28  29
ATOM     29  N   UNL     1       1.408   2.935  20.077  0.00  0.00    +0.000 NA
ATOM     30  C   UNL     1       1.185   2.028  18.938  0.00  0.00    +0.000 C 
ATOM     31  C   UNL     1       2.336   1.959  17.938  0.00  0.00    +0.000 C 
ATOM     32  C   UNL     1       3.620   1.567  18.648  0.00  0.00    +0.000 C 
ATOM     33  C   UNL     1       3.907   2.573  19.754  0.00  0.00    +0.000 C 
ATOM     34  C   UNL     1       2.724   2.752  20.723  0.00  0.00    +0.000 C 
ATOM     35  C   UNL     1       2.622   1.575  21.703  0.00  0.00    +0.000 C 
ENDBRANCH  28  29
ENDBRANCH  27  28
ENDBRANCH  26  27
ENDBRANCH  10  26
TORSDOF 12
ENDMDL
