MODEL 1
REMARK VINA RESULT:      -8.5      0.000      0.000
REMARK  Name = 
REMARK  11 active torsions:
REMARK  status: ('A' for Active; 'I' for Inactive)
REMARK    1  A    between atoms: C_1  and  C_2
REMARK    2  A    between atoms: C_2  and  N_3
REMARK    3  A    between atoms: C_2  and  C_27
REMARK    4  A    between atoms: N_6  and  C_7
REMARK    5  A    between atoms: C_7  and  C_8
REMARK    6  A    between atoms: C_8  and  C_9
REMARK    7  A    between atoms: C_9  and  C_10
REMARK    8  A    between atoms: C_10  and  N_11
REMARK    9  A    between atoms: N_14  and  C_15
REMARK   10  A    between atoms: C_15  and  C_16
REMARK   11  A    between atoms: C_15  and  C_17
REMARK                            x       y       z     vdW  Elec       q    Type
REMARK                         _______ _______ _______ _____ _____    ______ ____
ROOT
ATOM      1  C   UNL     1       8.042   9.225  17.457  0.00  0.00    +0.000 C 
ENDROOT
BRANCH   1   2
ATOM      2  C   UNL     1       7.975   7.698  17.374  0.00  0.00    +0.000 C 
BRANCH   2   6
ATOM      3  N   UNL     1       4.772   6.223  18.307  0.00  0.00    +0.000 N 
ATOM      4  C   UNL     1       5.702   6.787  17.478  0.00  0.00    +0.000 C 
ATOM      5  O   UNL     1       5.524   6.963  16.274  0.00  0.00    +0.000 OA
ATOM      6  N   UNL     1       6.865   7.136  18.121  0.00  0.00    +0.000 N 
ATOM      7  H   UNL     1       5.010   6.099  19.277  0.00  0.00    +0.000 HD
ATOM      8  H   UNL     1       6.979   6.945  19.103  0.00  0.00    +0.000 HD
BRANCH   3  10
ATOM      9  C   UNL     1       2.433   6.955  18.060  0.00  0.00    +0.000 C 
ATOM     10  C   UNL     1       3.441   5.817  17.826  0.00  0.00    +0.000 C 
BRANCH  10  11
ATOM     11  C   UNL     1       2.960   4.440  18.417  0.00  0.00    +0.000 C 
ATOM     12  C   UNL     1       4.061   3.810  19.332  0.00  0.00    +0.000 C 
ATOM     13  C   UNL     1       3.598   2.473  19.935  0.00  0.00    +0.000 C 
ATOM     14  C   UNL     1       2.346   2.716  20.787  0.00  0.00    +0.000 C 
ATOM     15  C   UNL     1       1.225   3.299  19.914  0.00  0.00    +0.000 C 
ATOM     16  C   UNL     1       0.897   2.303  18.792  0.00  0.00    +0.000 C 
ATOM     17  C   UNL     1       2.142   2.068  17.924  0.00  0.00    +0.000 C 
ATOM     18  C   UNL     1       3.272   1.496  18.795  0.00  0.00    +0.000 C 
ATOM     19  C   UNL     1       2.600   3.406  17.313  0.00  0.00    +0.000 C 
ATOM     20  C   UNL     1       1.689   4.633  19.297  0.00  0.00    +0.000 C 
ENDBRANCH  10  11
ENDBRANCH   3  10
ENDBRANCH   2   6
ENDBRANCH   1   2
BRANCH   1  21
ATOM     21  C   UNL     1       8.857   9.700  18.669  0.00  0.00    +0.000 C 
BRANCH  21  22
ATOM     22  C   UNL     1       9.616  10.997  18.376  0.00  0.00    +0.000 C 
BRANCH  22  23
ATOM     23  N   UNL     1       9.095  12.122  19.133  0.00  0.00    +0.000 N 
ATOM     24  C   UNL     1       9.531  12.361  20.405  0.00  0.00    +0.000 C 
ATOM     25  O   UNL     1      10.326  11.617  20.992  0.00  0.00    +0.000 OA
ATOM     26  N   UNL     1       9.009  13.492  20.962  0.00  0.00    +0.000 N 
ATOM     27  H   UNL     1       8.579  12.839  18.639  0.00  0.00    +0.000 HD
ATOM     28  H   UNL     1       8.145  13.831  20.555  0.00  0.00    +0.000 HD
BRANCH  26  29
ATOM     29  C   UNL     1       9.370  13.947  22.317  0.00  0.00    +0.000 C 
ATOM     30  C   UNL     1       9.681  15.455  22.271  0.00  0.00    +0.000 C 
BRANCH  29  31
ATOM     31  C   UNL     1       8.315  13.581  23.436  0.00  0.00    +0.000 C 
ATOM     32  C   UNL     1       8.507  12.134  23.979  0.00  0.00    +0.000 C 
ATOM     33  C   UNL     1       7.489  11.801  25.086  0.00  0.00    +0.000 C 
ATOM     34  C   UNL     1       7.670  12.774  26.259  0.00  0.00    +0.000 C 
ATOM     35  C   UNL     1       7.459  14.213  25.774  0.00  0.00    +0.000 C 
ATOM     36  C   UNL     1       6.033  14.349  25.218  0.00  0.00    +0.000 C 
ATOM     37  C   UNL     1       5.838  13.381  24.041  0.00  0.00    +0.000 C 
ATOM     38  C   UNL     1       6.070  11.939  24.514  0.00  0.00    +0.000 C 
ATOM     39  C   UNL     1       6.851  13.718  22.932  0.00  0.00    +0.000 C 
ATOM     40  C   UNL     1       8.475  14.535  24.663  0.00  0.00    +0.000 C 
ENDBRANCH  29  31
ENDBRANCH  26  29
ENDBRANCH  22  23
ENDBRANCH  21  22
ENDBRANCH   1  21
TORSDOF 9
ENDMDL
MODEL 2
REMARK VINA RESULT:      -8.5      1.471      2.667
REMARK  Name = 
REMARK  11 active torsions:
REMARK  status: ('A' for Active; 'I' for Inactive)
REMARK    1  A    between atoms: C_1  and  C_2
REMARK    2  A    between atoms: C_2  and  N_3
REMARK    3  A    between atoms: C_2  and  C_27
REMARK    4  A    between atoms: N_6  and  C_7
REMARK    5  A    between atoms: C_7  and  C_8
REMARK    6  A    between atoms: C_8  and  C_9
REMARK    7  A    between atoms: C_9  and  C_10
REMARK    8  A    between atoms: C_10  and  N_11
REMARK    9  A    between atoms: N_14  and  C_15
REMARK   10  A    between atoms: C_15  and  C_16
REMARK   11  A    between atoms: C_15  and  C_17
REMARK                            x       y       z     vdW  Elec       q    Type
REMARK                         _______ _______ _______ _____ _____    ______ ____
ROOT
ATOM      1  C   UNL     1       8.645  10.602  18.178  0.00  0.00    +0.000 C 
ENDROOT
BRANCH   1   2
ATOM      2  C   UNL     1       8.573   9.082  18.338  0.00  0.00    +0.000 C 
BRANCH   2   6
ATOM      3  N   UNL     1       6.398   6.687  16.652  0.00  0.00    +0.000 N 
ATOM      4  C   UNL     1       7.356   7.113  17.530  0.00  0.00    +0.000 C 
ATOM      5  O   UNL     1       7.924   6.373  18.331  0.00  0.00    +0.000 OA
ATOM      6  N   UNL     1       7.620   8.459  17.438  0.00  0.00    +0.000 N 
ATOM      7  H   UNL     1       5.970   7.367  16.045  0.00  0.00    +0.000 HD
ATOM      8  H   UNL     1       7.108   9.034  16.789  0.00  0.00    +0.000 HD
BRANCH   3  10
ATOM      9  C   UNL     1       5.842   4.873  15.081  0.00  0.00    +0.000 C 
ATOM     10  C   UNL     1       5.997   5.274  16.558  0.00  0.00    +0.000 C 
BRANCH  10  11
ATOM     11  C   UNL     1       4.729   4.928  17.424  0.00  0.00    +0.000 C 
ATOM     12  C   UNL     1       3.903   3.774  16.768  0.00  0.00    +0.000 C 
ATOM     13  C   UNL     1       2.671   3.409  17.612  0.00  0.00    +0.000 C 
ATOM     14  C   UNL     1       3.136   2.942  18.998  0.00  0.00    +0.000 C 
ATOM     15  C   UNL     1       3.918   4.066  19.693  0.00  0.00    +0.000 C 
ATOM     16  C   UNL     1       3.005   5.290  19.844  0.00  0.00    +0.000 C 
ATOM     17  C   UNL     1       2.550   5.775  18.460  0.00  0.00    +0.000 C 
ATOM     18  C   UNL     1       1.777   4.650  17.754  0.00  0.00    +0.000 C 
ATOM     19  C   UNL     1       3.784   6.148  17.617  0.00  0.00    +0.000 C 
ATOM     20  C   UNL     1       5.148   4.443  18.843  0.00  0.00    +0.000 C 
ENDBRANCH  10  11
ENDBRANCH   3  10
ENDBRANCH   2   6
ENDBRANCH   1   2
BRANCH   1  21
ATOM     21  C   UNL     1      10.091  11.097  18.029  0.00  0.00    +0.000 C 
BRANCH  21  22
ATOM     22  C   UNL     1      10.705  11.485  19.377  0.00  0.00    +0.000 C 
BRANCH  22  23
ATOM     23  N   UNL     1       9.704  11.612  20.422  0.00  0.00    +0.000 N 
ATOM     24  C   UNL     1       9.403  12.838  20.945  0.00  0.00    +0.000 C 
ATOM     25  O   UNL     1       9.992  13.873  20.610  0.00  0.00    +0.000 OA
ATOM     26  N   UNL     1       8.394  12.811  21.864  0.00  0.00    +0.000 N 
ATOM     27  H   UNL     1       9.091  10.828  20.602  0.00  0.00    +0.000 HD
ATOM     28  H   UNL     1       8.217  11.915  22.304  0.00  0.00    +0.000 HD
BRANCH  26  29
ATOM     29  C   UNL     1       7.895  14.028  22.528  0.00  0.00    +0.000 C 
ATOM     30  C   UNL     1       6.744  14.618  21.690  0.00  0.00    +0.000 C 
BRANCH  29  31
ATOM     31  C   UNL     1       7.500  13.834  24.047  0.00  0.00    +0.000 C 
ATOM     32  C   UNL     1       7.883  15.066  24.920  0.00  0.00    +0.000 C 
ATOM     33  C   UNL     1       7.471  14.873  26.390  0.00  0.00    +0.000 C 
ATOM     34  C   UNL     1       5.949  14.687  26.476  0.00  0.00    +0.000 C 
ATOM     35  C   UNL     1       5.530  13.463  25.653  0.00  0.00    +0.000 C 
ATOM     36  C   UNL     1       6.225  12.216  26.222  0.00  0.00    +0.000 C 
ATOM     37  C   UNL     1       7.751  12.388  26.141  0.00  0.00    +0.000 C 
ATOM     38  C   UNL     1       8.175  13.625  26.945  0.00  0.00    +0.000 C 
ATOM     39  C   UNL     1       8.164  12.574  24.670  0.00  0.00    +0.000 C 
ATOM     40  C   UNL     1       5.954  13.661  24.186  0.00  0.00    +0.000 C 
ENDBRANCH  29  31
ENDBRANCH  26  29
ENDBRANCH  22  23
ENDBRANCH  21  22
ENDBRANCH   1  21
TORSDOF 9
ENDMDL
MODEL 3
REMARK VINA RESULT:      -8.3      1.549      2.327
REMARK  Name = 
REMARK  11 active torsions:
REMARK  status: ('A' for Active; 'I' for Inactive)
REMARK    1  A    between atoms: C_1  and  C_2
REMARK    2  A    between atoms: C_2  and  N_3
REMARK    3  A    between atoms: C_2  and  C_27
REMARK    4  A    between atoms: N_6  and  C_7
REMARK    5  A    between atoms: C_7  and  C_8
REMARK    6  A    between atoms: C_8  and  C_9
REMARK    7  A    between atoms: C_9  and  C_10
REMARK    8  A    between atoms: C_10  and  N_11
REMARK    9  A    between atoms: N_14  and  C_15
REMARK   10  A    between atoms: C_15  and  C_16
REMARK   11  A    between atoms: C_15  and  C_17
REMARK                            x       y       z     vdW  Elec       q    Type
REMARK                         _______ _______ _______ _____ _____    ______ ____
ROOT
ATOM      1  C   UNL     1       8.709  10.576  18.133  0.00  0.00    +0.000 C 
ENDROOT
BRANCH   1   2
ATOM      2  C   UNL     1       8.550   9.075  18.386  0.00  0.00    +0.000 C 
BRANCH   2   6
ATOM      3  N   UNL     1       6.450   6.646  16.654  0.00  0.00    +0.000 N 
ATOM      4  C   UNL     1       7.374   7.088  17.560  0.00  0.00    +0.000 C 
ATOM      5  O   UNL     1       7.919   6.361  18.388  0.00  0.00    +0.000 OA
ATOM      6  N   UNL     1       7.632   8.435  17.461  0.00  0.00    +0.000 N 
ATOM      7  H   UNL     1       6.039   7.316  16.025  0.00  0.00    +0.000 HD
ATOM      8  H   UNL     1       7.139   8.999  16.788  0.00  0.00    +0.000 HD
BRANCH   3  10
ATOM      9  C   UNL     1       5.939   4.817  15.085  0.00  0.00    +0.000 C 
ATOM     10  C   UNL     1       6.062   5.229  16.563  0.00  0.00    +0.000 C 
BRANCH  10  11
ATOM     11  C   UNL     1       4.779   4.880  17.405  0.00  0.00    +0.000 C 
ATOM     12  C   UNL     1       5.169   4.368  18.830  0.00  0.00    +0.000 C 
ATOM     13  C   UNL     1       3.926   4.042  19.674  0.00  0.00    +0.000 C 
ATOM     14  C   UNL     1       3.083   5.315  19.834  0.00  0.00    +0.000 C 
ATOM     15  C   UNL     1       2.645   5.828  18.454  0.00  0.00    +0.000 C 
ATOM     16  C   UNL     1       1.810   4.742  17.760  0.00  0.00    +0.000 C 
ATOM     17  C   UNL     1       2.653   3.471  17.581  0.00  0.00    +0.000 C 
ATOM     18  C   UNL     1       3.105   2.960  18.958  0.00  0.00    +0.000 C 
ATOM     19  C   UNL     1       3.893   3.796  16.728  0.00  0.00    +0.000 C 
ATOM     20  C   UNL     1       3.889   6.144  17.600  0.00  0.00    +0.000 C 
ENDBRANCH  10  11
ENDBRANCH   3  10
ENDBRANCH   2   6
ENDBRANCH   1   2
BRANCH   1  21
ATOM     21  C   UNL     1      10.132  11.063  18.443  0.00  0.00    +0.000 C 
BRANCH  21  22
ATOM     22  C   UNL     1      10.130  12.274  19.380  0.00  0.00    +0.000 C 
BRANCH  22  23
ATOM     23  N   UNL     1       9.235  12.096  20.509  0.00  0.00    +0.000 N 
ATOM     24  C   UNL     1       8.693  13.180  21.140  0.00  0.00    +0.000 C 
ATOM     25  O   UNL     1       8.976  14.344  20.832  0.00  0.00    +0.000 OA
ATOM     26  N   UNL     1       7.816  12.857  22.134  0.00  0.00    +0.000 N 
ATOM     27  H   UNL     1       8.853  11.175  20.683  0.00  0.00    +0.000 HD
ATOM     28  H   UNL     1       7.907  11.925  22.523  0.00  0.00    +0.000 HD
BRANCH  26  29
ATOM     29  C   UNL     1       7.100  13.877  22.921  0.00  0.00    +0.000 C 
ATOM     30  C   UNL     1       5.810  14.269  22.174  0.00  0.00    +0.000 C 
BRANCH  29  31
ATOM     31  C   UNL     1       6.829  13.476  24.426  0.00  0.00    +0.000 C 
ATOM     32  C   UNL     1       6.642  11.940  24.605  0.00  0.00    +0.000 C 
ATOM     33  C   UNL     1       6.403  11.563  26.078  0.00  0.00    +0.000 C 
ATOM     34  C   UNL     1       7.613  11.993  26.920  0.00  0.00    +0.000 C 
ATOM     35  C   UNL     1       7.817  13.507  26.797  0.00  0.00    +0.000 C 
ATOM     36  C   UNL     1       6.560  14.224  27.314  0.00  0.00    +0.000 C 
ATOM     37  C   UNL     1       5.340  13.804  26.479  0.00  0.00    +0.000 C 
ATOM     38  C   UNL     1       5.143  12.285  26.580  0.00  0.00    +0.000 C 
ATOM     39  C   UNL     1       5.575  14.187  25.007  0.00  0.00    +0.000 C 
ATOM     40  C   UNL     1       8.046  13.877  25.320  0.00  0.00    +0.000 C 
ENDBRANCH  29  31
ENDBRANCH  26  29
ENDBRANCH  22  23
ENDBRANCH  21  22
ENDBRANCH   1  21
TORSDOF 9
ENDMDL
MODEL 4
REMARK VINA RESULT:      -8.2      7.629     11.986
REMARK  Name = 
REMARK  11 active torsions:
REMARK  status: ('A' for Active; 'I' for Inactive)
REMARK    1  A    between atoms: C_1  and  C_2
REMARK    2  A    between atoms: C_2  and  N_3
REMARK    3  A    between atoms: C_2  and  C_27
REMARK    4  A    between atoms: N_6  and  C_7
REMARK    5  A    between atoms: C_7  and  C_8
REMARK    6  A    between atoms: C_8  and  C_9
REMARK    7  A    between atoms: C_9  and  C_10
REMARK    8  A    between atoms: C_10  and  N_11
REMARK    9  A    between atoms: N_14  and  C_15
REMARK   10  A    between atoms: C_15  and  C_16
REMARK   11  A    between atoms: C_15  and  C_17
REMARK                            x       y       z     vdW  Elec       q    Type
REMARK                         _______ _______ _______ _____ _____    ______ ____
ROOT
ATOM      1  C   UNL     1      -1.153  10.181  18.799  0.00  0.00    +0.000 C 
ENDROOT
BRANCH   1   2
ATOM      2  C   UNL     1      -1.967   9.992  17.517  0.00  0.00    +0.000 C 
BRANCH   2   6
ATOM      3  N   UNL     1      -4.865  12.210  17.515  0.00  0.00    +0.000 N 
ATOM      4  C   UNL     1      -4.142  11.086  17.808  0.00  0.00    +0.000 C 
ATOM      5  O   UNL     1      -4.568  10.164  18.501  0.00  0.00    +0.000 OA
ATOM      6  N   UNL     1      -2.883  11.089  17.257  0.00  0.00    +0.000 N 
ATOM      7  H   UNL     1      -4.428  12.925  16.957  0.00  0.00    +0.000 HD
ATOM      8  H   UNL     1      -2.564  11.880  16.723  0.00  0.00    +0.000 HD
BRANCH   3  10
ATOM      9  C   UNL     1      -7.027  13.251  16.962  0.00  0.00    +0.000 C 
ATOM     10  C   UNL     1      -6.252  12.388  17.973  0.00  0.00    +0.000 C 
BRANCH  10  11
ATOM     11  C   UNL     1      -6.356  12.928  19.448  0.00  0.00    +0.000 C 
ATOM     12  C   UNL     1      -6.850  11.807  20.419  0.00  0.00    +0.000 C 
ATOM     13  C   UNL     1      -6.938  12.313  21.868  0.00  0.00    +0.000 C 
ATOM     14  C   UNL     1      -5.544  12.766  22.324  0.00  0.00    +0.000 C 
ATOM     15  C   UNL     1      -5.039  13.897  21.417  0.00  0.00    +0.000 C 
ATOM     16  C   UNL     1      -6.016  15.078  21.503  0.00  0.00    +0.000 C 
ATOM     17  C   UNL     1      -7.409  14.637  21.030  0.00  0.00    +0.000 C 
ATOM     18  C   UNL     1      -7.915  13.496  21.928  0.00  0.00    +0.000 C 
ATOM     19  C   UNL     1      -7.323  14.139  19.576  0.00  0.00    +0.000 C 
ATOM     20  C   UNL     1      -4.962  13.398  19.960  0.00  0.00    +0.000 C 
ENDBRANCH  10  11
ENDBRANCH   3  10
ENDBRANCH   2   6
ENDBRANCH   1   2
BRANCH   1  21
ATOM     21  C   UNL     1      -0.157  11.344  18.681  0.00  0.00    +0.000 C 
BRANCH  21  22
ATOM     22  C   UNL     1       1.277  10.850  18.475  0.00  0.00    +0.000 C 
BRANCH  22  23
ATOM     23  N   UNL     1       1.452   9.472  18.898  0.00  0.00    +0.000 N 
ATOM     24  C   UNL     1       2.149   8.592  18.119  0.00  0.00    +0.000 C 
ATOM     25  O   UNL     1       2.606   8.895  17.010  0.00  0.00    +0.000 OA
ATOM     26  N   UNL     1       2.292   7.356  18.678  0.00  0.00    +0.000 N 
ATOM     27  H   UNL     1       1.242   9.230  19.858  0.00  0.00    +0.000 HD
ATOM     28  H   UNL     1       1.622   7.112  19.398  0.00  0.00    +0.000 HD
BRANCH  26  29
ATOM     29  C   UNL     1       3.034   6.268  18.016  0.00  0.00    +0.000 C 
ATOM     30  C   UNL     1       4.533   6.625  17.998  0.00  0.00    +0.000 C 
BRANCH  29  31
ATOM     31  C   UNL     1       2.762   4.829  18.611  0.00  0.00    +0.000 C 
ATOM     32  C   UNL     1       2.416   4.872  20.129  0.00  0.00    +0.000 C 
ATOM     33  C   UNL     1       2.130   3.466  20.688  0.00  0.00    +0.000 C 
ATOM     34  C   UNL     1       0.932   2.854  19.947  0.00  0.00    +0.000 C 
ATOM     35  C   UNL     1       1.242   2.765  18.449  0.00  0.00    +0.000 C 
ATOM     36  C   UNL     1       2.474   1.869  18.246  0.00  0.00    +0.000 C 
ATOM     37  C   UNL     1       3.683   2.471  18.981  0.00  0.00    +0.000 C 
ATOM     38  C   UNL     1       3.371   2.585  20.479  0.00  0.00    +0.000 C 
ATOM     39  C   UNL     1       3.974   3.874  18.417  0.00  0.00    +0.000 C 
ATOM     40  C   UNL     1       1.536   4.173  17.899  0.00  0.00    +0.000 C 
ENDBRANCH  29  31
ENDBRANCH  26  29
ENDBRANCH  22  23
ENDBRANCH  21  22
ENDBRANCH   1  21
TORSDOF 9
ENDMDL
MODEL 5
REMARK VINA RESULT:      -8.2      7.060      9.781
REMARK  Name = 
REMARK  11 active torsions:
REMARK  status: ('A' for Active; 'I' for Inactive)
REMARK    1  A    between atoms: C_1  and  C_2
REMARK    2  A    between atoms: C_2  and  N_3
REMARK    3  A    between atoms: C_2  and  C_27
REMARK    4  A    between atoms: N_6  and  C_7
REMARK    5  A    between atoms: C_7  and  C_8
REMARK    6  A    between atoms: C_8  and  C_9
REMARK    7  A    between atoms: C_9  and  C_10
REMARK    8  A    between atoms: C_10  and  N_11
REMARK    9  A    between atoms: N_14  and  C_15
REMARK   10  A    between atoms: C_15  and  C_16
REMARK   11  A    between atoms: C_15  and  C_17
REMARK                            x       y       z     vdW  Elec       q    Type
REMARK                         _______ _______ _______ _____ _____    ______ ____
ROOT
ATOM      1  C   UNL     1       0.573  11.499  18.389  0.00  0.00    +0.000 C 
ENDROOT
BRANCH   1   2
ATOM      2  C   UNL     1       0.274  10.026  18.675  0.00  0.00    +0.000 C 
BRANCH   2   6
ATOM      3  N   UNL     1       2.730   7.441  17.903  0.00  0.00    +0.000 N 
ATOM      4  C   UNL     1       1.984   8.269  18.695  0.00  0.00    +0.000 C 
ATOM      5  O   UNL     1       2.027   8.257  19.923  0.00  0.00    +0.000 OA
ATOM      6  N   UNL     1       1.170   9.118  17.982  0.00  0.00    +0.000 N 
ATOM      7  H   UNL     1       2.616   7.505  16.904  0.00  0.00    +0.000 HD
ATOM      8  H   UNL     1       1.144   9.071  16.977  0.00  0.00    +0.000 HD
BRANCH   3  10
ATOM      9  C   UNL     1       4.921   6.376  17.538  0.00  0.00    +0.000 C 
ATOM     10  C   UNL     1       3.697   6.484  18.464  0.00  0.00    +0.000 C 
BRANCH  10  11
ATOM     11  C   UNL     1       3.061   5.085  18.807  0.00  0.00    +0.000 C 
ATOM     12  C   UNL     1       4.112   3.939  18.641  0.00  0.00    +0.000 C 
ATOM     13  C   UNL     1       3.513   2.568  18.991  0.00  0.00    +0.000 C 
ATOM     14  C   UNL     1       3.047   2.585  20.453  0.00  0.00    +0.000 C 
ATOM     15  C   UNL     1       1.982   3.675  20.649  0.00  0.00    +0.000 C 
ATOM     16  C   UNL     1       0.787   3.374  19.733  0.00  0.00    +0.000 C 
ATOM     17  C   UNL     1       1.242   3.372  18.266  0.00  0.00    +0.000 C 
ATOM     18  C   UNL     1       2.318   2.292  18.067  0.00  0.00    +0.000 C 
ATOM     19  C   UNL     1       1.835   4.749  17.912  0.00  0.00    +0.000 C 
ATOM     20  C   UNL     1       2.575   5.050  20.286  0.00  0.00    +0.000 C 
ENDBRANCH  10  11
ENDBRANCH   3  10
ENDBRANCH   2   6
ENDBRANCH   1   2
BRANCH   1  21
ATOM     21  C   UNL     1       1.624  12.069  19.352  0.00  0.00    +0.000 C 
BRANCH  21  22
ATOM     22  C   UNL     1       1.013  13.064  20.342  0.00  0.00    +0.000 C 
BRANCH  22  23
ATOM     23  N   UNL     1      -0.327  13.470  19.958  0.00  0.00    +0.000 N 
ATOM     24  C   UNL     1      -1.408  13.069  20.692  0.00  0.00    +0.000 C 
ATOM     25  O   UNL     1      -1.314  12.308  21.662  0.00  0.00    +0.000 OA
ATOM     26  N   UNL     1      -2.592  13.587  20.255  0.00  0.00    +0.000 N 
ATOM     27  H   UNL     1      -0.432  14.216  19.283  0.00  0.00    +0.000 HD
ATOM     28  H   UNL     1      -2.611  13.908  19.293  0.00  0.00    +0.000 HD
BRANCH  26  29
ATOM     29  C   UNL     1      -3.875  13.303  20.922  0.00  0.00    +0.000 C 
ATOM     30  C   UNL     1      -4.274  14.521  21.778  0.00  0.00    +0.000 C 
BRANCH  29  31
ATOM     31  C   UNL     1      -5.034  12.841  19.951  0.00  0.00    +0.000 C 
ATOM     32  C   UNL     1      -5.747  14.045  19.266  0.00  0.00    +0.000 C 
ATOM     33  C   UNL     1      -6.856  13.579  18.305  0.00  0.00    +0.000 C 
ATOM     34  C   UNL     1      -6.244  12.701  17.203  0.00  0.00    +0.000 C 
ATOM     35  C   UNL     1      -5.556  11.485  17.834  0.00  0.00    +0.000 C 
ATOM     36  C   UNL     1      -6.600  10.668  18.611  0.00  0.00    +0.000 C 
ATOM     37  C   UNL     1      -7.220  11.534  19.719  0.00  0.00    +0.000 C 
ATOM     38  C   UNL     1      -7.891  12.766  19.097  0.00  0.00    +0.000 C 
ATOM     39  C   UNL     1      -6.112  11.994  20.684  0.00  0.00    +0.000 C 
ATOM     40  C   UNL     1      -4.455  11.959  18.799  0.00  0.00    +0.000 C 
ENDBRANCH  29  31
ENDBRANCH  26  29
ENDBRANCH  22  23
ENDBRANCH  21  22
ENDBRANCH   1  21
TORSDOF 9
ENDMDL
MODEL 6
REMARK VINA RESULT:      -8.1      4.205      5.589
REMARK  Name = 
REMARK  11 active torsions:
REMARK  status: ('A' for Active; 'I' for Inactive)
REMARK    1  A    between atoms: C_1  and  C_2
REMARK    2  A    between atoms: C_2  and  N_3
REMARK    3  A    between atoms: C_2  and  C_27
REMARK    4  A    between atoms: N_6  and  C_7
REMARK    5  A    between atoms: C_7  and  C_8
REMARK    6  A    between atoms: C_8  and  C_9
REMARK    7  A    between atoms: C_9  and  C_10
REMARK    8  A    between atoms: C_10  and  N_11
REMARK    9  A    between atoms: N_14  and  C_15
REMARK   10  A    between atoms: C_15  and  C_16
REMARK   11  A    between atoms: C_15  and  C_17
REMARK                            x       y       z     vdW  Elec       q    Type
REMARK                         _______ _______ _______ _____ _____    ______ ____
ROOT
ATOM      1  C   UNL     1       9.732  11.198  17.993  0.00  0.00    +0.000 C 
ENDROOT
BRANCH   1   2
ATOM      2  C   UNL     1       8.658  10.321  18.640  0.00  0.00    +0.000 C 
BRANCH   2   6
ATOM      3  N   UNL     1       7.167   7.477  16.909  0.00  0.00    +0.000 N 
ATOM      4  C   UNL     1       7.910   8.121  17.859  0.00  0.00    +0.000 C 
ATOM      5  O   UNL     1       8.479   7.545  18.784  0.00  0.00    +0.000 OA
ATOM      6  N   UNL     1       7.955   9.484  17.686  0.00  0.00    +0.000 N 
ATOM      7  H   UNL     1       6.718   8.032  16.197  0.00  0.00    +0.000 HD
ATOM      8  H   UNL     1       7.448   9.917  16.931  0.00  0.00    +0.000 HD
BRANCH   3  10
ATOM      9  C   UNL     1       7.213   5.492  15.452  0.00  0.00    +0.000 C 
ATOM     10  C   UNL     1       7.025   6.013  16.887  0.00  0.00    +0.000 C 
BRANCH  10  11
ATOM     11  C   UNL     1       5.691   5.507  17.553  0.00  0.00    +0.000 C 
ATOM     12  C   UNL     1       5.241   4.144  16.935  0.00  0.00    +0.000 C 
ATOM     13  C   UNL     1       3.950   3.625  17.589  0.00  0.00    +0.000 C 
ATOM     14  C   UNL     1       4.199   3.415  19.089  0.00  0.00    +0.000 C 
ATOM     15  C   UNL     1       4.605   4.744  19.742  0.00  0.00    +0.000 C 
ATOM     16  C   UNL     1       3.473   5.762  19.547  0.00  0.00    +0.000 C 
ATOM     17  C   UNL     1       3.230   5.991  18.048  0.00  0.00    +0.000 C 
ATOM     18  C   UNL     1       2.835   4.661  17.386  0.00  0.00    +0.000 C 
ATOM     19  C   UNL     1       4.520   6.519  17.395  0.00  0.00    +0.000 C 
ATOM     20  C   UNL     1       5.893   5.274  19.080  0.00  0.00    +0.000 C 
ENDBRANCH  10  11
ENDBRANCH   3  10
ENDBRANCH   2   6
ENDBRANCH   1   2
BRANCH   1  21
ATOM     21  C   UNL     1       9.126  12.408  17.268  0.00  0.00    +0.000 C 
BRANCH  21  22
ATOM     22  C   UNL     1       8.277  13.270  18.205  0.00  0.00    +0.000 C 
BRANCH  22  23
ATOM     23  N   UNL     1       6.978  13.588  17.636  0.00  0.00    +0.000 N 
ATOM     24  C   UNL     1       6.118  14.417  18.298  0.00  0.00    +0.000 C 
ATOM     25  O   UNL     1       6.364  14.883  19.418  0.00  0.00    +0.000 OA
ATOM     26  N   UNL     1       4.970  14.682  17.610  0.00  0.00    +0.000 N 
ATOM     27  H   UNL     1       6.810  13.367  16.664  0.00  0.00    +0.000 HD
ATOM     28  H   UNL     1       4.719  14.014  16.889  0.00  0.00    +0.000 HD
BRANCH  26  29
ATOM     29  C   UNL     1       3.921  15.575  18.132  0.00  0.00    +0.000 C 
ATOM     30  C   UNL     1       3.481  16.538  17.012  0.00  0.00    +0.000 C 
BRANCH  29  31
ATOM     31  C   UNL     1       2.699  14.832  18.805  0.00  0.00    +0.000 C 
ATOM     32  C   UNL     1       1.374  15.643  18.686  0.00  0.00    +0.000 C 
ATOM     33  C   UNL     1       0.189  14.896  19.324  0.00  0.00    +0.000 C 
ATOM     34  C   UNL     1      -0.014  13.552  18.611  0.00  0.00    +0.000 C 
ATOM     35  C   UNL     1       1.259  12.706  18.730  0.00  0.00    +0.000 C 
ATOM     36  C   UNL     1       1.553  12.451  20.216  0.00  0.00    +0.000 C 
ATOM     37  C   UNL     1       1.760  13.789  20.944  0.00  0.00    +0.000 C 
ATOM     38  C   UNL     1       0.497  14.650  20.810  0.00  0.00    +0.000 C 
ATOM     39  C   UNL     1       2.949  14.533  20.310  0.00  0.00    +0.000 C 
ATOM     40  C   UNL     1       2.441  13.464  18.097  0.00  0.00    +0.000 C 
ENDBRANCH  29  31
ENDBRANCH  26  29
ENDBRANCH  22  23
ENDBRANCH  21  22
ENDBRANCH   1  21
TORSDOF 9
ENDMDL
MODEL 7
REMARK VINA RESULT:      -8.1      3.553      5.446
REMARK  Name = 
REMARK  11 active torsions:
REMARK  status: ('A' for Active; 'I' for Inactive)
REMARK    1  A    between atoms: C_1  and  C_2
REMARK    2  A    between atoms: C_2  and  N_3
REMARK    3  A    between atoms: C_2  and  C_27
REMARK    4  A    between atoms: N_6  and  C_7
REMARK    5  A    between atoms: C_7  and  C_8
REMARK    6  A    between atoms: C_8  and  C_9
REMARK    7  A    between atoms: C_9  and  C_10
REMARK    8  A    between atoms: C_10  and  N_11
REMARK    9  A    between atoms: N_14  and  C_15
REMARK   10  A    between atoms: C_15  and  C_16
REMARK   11  A    between atoms: C_15  and  C_17
REMARK                            x       y       z     vdW  Elec       q    Type
REMARK                         _______ _______ _______ _____ _____    ______ ____
ROOT
ATOM      1  C   UNL     1       0.534  11.649  18.797  0.00  0.00    +0.000 C 
ENDROOT
BRANCH   1   2
ATOM      2  C   UNL     1       0.242  10.192  19.160  0.00  0.00    +0.000 C 
BRANCH   2   6
ATOM      3  N   UNL     1       2.505   7.536  18.094  0.00  0.00    +0.000 N 
ATOM      4  C   UNL     1       1.910   8.405  18.966  0.00  0.00    +0.000 C 
ATOM      5  O   UNL     1       2.154   8.436  20.171  0.00  0.00    +0.000 OA
ATOM      6  N   UNL     1       1.001   9.243  18.365  0.00  0.00    +0.000 N 
ATOM      7  H   UNL     1       2.230   7.568  17.126  0.00  0.00    +0.000 HD
ATOM      8  H   UNL     1       0.809   9.162  17.380  0.00  0.00    +0.000 HD
BRANCH   3  10
ATOM      9  C   UNL     1       4.669   6.531  17.482  0.00  0.00    +0.000 C 
ATOM     10  C   UNL     1       3.539   6.582  18.526  0.00  0.00    +0.000 C 
BRANCH  10  11
ATOM     11  C   UNL     1       2.965   5.159  18.878  0.00  0.00    +0.000 C 
ATOM     12  C   UNL     1       1.803   4.771  17.907  0.00  0.00    +0.000 C 
ATOM     13  C   UNL     1       1.244   3.374  18.225  0.00  0.00    +0.000 C 
ATOM     14  C   UNL     1       2.367   2.340  18.070  0.00  0.00    +0.000 C 
ATOM     15  C   UNL     1       3.514   2.665  19.038  0.00  0.00    +0.000 C 
ATOM     16  C   UNL     1       2.977   2.628  20.476  0.00  0.00    +0.000 C 
ATOM     17  C   UNL     1       1.865   3.673  20.644  0.00  0.00    +0.000 C 
ATOM     18  C   UNL     1       0.719   3.361  19.668  0.00  0.00    +0.000 C 
ATOM     19  C   UNL     1       2.427   5.073  20.334  0.00  0.00    +0.000 C 
ATOM     20  C   UNL     1       4.068   4.070  18.732  0.00  0.00    +0.000 C 
ENDBRANCH  10  11
ENDBRANCH   3  10
ENDBRANCH   2   6
ENDBRANCH   1   2
BRANCH   1  21
ATOM     21  C   UNL     1       1.976  11.841  18.306  0.00  0.00    +0.000 C 
BRANCH  21  22
ATOM     22  C   UNL     1       2.533  13.215  18.687  0.00  0.00    +0.000 C 
BRANCH  22  23
ATOM     23  N   UNL     1       3.681  13.588  17.878  0.00  0.00    +0.000 N 
ATOM     24  C   UNL     1       4.696  14.326  18.418  0.00  0.00    +0.000 C 
ATOM     25  O   UNL     1       4.668  14.759  19.576  0.00  0.00    +0.000 OA
ATOM     26  N   UNL     1       5.738  14.536  17.563  0.00  0.00    +0.000 N 
ATOM     27  H   UNL     1       3.820  13.121  16.992  0.00  0.00    +0.000 HD
ATOM     28  H   UNL     1       5.529  14.442  16.575  0.00  0.00    +0.000 HD
BRANCH  26  29
ATOM     29  C   UNL     1       6.946  15.284  17.954  0.00  0.00    +0.000 C 
ATOM     30  C   UNL     1       6.577  16.279  19.072  0.00  0.00    +0.000 C 
BRANCH  29  31
ATOM     31  C   UNL     1       8.185  14.380  18.335  0.00  0.00    +0.000 C 
ATOM     32  C   UNL     1       8.220  14.033  19.853  0.00  0.00    +0.000 C 
ATOM     33  C   UNL     1       9.419  13.132  20.204  0.00  0.00    +0.000 C 
ATOM     34  C   UNL     1       9.318  11.816  19.420  0.00  0.00    +0.000 C 
ATOM     35  C   UNL     1       9.311  12.110  17.916  0.00  0.00    +0.000 C 
ATOM     36  C   UNL     1      10.619  12.824  17.540  0.00  0.00    +0.000 C 
ATOM     37  C   UNL     1      10.732  14.145  18.317  0.00  0.00    +0.000 C 
ATOM     38  C   UNL     1      10.717  13.860  19.825  0.00  0.00    +0.000 C 
ATOM     39  C   UNL     1       9.538  15.049  17.961  0.00  0.00    +0.000 C 
ATOM     40  C   UNL     1       8.115  13.018  17.574  0.00  0.00    +0.000 C 
ENDBRANCH  29  31
ENDBRANCH  26  29
ENDBRANCH  22  23
ENDBRANCH  21  22
ENDBRANCH   1  21
TORSDOF 9
ENDMDL
MODEL 8
REMARK VINA RESULT:      -8.1      3.466      5.432
REMARK  Name = 
REMARK  11 active torsions:
REMARK  status: ('A' for Active; 'I' for Inactive)
REMARK    1  A    between atoms: C_1  and  C_2
REMARK    2  A    between atoms: C_2  and  N_3
REMARK    3  A    between atoms: C_2  and  C_27
REMARK    4  A    between atoms: N_6  and  C_7
REMARK    5  A    between atoms: C_7  and  C_8
REMARK    6  A    between atoms: C_8  and  C_9
REMARK    7  A    between atoms: C_9  and  C_10
REMARK    8  A    between atoms: C_10  and  N_11
REMARK    9  A    between atoms: N_14  and  C_15
REMARK   10  A    between atoms: C_15  and  C_16
REMARK   11  A    between atoms: C_15  and  C_17
REMARK                            x       y       z     vdW  Elec       q    Type
REMARK                         _______ _______ _______ _____ _____    ______ ____
ROOT
ATOM      1  C   UNL     1       2.581  13.113  18.772  0.00  0.00    +0.000 C 
ENDROOT
BRANCH   1   2
ATOM      2  C   UNL     1       1.810  12.114  17.905  0.00  0.00    +0.000 C 
BRANCH   2   6
ATOM      3  N   UNL     1       2.645   8.568  18.097  0.00  0.00    +0.000 N 
ATOM      4  C   UNL     1       1.925   9.704  18.343  0.00  0.00    +0.000 C 
ATOM      5  O   UNL     1       0.882   9.723  18.993  0.00  0.00    +0.000 OA
ATOM      6  N   UNL     1       2.479  10.831  17.783  0.00  0.00    +0.000 N 
ATOM      7  H   UNL     1       3.479   8.642  17.537  0.00  0.00    +0.000 HD
ATOM      8  H   UNL     1       3.319  10.765  17.232  0.00  0.00    +0.000 HD
BRANCH   3  10
ATOM      9  C   UNL     1       2.005   7.377  20.156  0.00  0.00    +0.000 C 
ATOM     10  C   UNL     1       2.248   7.259  18.641  0.00  0.00    +0.000 C 
BRANCH  10  11
ATOM     11  C   UNL     1       3.247   6.101  18.269  0.00  0.00    +0.000 C 
ATOM     12  C   UNL     1       4.329   6.602  17.257  0.00  0.00    +0.000 C 
ATOM     13  C   UNL     1       5.327   5.488  16.899  0.00  0.00    +0.000 C 
ATOM     14  C   UNL     1       6.039   5.025  18.177  0.00  0.00    +0.000 C 
ATOM     15  C   UNL     1       5.011   4.487  19.183  0.00  0.00    +0.000 C 
ATOM     16  C   UNL     1       4.268   3.301  18.551  0.00  0.00    +0.000 C 
ATOM     17  C   UNL     1       3.538   3.761  17.281  0.00  0.00    +0.000 C 
ATOM     18  C   UNL     1       4.561   4.312  16.275  0.00  0.00    +0.000 C 
ATOM     19  C   UNL     1       2.533   4.871  17.641  0.00  0.00    +0.000 C 
ATOM     20  C   UNL     1       4.001   5.598  19.535  0.00  0.00    +0.000 C 
ENDBRANCH  10  11
ENDBRANCH   3  10
ENDBRANCH   2   6
ENDBRANCH   1   2
BRANCH   1  21
ATOM     21  C   UNL     1       2.287  14.566  18.373  0.00  0.00    +0.000 C 
BRANCH  21  22
ATOM     22  C   UNL     1       3.538  15.445  18.449  0.00  0.00    +0.000 C 
BRANCH  22  23
ATOM     23  N   UNL     1       4.697  14.713  18.928  0.00  0.00    +0.000 N 
ATOM     24  C   UNL     1       5.934  15.292  18.914  0.00  0.00    +0.000 C 
ATOM     25  O   UNL     1       6.142  16.418  18.448  0.00  0.00    +0.000 OA
ATOM     26  N   UNL     1       6.912  14.512  19.461  0.00  0.00    +0.000 N 
ATOM     27  H   UNL     1       4.547  13.867  19.463  0.00  0.00    +0.000 HD
ATOM     28  H   UNL     1       6.720  13.518  19.500  0.00  0.00    +0.000 HD
BRANCH  26  29
ATOM     29  C   UNL     1       8.312  14.959  19.570  0.00  0.00    +0.000 C 
ATOM     30  C   UNL     1       8.505  15.674  20.921  0.00  0.00    +0.000 C 
BRANCH  29  31
ATOM     31  C   UNL     1       9.386  13.823  19.329  0.00  0.00    +0.000 C 
ATOM     32  C   UNL     1       9.757  13.072  20.642  0.00  0.00    +0.000 C 
ATOM     33  C   UNL     1      10.784  11.953  20.388  0.00  0.00    +0.000 C 
ATOM     34  C   UNL     1      10.195  10.929  19.407  0.00  0.00    +0.000 C 
ATOM     35  C   UNL     1       9.842  11.623  18.086  0.00  0.00    +0.000 C 
ATOM     36  C   UNL     1      11.120  12.226  17.481  0.00  0.00    +0.000 C 
ATOM     37  C   UNL     1      11.720  13.255  18.453  0.00  0.00    +0.000 C 
ATOM     38  C   UNL     1      12.055  12.572  19.786  0.00  0.00    +0.000 C 
ATOM     39  C   UNL     1      10.696  14.377  18.702  0.00  0.00    +0.000 C 
ATOM     40  C   UNL     1       8.822  12.745  18.350  0.00  0.00    +0.000 C 
ENDBRANCH  29  31
ENDBRANCH  26  29
ENDBRANCH  22  23
ENDBRANCH  21  22
ENDBRANCH   1  21
TORSDOF 9
ENDMDL
MODEL 9
REMARK VINA RESULT:      -8.1      8.081     12.169
REMARK  Name = 
REMARK  11 active torsions:
REMARK  status: ('A' for Active; 'I' for Inactive)
REMARK    1  A    between atoms: C_1  and  C_2
REMARK    2  A    between atoms: C_2  and  N_3
REMARK    3  A    between atoms: C_2  and  C_27
REMARK    4  A    between atoms: N_6  and  C_7
REMARK    5  A    between atoms: C_7  and  C_8
REMARK    6  A    between atoms: C_8  and  C_9
REMARK    7  A    between atoms: C_9  and  C_10
REMARK    8  A    between atoms: C_10  and  N_11
REMARK    9  A    between atoms: N_14  and  C_15
REMARK   10  A    between atoms: C_15  and  C_16
REMARK   11  A    between atoms: C_15  and  C_17
REMARK                            x       y       z     vdW  Elec       q    Type
REMARK                         _______ _______ _______ _____ _____    ______ ____
ROOT
ATOM      1  C   UNL     1      -1.557  10.252  17.641  0.00  0.00    +0.000 C 
ENDROOT
BRANCH   1   2
ATOM      2  C   UNL     1      -2.566  11.112  16.878  0.00  0.00    +0.000 C 
BRANCH   2   6
ATOM      3  N   UNL     1      -5.021  12.746  19.026  0.00  0.00    +0.000 N 
ATOM      4  C   UNL     1      -4.521  11.778  18.199  0.00  0.00    +0.000 C 
ATOM      5  O   UNL     1      -5.130  10.750  17.908  0.00  0.00    +0.000 OA
ATOM      6  N   UNL     1      -3.262  12.062  17.727  0.00  0.00    +0.000 N 
ATOM      7  H   UNL     1      -4.444  13.547  19.227  0.00  0.00    +0.000 HD
ATOM      8  H   UNL     1      -2.788  12.902  18.016  0.00  0.00    +0.000 HD
BRANCH   3  10
ATOM      9  C   UNL     1      -7.374  13.400  18.709  0.00  0.00    +0.000 C 
ATOM     10  C   UNL     1      -6.370  12.656  19.607  0.00  0.00    +0.000 C 
BRANCH  10  11
ATOM     11  C   UNL     1      -6.433  13.119  21.110  0.00  0.00    +0.000 C 
ATOM     12  C   UNL     1      -7.516  12.313  21.898  0.00  0.00    +0.000 C 
ATOM     13  C   UNL     1      -7.576  12.739  23.374  0.00  0.00    +0.000 C 
ATOM     14  C   UNL     1      -6.212  12.475  24.026  0.00  0.00    +0.000 C 
ATOM     15  C   UNL     1      -5.124  13.283  23.303  0.00  0.00    +0.000 C 
ATOM     16  C   UNL     1      -5.461  14.777  23.406  0.00  0.00    +0.000 C 
ATOM     17  C   UNL     1      -6.817  15.051  22.740  0.00  0.00    +0.000 C 
ATOM     18  C   UNL     1      -7.909  14.236  23.450  0.00  0.00    +0.000 C 
ATOM     19  C   UNL     1      -6.755  14.633  21.259  0.00  0.00    +0.000 C 
ATOM     20  C   UNL     1      -5.069  12.868  21.820  0.00  0.00    +0.000 C 
ENDBRANCH  10  11
ENDBRANCH   3  10
ENDBRANCH   2   6
ENDBRANCH   1   2
BRANCH   1  21
ATOM     21  C   UNL     1      -0.905  11.022  18.799  0.00  0.00    +0.000 C 
BRANCH  21  22
ATOM     22  C   UNL     1       0.621  11.036  18.689  0.00  0.00    +0.000 C 
BRANCH  22  23
ATOM     23  N   UNL     1       1.168   9.714  18.439  0.00  0.00    +0.000 N 
ATOM     24  C   UNL     1       1.513   8.900  19.480  0.00  0.00    +0.000 C 
ATOM     25  O   UNL     1       1.440   9.256  20.662  0.00  0.00    +0.000 OA
ATOM     26  N   UNL     1       1.943   7.664  19.092  0.00  0.00    +0.000 N 
ATOM     27  H   UNL     1       1.089   9.327  17.507  0.00  0.00    +0.000 HD
ATOM     28  H   UNL     1       2.280   7.588  18.139  0.00  0.00    +0.000 HD
BRANCH  26  29
ATOM     29  C   UNL     1       2.338   6.624  20.059  0.00  0.00    +0.000 C 
ATOM     30  C   UNL     1       1.210   6.451  21.095  0.00  0.00    +0.000 C 
BRANCH  29  31
ATOM     31  C   UNL     1       2.775   5.251  19.407  0.00  0.00    +0.000 C 
ATOM     32  C   UNL     1       2.232   5.086  17.956  0.00  0.00    +0.000 C 
ATOM     33  C   UNL     1       2.686   3.757  17.326  0.00  0.00    +0.000 C 
ATOM     34  C   UNL     1       4.220   3.716  17.264  0.00  0.00    +0.000 C 
ATOM     35  C   UNL     1       4.798   3.846  18.678  0.00  0.00    +0.000 C 
ATOM     36  C   UNL     1       4.295   2.673  19.533  0.00  0.00    +0.000 C 
ATOM     37  C   UNL     1       2.760   2.701  19.605  0.00  0.00    +0.000 C 
ATOM     38  C   UNL     1       2.174   2.594  18.191  0.00  0.00    +0.000 C 
ATOM     39  C   UNL     1       2.306   4.028  20.242  0.00  0.00    +0.000 C 
ATOM     40  C   UNL     1       4.332   5.173  19.304  0.00  0.00    +0.000 C 
ENDBRANCH  29  31
ENDBRANCH  26  29
ENDBRANCH  22  23
ENDBRANCH  21  22
ENDBRANCH   1  21
TORSDOF 9
ENDMDL
