MODEL 1
REMARK VINA RESULT:      -7.0      0.000      0.000
REMARK  Name = 
REMARK  9 active torsions:
REMARK  status: ('A' for Active; 'I' for Inactive)
REMARK    1  A    between atoms: C_1  and  O_2
REMARK    2  A    between atoms: O_2  and  C_3
REMARK    3  A    between atoms: C_3  and  C_5
REMARK    4  A    between atoms: C_10  and  N_11
REMARK    5  A    between atoms: C_12  and  C_14
REMARK    6  A    between atoms: C_14  and  N_15
REMARK    7  A    between atoms: N_15  and  C_16
REMARK    8  A    between atoms: N_15  and  C_17
REMARK    9  A    between atoms: C_17  and  C_18
REMARK                            x       y       z     vdW  Elec       q    Type
REMARK                         _______ _______ _______ _____ _____    ______ ____
ROOT
ATOM      1  N   UNL     1       4.695   4.109  18.562  0.00  0.00    +0.000 N 
ATOM      2  C   UNL     1       5.949   4.637  18.817  0.00  0.00    +0.000 C 
ATOM      3  O   UNL     1       6.350   4.959  19.936  0.00  0.00    +0.000 OA
ATOM      4  H   UNL     1       4.630   3.520  17.735  0.00  0.00    +0.000 HD
ENDROOT
BRANCH   1  10
ATOM      5  C   UNL     1       2.816   4.984  19.896  0.00  0.00    +0.000 A 
ATOM      6  C   UNL     1       1.830   4.760  20.877  0.00  0.00    +0.000 A 
ATOM      7  C   UNL     1       1.769   3.550  21.561  0.00  0.00    +0.000 A 
ATOM      8  C   UNL     1       2.676   2.540  21.263  0.00  0.00    +0.000 A 
ATOM      9  C   UNL     1       3.632   2.736  20.263  0.00  0.00    +0.000 A 
ATOM     10  C   UNL     1       3.712   3.956  19.567  0.00  0.00    +0.000 A 
BRANCH   5  11
ATOM     11  C   UNL     1       2.730   6.282  19.173  0.00  0.00    +0.000 C 
ATOM     12  O   UNL     1       3.106   6.426  18.024  0.00  0.00    +0.000 OA
BRANCH  11  14
ATOM     13  C   UNL     1       1.816   8.428  19.222  0.00  0.00    +0.000 C 
ATOM     14  O   UNL     1       2.144   7.236  19.943  0.00  0.00    +0.000 OA
ENDBRANCH  11  14
ENDBRANCH   5  11
ENDBRANCH   1  10
BRANCH   2  15
ATOM     15  C   UNL     1       6.895   4.691  17.613  0.00  0.00    +0.000 C 
BRANCH  15  16
ATOM     16  N   UNL     1       6.450   5.615  16.535  0.00  0.00    +0.000 NA
ATOM     17  C   UNL     1       6.466   7.010  17.010  0.00  0.00    +0.000 C 
BRANCH  16  18
ATOM     18  C   UNL     1       7.386   5.523  15.385  0.00  0.00    +0.000 C 
BRANCH  18  19
ATOM     19  C   UNL     1       6.839   4.767  14.193  0.00  0.00    +0.000 A 
ATOM     20  C   UNL     1       5.573   4.167  14.239  0.00  0.00    +0.000 A 
ATOM     21  C   UNL     1       5.073   3.482  13.133  0.00  0.00    +0.000 A 
ATOM     22  C   UNL     1       5.826   3.391  11.964  0.00  0.00    +0.000 A 
ATOM     23  C   UNL     1       7.081   3.991  11.900  0.00  0.00    +0.000 A 
ATOM     24  C   UNL     1       7.584   4.679  13.004  0.00  0.00    +0.000 A 
ENDBRANCH  18  19
ENDBRANCH  16  18
ENDBRANCH  15  16
ENDBRANCH   2  15
TORSDOF 7
ENDMDL
MODEL 2
REMARK VINA RESULT:      -6.9      1.240      1.605
REMARK  Name = 
REMARK  9 active torsions:
REMARK  status: ('A' for Active; 'I' for Inactive)
REMARK    1  A    between atoms: C_1  and  O_2
REMARK    2  A    between atoms: O_2  and  C_3
REMARK    3  A    between atoms: C_3  and  C_5
REMARK    4  A    between atoms: C_10  and  N_11
REMARK    5  A    between atoms: C_12  and  C_14
REMARK    6  A    between atoms: C_14  and  N_15
REMARK    7  A    between atoms: N_15  and  C_16
REMARK    8  A    between atoms: N_15  and  C_17
REMARK    9  A    between atoms: C_17  and  C_18
REMARK                            x       y       z     vdW  Elec       q    Type
REMARK                         _______ _______ _______ _____ _____    ______ ____
ROOT
ATOM      1  N   UNL     1       4.245   4.194  17.927  0.00  0.00    +0.000 N 
ATOM      2  C   UNL     1       5.436   4.180  18.632  0.00  0.00    +0.000 C 
ATOM      3  O   UNL     1       5.576   3.669  19.743  0.00  0.00    +0.000 OA
ATOM      4  H   UNL     1       4.337   4.253  16.915  0.00  0.00    +0.000 HD
ENDROOT
BRANCH   1  10
ATOM      5  C   UNL     1       2.178   4.456  19.244  0.00  0.00    +0.000 A 
ATOM      6  C   UNL     1       0.969   3.902  19.708  0.00  0.00    +0.000 A 
ATOM      7  C   UNL     1       0.644   2.576  19.439  0.00  0.00    +0.000 A 
ATOM      8  C   UNL     1       1.509   1.791  18.686  0.00  0.00    +0.000 A 
ATOM      9  C   UNL     1       2.691   2.342  18.186  0.00  0.00    +0.000 A 
ATOM     10  C   UNL     1       3.039   3.678  18.455  0.00  0.00    +0.000 A 
BRANCH   5  11
ATOM     11  C   UNL     1       2.378   5.905  19.521  0.00  0.00    +0.000 C 
ATOM     12  O   UNL     1       3.074   6.622  18.826  0.00  0.00    +0.000 OA
BRANCH  11  14
ATOM     13  C   UNL     1       1.616   7.724  20.767  0.00  0.00    +0.000 C 
ATOM     14  O   UNL     1       1.652   6.304  20.598  0.00  0.00    +0.000 OA
ENDBRANCH  11  14
ENDBRANCH   5  11
ENDBRANCH   1  10
BRANCH   2  15
ATOM     15  C   UNL     1       6.647   4.747  17.883  0.00  0.00    +0.000 C 
BRANCH  15  16
ATOM     16  N   UNL     1       6.292   5.655  16.760  0.00  0.00    +0.000 NA
ATOM     17  C   UNL     1       6.297   7.059  17.207  0.00  0.00    +0.000 C 
BRANCH  16  18
ATOM     18  C   UNL     1       7.306   5.526  15.679  0.00  0.00    +0.000 C 
BRANCH  18  19
ATOM     19  C   UNL     1       6.801   4.839  14.428  0.00  0.00    +0.000 A 
ATOM     20  C   UNL     1       7.559   4.842  13.249  0.00  0.00    +0.000 A 
ATOM     21  C   UNL     1       7.091   4.198  12.106  0.00  0.00    +0.000 A 
ATOM     22  C   UNL     1       5.863   3.538  12.123  0.00  0.00    +0.000 A 
ATOM     23  C   UNL     1       5.104   3.520  13.290  0.00  0.00    +0.000 A 
ATOM     24  C   UNL     1       5.570   4.161  14.438  0.00  0.00    +0.000 A 
ENDBRANCH  18  19
ENDBRANCH  16  18
ENDBRANCH  15  16
ENDBRANCH   2  15
TORSDOF 7
ENDMDL
MODEL 3
REMARK VINA RESULT:      -6.8      1.036      1.234
REMARK  Name = 
REMARK  9 active torsions:
REMARK  status: ('A' for Active; 'I' for Inactive)
REMARK    1  A    between atoms: C_1  and  O_2
REMARK    2  A    between atoms: O_2  and  C_3
REMARK    3  A    between atoms: C_3  and  C_5
REMARK    4  A    between atoms: C_10  and  N_11
REMARK    5  A    between atoms: C_12  and  C_14
REMARK    6  A    between atoms: C_14  and  N_15
REMARK    7  A    between atoms: N_15  and  C_16
REMARK    8  A    between atoms: N_15  and  C_17
REMARK    9  A    between atoms: C_17  and  C_18
REMARK                            x       y       z     vdW  Elec       q    Type
REMARK                         _______ _______ _______ _____ _____    ______ ____
ROOT
ATOM      1  N   UNL     1       4.658   4.493  19.468  0.00  0.00    +0.000 N 
ATOM      2  C   UNL     1       5.070   4.211  18.177  0.00  0.00    +0.000 C 
ATOM      3  O   UNL     1       4.372   3.642  17.336  0.00  0.00    +0.000 OA
ATOM      4  H   UNL     1       5.116   5.288  19.908  0.00  0.00    +0.000 HD
ENDROOT
BRANCH   1  10
ATOM      5  C   UNL     1       2.306   4.959  20.041  0.00  0.00    +0.000 A 
ATOM      6  C   UNL     1       1.068   4.485  20.517  0.00  0.00    +0.000 A 
ATOM      7  C   UNL     1       0.933   3.177  20.972  0.00  0.00    +0.000 A 
ATOM      8  C   UNL     1       2.024   2.318  20.940  0.00  0.00    +0.000 A 
ATOM      9  C   UNL     1       3.247   2.764  20.432  0.00  0.00    +0.000 A 
ATOM     10  C   UNL     1       3.403   4.085  19.975  0.00  0.00    +0.000 A 
BRANCH   5  11
ATOM     11  C   UNL     1       2.308   6.346  19.503  0.00  0.00    +0.000 C 
ATOM     12  O   UNL     1       2.155   7.329  20.205  0.00  0.00    +0.000 OA
BRANCH  11  14
ATOM     13  C   UNL     1       3.144   7.570  17.701  0.00  0.00    +0.000 C 
ATOM     14  O   UNL     1       2.549   6.353  18.166  0.00  0.00    +0.000 OA
ENDBRANCH  11  14
ENDBRANCH   5  11
ENDBRANCH   1  10
BRANCH   2  15
ATOM     15  C   UNL     1       6.445   4.766  17.792  0.00  0.00    +0.000 C 
BRANCH  15  16
ATOM     16  N   UNL     1       6.417   5.705  16.638  0.00  0.00    +0.000 NA
ATOM     17  C   UNL     1       6.650   7.088  17.090  0.00  0.00    +0.000 C 
BRANCH  16  18
ATOM     18  C   UNL     1       7.505   5.355  15.688  0.00  0.00    +0.000 C 
BRANCH  18  19
ATOM     19  C   UNL     1       7.026   4.764  14.379  0.00  0.00    +0.000 A 
ATOM     20  C   UNL     1       5.843   4.015  14.317  0.00  0.00    +0.000 A 
ATOM     21  C   UNL     1       5.405   3.484  13.106  0.00  0.00    +0.000 A 
ATOM     22  C   UNL     1       6.137   3.695  11.939  0.00  0.00    +0.000 A 
ATOM     23  C   UNL     1       7.309   4.445  11.984  0.00  0.00    +0.000 A 
ATOM     24  C   UNL     1       7.751   4.981  13.194  0.00  0.00    +0.000 A 
ENDBRANCH  18  19
ENDBRANCH  16  18
ENDBRANCH  15  16
ENDBRANCH   2  15
TORSDOF 7
ENDMDL
MODEL 4
REMARK VINA RESULT:      -6.8      2.053      6.791
REMARK  Name = 
REMARK  9 active torsions:
REMARK  status: ('A' for Active; 'I' for Inactive)
REMARK    1  A    between atoms: C_1  and  O_2
REMARK    2  A    between atoms: O_2  and  C_3
REMARK    3  A    between atoms: C_3  and  C_5
REMARK    4  A    between atoms: C_10  and  N_11
REMARK    5  A    between atoms: C_12  and  C_14
REMARK    6  A    between atoms: C_14  and  N_15
REMARK    7  A    between atoms: N_15  and  C_16
REMARK    8  A    between atoms: N_15  and  C_17
REMARK    9  A    between atoms: C_17  and  C_18
REMARK                            x       y       z     vdW  Elec       q    Type
REMARK                         _______ _______ _______ _____ _____    ______ ____
ROOT
ATOM      1  N   UNL     1       4.595   5.412  17.952  0.00  0.00    +0.000 N 
ATOM      2  C   UNL     1       4.362   4.473  18.942  0.00  0.00    +0.000 C 
ATOM      3  O   UNL     1       4.832   3.335  18.941  0.00  0.00    +0.000 OA
ATOM      4  H   UNL     1       4.519   6.383  18.245  0.00  0.00    +0.000 HD
ENDROOT
BRANCH   1  10
ATOM      5  C   UNL     1       6.614   5.690  16.564  0.00  0.00    +0.000 A 
ATOM      6  C   UNL     1       7.337   5.335  15.409  0.00  0.00    +0.000 A 
ATOM      7  C   UNL     1       6.790   4.473  14.463  0.00  0.00    +0.000 A 
ATOM      8  C   UNL     1       5.524   3.938  14.665  0.00  0.00    +0.000 A 
ATOM      9  C   UNL     1       4.813   4.250  15.827  0.00  0.00    +0.000 A 
ATOM     10  C   UNL     1       5.349   5.125  16.790  0.00  0.00    +0.000 A 
BRANCH   5  11
ATOM     11  C   UNL     1       7.333   6.549  17.543  0.00  0.00    +0.000 C 
ATOM     12  O   UNL     1       7.596   6.186  18.675  0.00  0.00    +0.000 OA
BRANCH  11  14
ATOM     13  C   UNL     1       8.135   8.703  17.945  0.00  0.00    +0.000 C 
ATOM     14  O   UNL     1       7.683   7.739  16.988  0.00  0.00    +0.000 OA
ENDBRANCH  11  14
ENDBRANCH   5  11
ENDBRANCH   1  10
BRANCH   2  15
ATOM     15  C   UNL     1       3.557   4.975  20.145  0.00  0.00    +0.000 C 
BRANCH  15  16
ATOM     16  N   UNL     1       2.170   5.398  19.811  0.00  0.00    +0.000 NA
ATOM     17  C   UNL     1       1.212   4.323  20.121  0.00  0.00    +0.000 C 
BRANCH  16  18
ATOM     18  C   UNL     1       1.800   6.579  20.634  0.00  0.00    +0.000 C 
BRANCH  18  19
ATOM     19  C   UNL     1       1.655   7.866  19.851  0.00  0.00    +0.000 A 
ATOM     20  C   UNL     1       1.030   8.987  20.415  0.00  0.00    +0.000 A 
ATOM     21  C   UNL     1       0.910  10.171  19.691  0.00  0.00    +0.000 A 
ATOM     22  C   UNL     1       1.416  10.256  18.395  0.00  0.00    +0.000 A 
ATOM     23  C   UNL     1       2.048   9.154  17.825  0.00  0.00    +0.000 A 
ATOM     24  C   UNL     1       2.172   7.967  18.548  0.00  0.00    +0.000 A 
ENDBRANCH  18  19
ENDBRANCH  16  18
ENDBRANCH  15  16
ENDBRANCH   2  15
TORSDOF 7
ENDMDL
MODEL 5
REMARK VINA RESULT:      -6.8      0.941      1.525
REMARK  Name = 
REMARK  9 active torsions:
REMARK  status: ('A' for Active; 'I' for Inactive)
REMARK    1  A    between atoms: C_1  and  O_2
REMARK    2  A    between atoms: O_2  and  C_3
REMARK    3  A    between atoms: C_3  and  C_5
REMARK    4  A    between atoms: C_10  and  N_11
REMARK    5  A    between atoms: C_12  and  C_14
REMARK    6  A    between atoms: C_14  and  N_15
REMARK    7  A    between atoms: N_15  and  C_16
REMARK    8  A    between atoms: N_15  and  C_17
REMARK    9  A    between atoms: C_17  and  C_18
REMARK                            x       y       z     vdW  Elec       q    Type
REMARK                         _______ _______ _______ _____ _____    ______ ____
ROOT
ATOM      1  N   UNL     1       4.140   4.180  17.975  0.00  0.00    +0.000 N 
ATOM      2  C   UNL     1       5.411   4.271  18.516  0.00  0.00    +0.000 C 
ATOM      3  O   UNL     1       5.684   4.009  19.688  0.00  0.00    +0.000 OA
ATOM      4  H   UNL     1       4.104   4.013  16.972  0.00  0.00    +0.000 HD
ENDROOT
BRANCH   1  10
ATOM      5  C   UNL     1       2.214   4.815  19.377  0.00  0.00    +0.000 A 
ATOM      6  C   UNL     1       1.070   4.422  20.098  0.00  0.00    +0.000 A 
ATOM      7  C   UNL     1       0.743   3.077  20.236  0.00  0.00    +0.000 A 
ATOM      8  C   UNL     1       1.541   2.106  19.643  0.00  0.00    +0.000 A 
ATOM      9  C   UNL     1       2.655   2.486  18.891  0.00  0.00    +0.000 A 
ATOM     10  C   UNL     1       3.004   3.841  18.746  0.00  0.00    +0.000 A 
BRANCH   5  11
ATOM     11  C   UNL     1       2.415   6.282  19.224  0.00  0.00    +0.000 C 
ATOM     12  O   UNL     1       2.379   7.057  20.163  0.00  0.00    +0.000 OA
BRANCH  11  14
ATOM     13  C   UNL     1       2.914   8.007  17.736  0.00  0.00    +0.000 C 
ATOM     14  O   UNL     1       2.684   6.609  17.934  0.00  0.00    +0.000 OA
ENDBRANCH  11  14
ENDBRANCH   5  11
ENDBRANCH   1  10
BRANCH   2  15
ATOM     15  C   UNL     1       6.524   4.612  17.520  0.00  0.00    +0.000 C 
BRANCH  15  16
ATOM     16  N   UNL     1       6.174   5.703  16.572  0.00  0.00    +0.000 NA
ATOM     17  C   UNL     1       6.238   7.013  17.242  0.00  0.00    +0.000 C 
BRANCH  16  18
ATOM     18  C   UNL     1       7.155   5.723  15.455  0.00  0.00    +0.000 C 
BRANCH  18  19
ATOM     19  C   UNL     1       6.742   4.912  14.245  0.00  0.00    +0.000 A 
ATOM     20  C   UNL     1       7.565   4.835  13.114  0.00  0.00    +0.000 A 
ATOM     21  C   UNL     1       7.181   4.078  12.009  0.00  0.00    +0.000 A 
ATOM     22  C   UNL     1       5.974   3.382  12.019  0.00  0.00    +0.000 A 
ATOM     23  C   UNL     1       5.150   3.442  13.140  0.00  0.00    +0.000 A 
ATOM     24  C   UNL     1       5.532   4.197  14.249  0.00  0.00    +0.000 A 
ENDBRANCH  18  19
ENDBRANCH  16  18
ENDBRANCH  15  16
ENDBRANCH   2  15
TORSDOF 7
ENDMDL
MODEL 6
REMARK VINA RESULT:      -6.8      1.490      3.085
REMARK  Name = 
REMARK  9 active torsions:
REMARK  status: ('A' for Active; 'I' for Inactive)
REMARK    1  A    between atoms: C_1  and  O_2
REMARK    2  A    between atoms: O_2  and  C_3
REMARK    3  A    between atoms: C_3  and  C_5
REMARK    4  A    between atoms: C_10  and  N_11
REMARK    5  A    between atoms: C_12  and  C_14
REMARK    6  A    between atoms: C_14  and  N_15
REMARK    7  A    between atoms: N_15  and  C_16
REMARK    8  A    between atoms: N_15  and  C_17
REMARK    9  A    between atoms: C_17  and  C_18
REMARK                            x       y       z     vdW  Elec       q    Type
REMARK                         _______ _______ _______ _____ _____    ______ ____
ROOT
ATOM      1  N   UNL     1       4.672   5.375  19.122  0.00  0.00    +0.000 N 
ATOM      2  C   UNL     1       4.671   6.069  17.924  0.00  0.00    +0.000 C 
ATOM      3  O   UNL     1       3.654   6.365  17.296  0.00  0.00    +0.000 OA
ATOM      4  H   UNL     1       5.472   5.549  19.727  0.00  0.00    +0.000 HD
ENDROOT
BRANCH   1  10
ATOM      5  C   UNL     1       3.314   3.500  19.968  0.00  0.00    +0.000 A 
ATOM      6  C   UNL     1       2.133   3.058  20.596  0.00  0.00    +0.000 A 
ATOM      7  C   UNL     1       1.118   3.954  20.916  0.00  0.00    +0.000 A 
ATOM      8  C   UNL     1       1.274   5.305  20.633  0.00  0.00    +0.000 A 
ATOM      9  C   UNL     1       2.457   5.762  20.047  0.00  0.00    +0.000 A 
ATOM     10  C   UNL     1       3.491   4.868  19.711  0.00  0.00    +0.000 A 
BRANCH   5  11
ATOM     11  C   UNL     1       4.362   2.466  19.752  0.00  0.00    +0.000 C 
ATOM     12  O   UNL     1       4.937   1.904  20.667  0.00  0.00    +0.000 OA
BRANCH  11  14
ATOM     13  C   UNL     1       3.333   1.856  17.749  0.00  0.00    +0.000 C 
ATOM     14  O   UNL     1       4.540   2.216  18.429  0.00  0.00    +0.000 OA
ENDBRANCH  11  14
ENDBRANCH   5  11
ENDBRANCH   1  10
BRANCH   2  15
ATOM     15  C   UNL     1       6.041   6.575  17.459  0.00  0.00    +0.000 C 
BRANCH  15  16
ATOM     16  N   UNL     1       6.819   5.579  16.675  0.00  0.00    +0.000 NA
ATOM     17  C   UNL     1       7.541   4.661  17.574  0.00  0.00    +0.000 C 
BRANCH  16  18
ATOM     18  C   UNL     1       5.891   4.761  15.852  0.00  0.00    +0.000 C 
BRANCH  18  19
ATOM     19  C   UNL     1       6.334   4.566  14.418  0.00  0.00    +0.000 A 
ATOM     20  C   UNL     1       7.435   5.263  13.902  0.00  0.00    +0.000 A 
ATOM     21  C   UNL     1       7.842   5.069  12.584  0.00  0.00    +0.000 A 
ATOM     22  C   UNL     1       7.160   4.174  11.762  0.00  0.00    +0.000 A 
ATOM     23  C   UNL     1       6.069   3.468  12.263  0.00  0.00    +0.000 A 
ATOM     24  C   UNL     1       5.660   3.657  13.584  0.00  0.00    +0.000 A 
ENDBRANCH  18  19
ENDBRANCH  16  18
ENDBRANCH  15  16
ENDBRANCH   2  15
TORSDOF 7
ENDMDL
MODEL 7
REMARK VINA RESULT:      -6.8      2.081      6.343
REMARK  Name = 
REMARK  9 active torsions:
REMARK  status: ('A' for Active; 'I' for Inactive)
REMARK    1  A    between atoms: C_1  and  O_2
REMARK    2  A    between atoms: O_2  and  C_3
REMARK    3  A    between atoms: C_3  and  C_5
REMARK    4  A    between atoms: C_10  and  N_11
REMARK    5  A    between atoms: C_12  and  C_14
REMARK    6  A    between atoms: C_14  and  N_15
REMARK    7  A    between atoms: N_15  and  C_16
REMARK    8  A    between atoms: N_15  and  C_17
REMARK    9  A    between atoms: C_17  and  C_18
REMARK                            x       y       z     vdW  Elec       q    Type
REMARK                         _______ _______ _______ _____ _____    ______ ____
ROOT
ATOM      1  N   UNL     1       4.692   4.145  17.980  0.00  0.00    +0.000 N 
ATOM      2  C   UNL     1       4.468   3.148  18.913  0.00  0.00    +0.000 C 
ATOM      3  O   UNL     1       5.165   2.963  19.910  0.00  0.00    +0.000 OA
ATOM      4  H   UNL     1       3.870   4.458  17.469  0.00  0.00    +0.000 HD
ENDROOT
BRANCH   1  10
ATOM      5  C   UNL     1       6.197   5.809  16.956  0.00  0.00    +0.000 A 
ATOM      6  C   UNL     1       7.287   6.690  17.094  0.00  0.00    +0.000 A 
ATOM      7  C   UNL     1       8.013   6.744  18.280  0.00  0.00    +0.000 A 
ATOM      8  C   UNL     1       7.649   5.937  19.351  0.00  0.00    +0.000 A 
ATOM      9  C   UNL     1       6.545   5.089  19.241  0.00  0.00    +0.000 A 
ATOM     10  C   UNL     1       5.804   5.016  18.047  0.00  0.00    +0.000 A 
BRANCH   5  11
ATOM     11  C   UNL     1       5.446   5.899  15.675  0.00  0.00    +0.000 C 
ATOM     12  O   UNL     1       5.110   6.958  15.177  0.00  0.00    +0.000 OA
BRANCH  11  14
ATOM     13  C   UNL     1       6.403   4.122  14.504  0.00  0.00    +0.000 C 
ATOM     14  O   UNL     1       5.242   4.668  15.138  0.00  0.00    +0.000 OA
ENDBRANCH  11  14
ENDBRANCH   5  11
ENDBRANCH   1  10
BRANCH   2  15
ATOM     15  C   UNL     1       3.191   2.327  18.700  0.00  0.00    +0.000 C 
BRANCH  15  16
ATOM     16  N   UNL     1       1.945   3.140  18.681  0.00  0.00    +0.000 NA
ATOM     17  C   UNL     1       0.758   2.269  18.722  0.00  0.00    +0.000 C 
BRANCH  16  18
ATOM     18  C   UNL     1       1.904   4.010  19.886  0.00  0.00    +0.000 C 
BRANCH  18  19
ATOM     19  C   UNL     1       1.957   5.493  19.587  0.00  0.00    +0.000 A 
ATOM     20  C   UNL     1       2.210   5.959  18.290  0.00  0.00    +0.000 A 
ATOM     21  C   UNL     1       2.247   7.326  18.023  0.00  0.00    +0.000 A 
ATOM     22  C   UNL     1       2.026   8.248  19.044  0.00  0.00    +0.000 A 
ATOM     23  C   UNL     1       1.764   7.799  20.336  0.00  0.00    +0.000 A 
ATOM     24  C   UNL     1       1.724   6.432  20.608  0.00  0.00    +0.000 A 
ENDBRANCH  18  19
ENDBRANCH  16  18
ENDBRANCH  15  16
ENDBRANCH   2  15
TORSDOF 7
ENDMDL
MODEL 8
REMARK VINA RESULT:      -6.8      2.059      6.820
REMARK  Name = 
REMARK  9 active torsions:
REMARK  status: ('A' for Active; 'I' for Inactive)
REMARK    1  A    between atoms: C_1  and  O_2
REMARK    2  A    between atoms: O_2  and  C_3
REMARK    3  A    between atoms: C_3  and  C_5
REMARK    4  A    between atoms: C_10  and  N_11
REMARK    5  A    between atoms: C_12  and  C_14
REMARK    6  A    between atoms: C_14  and  N_15
REMARK    7  A    between atoms: N_15  and  C_16
REMARK    8  A    between atoms: N_15  and  C_17
REMARK    9  A    between atoms: C_17  and  C_18
REMARK                            x       y       z     vdW  Elec       q    Type
REMARK                         _______ _______ _______ _____ _____    ______ ____
ROOT
ATOM      1  N   UNL     1       4.630   5.404  18.053  0.00  0.00    +0.000 N 
ATOM      2  C   UNL     1       4.274   4.415  18.953  0.00  0.00    +0.000 C 
ATOM      3  O   UNL     1       4.612   3.235  18.856  0.00  0.00    +0.000 OA
ATOM      4  H   UNL     1       4.658   6.349  18.431  0.00  0.00    +0.000 HD
ENDROOT
BRANCH   1  10
ATOM      5  C   UNL     1       6.616   5.731  16.629  0.00  0.00    +0.000 A 
ATOM      6  C   UNL     1       7.326   5.394  15.460  0.00  0.00    +0.000 A 
ATOM      7  C   UNL     1       6.783   4.520  14.524  0.00  0.00    +0.000 A 
ATOM      8  C   UNL     1       5.534   3.954  14.749  0.00  0.00    +0.000 A 
ATOM      9  C   UNL     1       4.838   4.249  15.923  0.00  0.00    +0.000 A 
ATOM     10  C   UNL     1       5.369   5.136  16.877  0.00  0.00    +0.000 A 
BRANCH   5  11
ATOM     11  C   UNL     1       7.331   6.607  17.596  0.00  0.00    +0.000 C 
ATOM     12  O   UNL     1       7.751   6.208  18.667  0.00  0.00    +0.000 OA
BRANCH  11  14
ATOM     13  C   UNL     1       8.187   8.743  17.984  0.00  0.00    +0.000 C 
ATOM     14  O   UNL     1       7.485   7.863  17.100  0.00  0.00    +0.000 OA
ENDBRANCH  11  14
ENDBRANCH   5  11
ENDBRANCH   1  10
BRANCH   2  15
ATOM     15  C   UNL     1       3.507   4.899  20.189  0.00  0.00    +0.000 C 
BRANCH  15  16
ATOM     16  N   UNL     1       2.117   5.345  19.902  0.00  0.00    +0.000 NA
ATOM     17  C   UNL     1       1.148   4.310  20.302  0.00  0.00    +0.000 C 
BRANCH  16  18
ATOM     18  C   UNL     1       1.816   6.569  20.689  0.00  0.00    +0.000 C 
BRANCH  18  19
ATOM     19  C   UNL     1       1.698   7.831  19.862  0.00  0.00    +0.000 A 
ATOM     20  C   UNL     1       2.224   7.895  18.565  0.00  0.00    +0.000 A 
ATOM     21  C   UNL     1       2.101   9.058  17.807  0.00  0.00    +0.000 A 
ATOM     22  C   UNL     1       1.448  10.172  18.330  0.00  0.00    +0.000 A 
ATOM     23  C   UNL     1       0.913  10.120  19.615  0.00  0.00    +0.000 A 
ATOM     24  C   UNL     1       1.031   8.957  20.376  0.00  0.00    +0.000 A 
ENDBRANCH  18  19
ENDBRANCH  16  18
ENDBRANCH  15  16
ENDBRANCH   2  15
TORSDOF 7
ENDMDL
MODEL 9
REMARK VINA RESULT:      -6.7      0.661      1.132
REMARK  Name = 
REMARK  9 active torsions:
REMARK  status: ('A' for Active; 'I' for Inactive)
REMARK    1  A    between atoms: C_1  and  O_2
REMARK    2  A    between atoms: O_2  and  C_3
REMARK    3  A    between atoms: C_3  and  C_5
REMARK    4  A    between atoms: C_10  and  N_11
REMARK    5  A    between atoms: C_12  and  C_14
REMARK    6  A    between atoms: C_14  and  N_15
REMARK    7  A    between atoms: N_15  and  C_16
REMARK    8  A    between atoms: N_15  and  C_17
REMARK    9  A    between atoms: C_17  and  C_18
REMARK                            x       y       z     vdW  Elec       q    Type
REMARK                         _______ _______ _______ _____ _____    ______ ____
ROOT
ATOM      1  N   UNL     1       4.699   3.882  18.683  0.00  0.00    +0.000 N 
ATOM      2  C   UNL     1       5.866   4.599  18.878  0.00  0.00    +0.000 C 
ATOM      3  O   UNL     1       6.215   5.073  19.960  0.00  0.00    +0.000 OA
ATOM      4  H   UNL     1       4.718   3.217  17.912  0.00  0.00    +0.000 HD
ENDROOT
BRANCH   1  10
ATOM      5  C   UNL     1       2.742   4.625  19.986  0.00  0.00    +0.000 A 
ATOM      6  C   UNL     1       1.793   4.354  20.991  0.00  0.00    +0.000 A 
ATOM      7  C   UNL     1       1.869   3.187  21.746  0.00  0.00    +0.000 A 
ATOM      8  C   UNL     1       2.879   2.267  21.498  0.00  0.00    +0.000 A 
ATOM      9  C   UNL     1       3.803   2.506  20.476  0.00  0.00    +0.000 A 
ATOM     10  C   UNL     1       3.744   3.682  19.708  0.00  0.00    +0.000 A 
BRANCH   5  11
ATOM     11  C   UNL     1       2.510   5.859  19.188  0.00  0.00    +0.000 C 
ATOM     12  O   UNL     1       2.439   6.968  19.688  0.00  0.00    +0.000 OA
BRANCH  11  14
ATOM     13  C   UNL     1       1.403   4.656  17.524  0.00  0.00    +0.000 C 
ATOM     14  O   UNL     1       2.443   5.580  17.860  0.00  0.00    +0.000 OA
ENDBRANCH  11  14
ENDBRANCH   5  11
ENDBRANCH   1  10
BRANCH   2  15
ATOM     15  C   UNL     1       6.798   4.677  17.664  0.00  0.00    +0.000 C 
BRANCH  15  16
ATOM     16  N   UNL     1       6.272   5.512  16.551  0.00  0.00    +0.000 NA
ATOM     17  C   UNL     1       6.102   6.910  16.987  0.00  0.00    +0.000 C 
BRANCH  16  18
ATOM     18  C   UNL     1       7.244   5.510  15.427  0.00  0.00    +0.000 C 
BRANCH  18  19
ATOM     19  C   UNL     1       6.773   4.768  14.194  0.00  0.00    +0.000 A 
ATOM     20  C   UNL     1       5.534   4.112  14.177  0.00  0.00    +0.000 A 
ATOM     21  C   UNL     1       5.104   3.441  13.034  0.00  0.00    +0.000 A 
ATOM     22  C   UNL     1       5.900   3.419  11.891  0.00  0.00    +0.000 A 
ATOM     23  C   UNL     1       7.129   4.074  11.890  0.00  0.00    +0.000 A 
ATOM     24  C   UNL     1       7.562   4.749  13.032  0.00  0.00    +0.000 A 
ENDBRANCH  18  19
ENDBRANCH  16  18
ENDBRANCH  15  16
ENDBRANCH   2  15
TORSDOF 7
ENDMDL
