MODEL 1
REMARK VINA RESULT:      -9.9      0.000      0.000
REMARK  Name = 
REMARK  7 active torsions:
REMARK  status: ('A' for Active; 'I' for Inactive)
REMARK    1  A    between atoms: C_1  and  N_2
REMARK    2  A    between atoms: C_4  and  C_5
REMARK    3  A    between atoms: C_14  and  N_15
REMARK    4  A    between atoms: N_15  and  C_16
REMARK    5  A    between atoms: C_18  and  O_19
REMARK    6  A    between atoms: C_21  and  O_22
REMARK    7  A    between atoms: C_23  and  C_24
REMARK                            x       y       z     vdW  Elec       q    Type
REMARK                         _______ _______ _______ _____ _____    ______ ____
ROOT
ATOM      1  C   UNL     1       2.540   4.624  20.216  0.00  0.00    +0.000 A 
ATOM      2  C   UNL     1       1.992   4.103  21.408  0.00  0.00    +0.000 A 
ATOM      3  C   UNL     1       1.419   2.838  21.442  0.00  0.00    +0.000 A 
ATOM      4  C   UNL     1       1.474   2.008  20.338  0.00  0.00    +0.000 A 
ATOM      5  C   UNL     1       2.101   2.459  19.178  0.00  0.00    +0.000 A 
ATOM      6  C   UNL     1       2.570   3.786  19.068  0.00  0.00    +0.000 A 
ENDROOT
BRANCH   6   7
ATOM      7  C   UNL     1       3.195   4.255  17.790  0.00  0.00    +0.000 C 
ATOM      8  O   UNL     1       2.509   4.202  16.766  0.00  0.00    +0.000 OA
ATOM      9  N   UNL     1       4.486   4.765  17.786  0.00  0.00    +0.000 N 
ATOM     10  C   UNL     1       4.967   5.593  16.674  0.00  0.00    +0.000 C 
ATOM     11  C   UNL     1       6.203   6.235  17.238  0.00  0.00    +0.000 A 
ATOM     12  C   UNL     1       6.982   7.258  16.717  0.00  0.00    +0.000 A 
ATOM     13  C   UNL     1       8.068   7.717  17.473  0.00  0.00    +0.000 A 
ATOM     14  C   UNL     1       8.359   7.154  18.726  0.00  0.00    +0.000 A 
ATOM     15  C   UNL     1       7.583   6.109  19.234  0.00  0.00    +0.000 A 
ATOM     16  C   UNL     1       6.516   5.657  18.475  0.00  0.00    +0.000 A 
ATOM     17  C   UNL     1       5.548   4.555  18.775  0.00  0.00    +0.000 C 
ENDBRANCH   6   7
BRANCH   1  18
ATOM     18  N   UNL     1       2.997   5.980  20.171  0.00  0.00    +0.000 N 
ATOM     19  H   UNL     1       3.903   6.027  20.660  0.00  0.00    +0.000 HD
BRANCH  18  25
ATOM     20  C   UNL     1       2.810   7.961  17.823  0.00  0.00    +0.000 C 
ATOM     21  N   UNL     1       2.102   7.968  19.078  0.00  0.00    +0.000 N 
ATOM     22  N   UNL     1       1.268   8.998  19.314  0.00  0.00    +0.000 NA
ATOM     23  C   UNL     1       0.889   8.859  20.594  0.00  0.00    +0.000 A 
ATOM     24  C   UNL     1       1.487   7.696  21.155  0.00  0.00    +0.000 A 
ATOM     25  C   UNL     1       2.221   7.103  20.148  0.00  0.00    +0.000 A 
BRANCH  23  26
ATOM     26  C   UNL     1      -0.007   9.837  21.221  0.00  0.00    +0.000 A 
ATOM     27  C   UNL     1      -0.279   9.769  22.599  0.00  0.00    +0.000 A 
ATOM     28  C   UNL     1      -1.128  10.694  23.217  0.00  0.00    +0.000 A 
ATOM     29  C   UNL     1      -1.713  11.710  22.465  0.00  0.00    +0.000 A 
ATOM     30  C   UNL     1      -1.448  11.788  21.100  0.00  0.00    +0.000 A 
ATOM     31 CL   UNL     1      -2.169  13.063  20.182  0.00  0.00    +0.000 Cl
ATOM     32  C   UNL     1      -0.606  10.862  20.480  0.00  0.00    +0.000 A 
ATOM     33  F   UNL     1      -0.364  10.978  19.166  0.00  0.00    +0.000 F 
ENDBRANCH  23  26
ENDBRANCH  18  25
ENDBRANCH   1  18
BRANCH   3  34
ATOM     34  O   UNL     1       0.789   2.373  22.558  0.00  0.00    +0.000 OA
ATOM     35  H   UNL     1       0.138   3.033  22.853  0.00  0.00    +0.000 HD
ENDBRANCH   3  34
BRANCH   5  36
ATOM     36  O   UNL     1       2.275   1.565  18.155  0.00  0.00    +0.000 OA
ATOM     37  H   UNL     1       1.411   1.313  17.788  0.00  0.00    +0.000 HD
ENDBRANCH   5  36
TORSDOF 6
ENDMDL
MODEL 2
REMARK VINA RESULT:      -9.8      4.934      8.648
REMARK  Name = 
REMARK  7 active torsions:
REMARK  status: ('A' for Active; 'I' for Inactive)
REMARK    1  A    between atoms: C_1  and  N_2
REMARK    2  A    between atoms: C_4  and  C_5
REMARK    3  A    between atoms: C_14  and  N_15
REMARK    4  A    between atoms: N_15  and  C_16
REMARK    5  A    between atoms: C_18  and  O_19
REMARK    6  A    between atoms: C_21  and  O_22
REMARK    7  A    between atoms: C_23  and  C_24
REMARK                            x       y       z     vdW  Elec       q    Type
REMARK                         _______ _______ _______ _____ _____    ______ ____
ROOT
ATOM      1  C   UNL     1      -0.329  10.812  18.649  0.00  0.00    +0.000 A 
ATOM      2  C   UNL     1      -1.109  10.158  17.673  0.00  0.00    +0.000 A 
ATOM      3  C   UNL     1      -2.472  10.405  17.557  0.00  0.00    +0.000 A 
ATOM      4  C   UNL     1      -3.078  11.387  18.320  0.00  0.00    +0.000 A 
ATOM      5  C   UNL     1      -2.309  12.119  19.221  0.00  0.00    +0.000 A 
ATOM      6  C   UNL     1      -0.955  11.799  19.460  0.00  0.00    +0.000 A 
ENDROOT
BRANCH   6   7
ATOM      7  C   UNL     1      -0.169  12.575  20.471  0.00  0.00    +0.000 C 
ATOM      8  O   UNL     1      -0.422  12.379  21.663  0.00  0.00    +0.000 OA
ATOM      9  N   UNL     1       0.831  13.449  20.064  0.00  0.00    +0.000 N 
ATOM     10  C   UNL     1       1.868  13.896  20.999  0.00  0.00    +0.000 C 
ATOM     11  C   UNL     1       2.919  14.471  20.091  0.00  0.00    +0.000 A 
ATOM     12  C   UNL     1       4.212  14.881  20.385  0.00  0.00    +0.000 A 
ATOM     13  C   UNL     1       5.019  15.337  19.337  0.00  0.00    +0.000 A 
ATOM     14  C   UNL     1       4.531  15.378  18.020  0.00  0.00    +0.000 A 
ATOM     15  C   UNL     1       3.222  14.984  17.735  0.00  0.00    +0.000 A 
ATOM     16  C   UNL     1       2.428  14.541  18.781  0.00  0.00    +0.000 A 
ATOM     17  C   UNL     1       1.004  14.082  18.752  0.00  0.00    +0.000 C 
ENDBRANCH   6   7
BRANCH   1  18
ATOM     18  N   UNL     1       1.040  10.439  18.841  0.00  0.00    +0.000 N 
ATOM     19  H   UNL     1       1.631  11.173  18.424  0.00  0.00    +0.000 HD
BRANCH  18  25
ATOM     20  C   UNL     1       1.270   8.743  21.399  0.00  0.00    +0.000 C 
ATOM     21  N   UNL     1       1.601   8.391  20.041  0.00  0.00    +0.000 N 
ATOM     22  N   UNL     1       2.135   7.174  19.828  0.00  0.00    +0.000 NA
ATOM     23  C   UNL     1       2.510   7.174  18.540  0.00  0.00    +0.000 A 
ATOM     24  C   UNL     1       2.174   8.418  17.934  0.00  0.00    +0.000 A 
ATOM     25  C   UNL     1       1.539   9.169  18.902  0.00  0.00    +0.000 A 
BRANCH  23  26
ATOM     26  C   UNL     1       3.174   6.005  17.952  0.00  0.00    +0.000 A 
ATOM     27  C   UNL     1       4.426   6.141  17.325  0.00  0.00    +0.000 A 
ATOM     28  C   UNL     1       5.078   5.038  16.762  0.00  0.00    +0.000 A 
ATOM     29  C   UNL     1       4.491   3.777  16.825  0.00  0.00    +0.000 A 
ATOM     30  C   UNL     1       3.253   3.631  17.447  0.00  0.00    +0.000 A 
ATOM     31 CL   UNL     1       2.543   2.057  17.533  0.00  0.00    +0.000 Cl
ATOM     32  C   UNL     1       2.598   4.731  18.005  0.00  0.00    +0.000 A 
ATOM     33  F   UNL     1       1.413   4.549  18.606  0.00  0.00    +0.000 F 
ENDBRANCH  23  26
ENDBRANCH  18  25
ENDBRANCH   1  18
BRANCH   3  34
ATOM     34  O   UNL     1      -3.252   9.697  16.693  0.00  0.00    +0.000 OA
ATOM     35  H   UNL     1      -3.295   8.771  16.989  0.00  0.00    +0.000 HD
ENDBRANCH   3  34
BRANCH   5  36
ATOM     36  O   UNL     1      -2.901  13.183  19.851  0.00  0.00    +0.000 OA
ATOM     37  H   UNL     1      -2.259  13.617  20.437  0.00  0.00    +0.000 HD
ENDBRANCH   5  36
TORSDOF 6
ENDMDL
MODEL 3
REMARK VINA RESULT:      -9.8      5.026      8.629
REMARK  Name = 
REMARK  7 active torsions:
REMARK  status: ('A' for Active; 'I' for Inactive)
REMARK    1  A    between atoms: C_1  and  N_2
REMARK    2  A    between atoms: C_4  and  C_5
REMARK    3  A    between atoms: C_14  and  N_15
REMARK    4  A    between atoms: N_15  and  C_16
REMARK    5  A    between atoms: C_18  and  O_19
REMARK    6  A    between atoms: C_21  and  O_22
REMARK    7  A    between atoms: C_23  and  C_24
REMARK                            x       y       z     vdW  Elec       q    Type
REMARK                         _______ _______ _______ _____ _____    ______ ____
ROOT
ATOM      1  C   UNL     1      -0.104  10.721  18.723  0.00  0.00    +0.000 A 
ATOM      2  C   UNL     1      -0.962  10.114  17.783  0.00  0.00    +0.000 A 
ATOM      3  C   UNL     1      -2.308  10.452  17.714  0.00  0.00    +0.000 A 
ATOM      4  C   UNL     1      -2.817  11.480  18.487  0.00  0.00    +0.000 A 
ATOM      5  C   UNL     1      -1.968  12.165  19.352  0.00  0.00    +0.000 A 
ATOM      6  C   UNL     1      -0.631  11.755  19.545  0.00  0.00    +0.000 A 
ENDROOT
BRANCH   6   7
ATOM      7  C   UNL     1       0.243  12.484  20.519  0.00  0.00    +0.000 C 
ATOM      8  O   UNL     1       0.120  12.207  21.714  0.00  0.00    +0.000 OA
ATOM      9  N   UNL     1       1.179  13.407  20.069  0.00  0.00    +0.000 N 
ATOM     10  C   UNL     1       2.300  13.819  20.919  0.00  0.00    +0.000 C 
ATOM     11  C   UNL     1       3.240  14.475  19.948  0.00  0.00    +0.000 A 
ATOM     12  C   UNL     1       4.549  14.897  20.134  0.00  0.00    +0.000 A 
ATOM     13  C   UNL     1       5.234  15.439  19.040  0.00  0.00    +0.000 A 
ATOM     14  C   UNL     1       4.610  15.552  17.786  0.00  0.00    +0.000 A 
ATOM     15  C   UNL     1       3.285  15.145  17.612  0.00  0.00    +0.000 A 
ATOM     16  C   UNL     1       2.614  14.617  18.703  0.00  0.00    +0.000 A 
ATOM     17  C   UNL     1       1.202  14.126  18.791  0.00  0.00    +0.000 C 
ENDBRANCH   6   7
BRANCH   1  18
ATOM     18  N   UNL     1       1.242  10.256  18.869  0.00  0.00    +0.000 N 
ATOM     19  H   UNL     1       1.866  10.937  18.410  0.00  0.00    +0.000 HD
BRANCH  18  25
ATOM     20  C   UNL     1       1.300   8.555  21.434  0.00  0.00    +0.000 C 
ATOM     21  N   UNL     1       1.638   8.179  20.084  0.00  0.00    +0.000 N 
ATOM     22  N   UNL     1       2.094   6.928  19.885  0.00  0.00    +0.000 NA
ATOM     23  C   UNL     1       2.497   6.900  18.605  0.00  0.00    +0.000 A 
ATOM     24  C   UNL     1       2.259   8.162  17.991  0.00  0.00    +0.000 A 
ATOM     25  C   UNL     1       1.654   8.957  18.943  0.00  0.00    +0.000 A 
BRANCH  23  26
ATOM     26  C   UNL     1       3.095   5.687  18.034  0.00  0.00    +0.000 A 
ATOM     27  C   UNL     1       2.315   4.532  17.848  0.00  0.00    +0.000 A 
ATOM     28  C   UNL     1       2.865   3.367  17.302  0.00  0.00    +0.000 A 
ATOM     29  C   UNL     1       4.205   3.342  16.924  0.00  0.00    +0.000 A 
ATOM     30  C   UNL     1       4.985   4.482  17.101  0.00  0.00    +0.000 A 
ATOM     31 CL   UNL     1       6.643   4.442  16.614  0.00  0.00    +0.000 Cl
ATOM     32  C   UNL     1       4.440   5.644  17.652  0.00  0.00    +0.000 A 
ATOM     33  F   UNL     1       5.219   6.726  17.795  0.00  0.00    +0.000 F 
ENDBRANCH  23  26
ENDBRANCH  18  25
ENDBRANCH   1  18
BRANCH   3  34
ATOM     34  O   UNL     1      -3.166   9.793  16.886  0.00  0.00    +0.000 OA
ATOM     35  H   UNL     1      -2.982   8.838  16.934  0.00  0.00    +0.000 HD
ENDBRANCH   3  34
BRANCH   5  36
ATOM     36  O   UNL     1      -2.462  13.272  19.991  0.00  0.00    +0.000 OA
ATOM     37  H   UNL     1      -2.866  13.012  20.835  0.00  0.00    +0.000 HD
ENDBRANCH   5  36
TORSDOF 6
ENDMDL
MODEL 4
REMARK VINA RESULT:      -9.7      4.302      9.756
REMARK  Name = 
REMARK  7 active torsions:
REMARK  status: ('A' for Active; 'I' for Inactive)
REMARK    1  A    between atoms: C_1  and  N_2
REMARK    2  A    between atoms: C_4  and  C_5
REMARK    3  A    between atoms: C_14  and  N_15
REMARK    4  A    between atoms: N_15  and  C_16
REMARK    5  A    between atoms: C_18  and  O_19
REMARK    6  A    between atoms: C_21  and  O_22
REMARK    7  A    between atoms: C_23  and  C_24
REMARK                            x       y       z     vdW  Elec       q    Type
REMARK                         _______ _______ _______ _____ _____    ______ ____
ROOT
ATOM      1  C   UNL     1      -0.443  10.737  18.481  0.00  0.00    +0.000 A 
ATOM      2  C   UNL     1      -1.135  10.020  17.482  0.00  0.00    +0.000 A 
ATOM      3  C   UNL     1      -2.492  10.223  17.261  0.00  0.00    +0.000 A 
ATOM      4  C   UNL     1      -3.175  11.218  17.936  0.00  0.00    +0.000 A 
ATOM      5  C   UNL     1      -2.491  12.010  18.855  0.00  0.00    +0.000 A 
ATOM      6  C   UNL     1      -1.150  11.739  19.201  0.00  0.00    +0.000 A 
ENDROOT
BRANCH   6   7
ATOM      7  C   UNL     1      -0.458  12.580  20.230  0.00  0.00    +0.000 C 
ATOM      8  O   UNL     1       0.582  13.153  19.894  0.00  0.00    +0.000 OA
ATOM      9  N   UNL     1      -1.004  12.728  21.498  0.00  0.00    +0.000 N 
ATOM     10  C   UNL     1      -0.597  13.835  22.370  0.00  0.00    +0.000 C 
ATOM     11  C   UNL     1      -1.670  13.853  23.421  0.00  0.00    +0.000 A 
ATOM     12  C   UNL     1      -1.923  14.794  24.409  0.00  0.00    +0.000 A 
ATOM     13  C   UNL     1      -3.031  14.601  25.242  0.00  0.00    +0.000 A 
ATOM     14  C   UNL     1      -3.865  13.482  25.080  0.00  0.00    +0.000 A 
ATOM     15  C   UNL     1      -3.592  12.528  24.098  0.00  0.00    +0.000 A 
ATOM     16  C   UNL     1      -2.488  12.724  23.284  0.00  0.00    +0.000 A 
ATOM     17  C   UNL     1      -1.969  11.858  22.178  0.00  0.00    +0.000 C 
ENDBRANCH   6   7
BRANCH   1  18
ATOM     18  N   UNL     1       0.918  10.412  18.784  0.00  0.00    +0.000 N 
ATOM     19  H   UNL     1       1.514  11.177  18.435  0.00  0.00    +0.000 HD
BRANCH  18  25
ATOM     20  C   UNL     1       1.259   8.785  21.374  0.00  0.00    +0.000 C 
ATOM     21  N   UNL     1       1.572   8.412  20.017  0.00  0.00    +0.000 N 
ATOM     22  N   UNL     1       2.142   7.208  19.821  0.00  0.00    +0.000 NA
ATOM     23  C   UNL     1       2.488   7.191  18.525  0.00  0.00    +0.000 A 
ATOM     24  C   UNL     1       2.099   8.408  17.899  0.00  0.00    +0.000 A 
ATOM     25  C   UNL     1       1.460   9.161  18.862  0.00  0.00    +0.000 A 
BRANCH  23  26
ATOM     26  C   UNL     1       3.179   6.030  17.950  0.00  0.00    +0.000 A 
ATOM     27  C   UNL     1       4.437   6.183  17.341  0.00  0.00    +0.000 A 
ATOM     28  C   UNL     1       5.114   5.089  16.790  0.00  0.00    +0.000 A 
ATOM     29  C   UNL     1       4.544   3.820  16.847  0.00  0.00    +0.000 A 
ATOM     30  C   UNL     1       3.299   3.656  17.450  0.00  0.00    +0.000 A 
ATOM     31 CL   UNL     1       2.611   2.073  17.528  0.00  0.00    +0.000 Cl
ATOM     32  C   UNL     1       2.620   4.749  17.996  0.00  0.00    +0.000 A 
ATOM     33  F   UNL     1       1.429   4.550  18.580  0.00  0.00    +0.000 F 
ENDBRANCH  23  26
ENDBRANCH  18  25
ENDBRANCH   1  18
BRANCH   3  34
ATOM     34  O   UNL     1      -3.190   9.457  16.377  0.00  0.00    +0.000 OA
ATOM     35  H   UNL     1      -4.143   9.593  16.523  0.00  0.00    +0.000 HD
ENDBRANCH   3  34
BRANCH   5  36
ATOM     36  O   UNL     1      -3.154  13.082  19.394  0.00  0.00    +0.000 OA
ATOM     37  H   UNL     1      -2.873  13.213  20.315  0.00  0.00    +0.000 HD
ENDBRANCH   5  36
TORSDOF 6
ENDMDL
MODEL 5
REMARK VINA RESULT:      -9.6      2.118      2.851
REMARK  Name = 
REMARK  7 active torsions:
REMARK  status: ('A' for Active; 'I' for Inactive)
REMARK    1  A    between atoms: C_1  and  N_2
REMARK    2  A    between atoms: C_4  and  C_5
REMARK    3  A    between atoms: C_14  and  N_15
REMARK    4  A    between atoms: N_15  and  C_16
REMARK    5  A    between atoms: C_18  and  O_19
REMARK    6  A    between atoms: C_21  and  O_22
REMARK    7  A    between atoms: C_23  and  C_24
REMARK                            x       y       z     vdW  Elec       q    Type
REMARK                         _______ _______ _______ _____ _____    ______ ____
ROOT
ATOM      1  C   UNL     1       2.876   5.333  19.998  0.00  0.00    +0.000 A 
ATOM      2  C   UNL     1       1.738   4.674  20.509  0.00  0.00    +0.000 A 
ATOM      3  C   UNL     1       1.512   3.327  20.256  0.00  0.00    +0.000 A 
ATOM      4  C   UNL     1       2.458   2.565  19.593  0.00  0.00    +0.000 A 
ATOM      5  C   UNL     1       3.639   3.168  19.166  0.00  0.00    +0.000 A 
ATOM      6  C   UNL     1       3.836   4.561  19.286  0.00  0.00    +0.000 A 
ENDROOT
BRANCH   6   7
ATOM      7  C   UNL     1       5.097   5.186  18.773  0.00  0.00    +0.000 C 
ATOM      8  O   UNL     1       5.879   5.658  19.602  0.00  0.00    +0.000 OA
ATOM      9  N   UNL     1       5.375   5.188  17.412  0.00  0.00    +0.000 N 
ATOM     10  C   UNL     1       6.740   5.405  16.922  0.00  0.00    +0.000 C 
ATOM     11  C   UNL     1       6.666   4.946  15.493  0.00  0.00    +0.000 A 
ATOM     12  C   UNL     1       7.689   4.742  14.578  0.00  0.00    +0.000 A 
ATOM     13  C   UNL     1       7.356   4.254  13.309  0.00  0.00    +0.000 A 
ATOM     14  C   UNL     1       6.020   3.978  12.973  0.00  0.00    +0.000 A 
ATOM     15  C   UNL     1       4.995   4.206  13.893  0.00  0.00    +0.000 A 
ATOM     16  C   UNL     1       5.334   4.697  15.143  0.00  0.00    +0.000 A 
ATOM     17  C   UNL     1       4.439   5.039  16.294  0.00  0.00    +0.000 C 
ENDBRANCH   6   7
BRANCH   1  18
ATOM     18  N   UNL     1       3.015   6.749  20.154  0.00  0.00    +0.000 N 
ATOM     19  H   UNL     1       3.454   6.927  21.069  0.00  0.00    +0.000 HD
BRANCH  18  25
ATOM     20  C   UNL     1       3.306   8.016  17.364  0.00  0.00    +0.000 C 
ATOM     21  N   UNL     1       2.298   8.248  18.368  0.00  0.00    +0.000 N 
ATOM     22  N   UNL     1       1.363   9.180  18.105  0.00  0.00    +0.000 NA
ATOM     23  C   UNL     1       0.677   9.323  19.249  0.00  0.00    +0.000 A 
ATOM     24  C   UNL     1       1.188   8.436  20.238  0.00  0.00    +0.000 A 
ATOM     25  C   UNL     1       2.196   7.711  19.636  0.00  0.00    +0.000 A 
BRANCH  23  26
ATOM     26  C   UNL     1      -0.416  10.296  19.350  0.00  0.00    +0.000 A 
ATOM     27  C   UNL     1      -0.488  11.171  20.449  0.00  0.00    +0.000 A 
ATOM     28  C   UNL     1      -1.520  12.109  20.563  0.00  0.00    +0.000 A 
ATOM     29  C   UNL     1      -2.494  12.194  19.572  0.00  0.00    +0.000 A 
ATOM     30  C   UNL     1      -2.431  11.335  18.477  0.00  0.00    +0.000 A 
ATOM     31 CL   UNL     1      -3.638  11.461  17.247  0.00  0.00    +0.000 Cl
ATOM     32  C   UNL     1      -1.405  10.393  18.365  0.00  0.00    +0.000 A 
ATOM     33  F   UNL     1      -1.370   9.592  17.290  0.00  0.00    +0.000 F 
ENDBRANCH  23  26
ENDBRANCH  18  25
ENDBRANCH   1  18
BRANCH   3  34
ATOM     34  O   UNL     1       0.363   2.712  20.651  0.00  0.00    +0.000 OA
ATOM     35  H   UNL     1      -0.213   2.587  19.877  0.00  0.00    +0.000 HD
ENDBRANCH   3  34
BRANCH   5  36
ATOM     36  O   UNL     1       4.619   2.362  18.650  0.00  0.00    +0.000 OA
ATOM     37  H   UNL     1       5.360   2.905  18.334  0.00  0.00    +0.000 HD
ENDBRANCH   5  36
TORSDOF 6
ENDMDL
MODEL 6
REMARK VINA RESULT:      -9.6      4.304      9.723
REMARK  Name = 
REMARK  7 active torsions:
REMARK  status: ('A' for Active; 'I' for Inactive)
REMARK    1  A    between atoms: C_1  and  N_2
REMARK    2  A    between atoms: C_4  and  C_5
REMARK    3  A    between atoms: C_14  and  N_15
REMARK    4  A    between atoms: N_15  and  C_16
REMARK    5  A    between atoms: C_18  and  O_19
REMARK    6  A    between atoms: C_21  and  O_22
REMARK    7  A    between atoms: C_23  and  C_24
REMARK                            x       y       z     vdW  Elec       q    Type
REMARK                         _______ _______ _______ _____ _____    ______ ____
ROOT
ATOM      1  C   UNL     1      -0.295  10.636  18.515  0.00  0.00    +0.000 A 
ATOM      2  C   UNL     1      -0.972   9.913  17.510  0.00  0.00    +0.000 A 
ATOM      3  C   UNL     1      -2.319  10.134  17.250  0.00  0.00    +0.000 A 
ATOM      4  C   UNL     1      -3.003  11.151  17.888  0.00  0.00    +0.000 A 
ATOM      5  C   UNL     1      -2.331  11.948  18.812  0.00  0.00    +0.000 A 
ATOM      6  C   UNL     1      -1.004  11.662  19.199  0.00  0.00    +0.000 A 
ENDROOT
BRANCH   6   7
ATOM      7  C   UNL     1      -0.326  12.509  20.231  0.00  0.00    +0.000 C 
ATOM      8  O   UNL     1       0.722  13.074  19.907  0.00  0.00    +0.000 OA
ATOM      9  N   UNL     1      -0.892  12.671  21.489  0.00  0.00    +0.000 N 
ATOM     10  C   UNL     1      -0.495  13.785  22.356  0.00  0.00    +0.000 C 
ATOM     11  C   UNL     1      -1.586  13.817  23.389  0.00  0.00    +0.000 A 
ATOM     12  C   UNL     1      -1.851  14.768  24.364  0.00  0.00    +0.000 A 
ATOM     13  C   UNL     1      -2.974  14.589  25.179  0.00  0.00    +0.000 A 
ATOM     14  C   UNL     1      -3.811  13.472  25.014  0.00  0.00    +0.000 A 
ATOM     15  C   UNL     1      -3.525  12.507  24.045  0.00  0.00    +0.000 A 
ATOM     16  C   UNL     1      -2.406  12.691  23.249  0.00  0.00    +0.000 A 
ATOM     17  C   UNL     1      -1.872  11.812  22.160  0.00  0.00    +0.000 C 
ENDBRANCH   6   7
BRANCH   1  18
ATOM     18  N   UNL     1       1.052  10.294  18.859  0.00  0.00    +0.000 N 
ATOM     19  H   UNL     1       1.661  11.078  18.582  0.00  0.00    +0.000 HD
BRANCH  18  25
ATOM     20  C   UNL     1       1.284   8.523  21.366  0.00  0.00    +0.000 C 
ATOM     21  N   UNL     1       1.657   8.228  20.005  0.00  0.00    +0.000 N 
ATOM     22  N   UNL     1       2.238   7.037  19.765  0.00  0.00    +0.000 NA
ATOM     23  C   UNL     1       2.641   7.093  18.487  0.00  0.00    +0.000 A 
ATOM     24  C   UNL     1       2.276   8.344  17.915  0.00  0.00    +0.000 A 
ATOM     25  C   UNL     1       1.593   9.041  18.891  0.00  0.00    +0.000 A 
BRANCH  23  26
ATOM     26  C   UNL     1       3.359   5.967  17.877  0.00  0.00    +0.000 A 
ATOM     27  C   UNL     1       2.742   4.708  17.767  0.00  0.00    +0.000 A 
ATOM     28  C   UNL     1       3.407   3.623  17.187  0.00  0.00    +0.000 A 
ATOM     29  C   UNL     1       4.701   3.783  16.697  0.00  0.00    +0.000 A 
ATOM     30  C   UNL     1       5.320   5.027  16.797  0.00  0.00    +0.000 A 
ATOM     31 CL   UNL     1       6.920   5.215  16.172  0.00  0.00    +0.000 Cl
ATOM     32  C   UNL     1       4.660   6.110  17.383  0.00  0.00    +0.000 A 
ATOM     33  F   UNL     1       5.284   7.295  17.450  0.00  0.00    +0.000 F 
ENDBRANCH  23  26
ENDBRANCH  18  25
ENDBRANCH   1  18
BRANCH   3  34
ATOM     34  O   UNL     1      -3.006   9.364  16.360  0.00  0.00    +0.000 OA
ATOM     35  H   UNL     1      -3.923   9.686  16.303  0.00  0.00    +0.000 HD
ENDBRANCH   3  34
BRANCH   5  36
ATOM     36  O   UNL     1      -2.990  13.040  19.315  0.00  0.00    +0.000 OA
ATOM     37  H   UNL     1      -3.134  13.691  18.609  0.00  0.00    +0.000 HD
ENDBRANCH   5  36
TORSDOF 6
ENDMDL
MODEL 7
REMARK VINA RESULT:      -9.4      2.017      2.782
REMARK  Name = 
REMARK  7 active torsions:
REMARK  status: ('A' for Active; 'I' for Inactive)
REMARK    1  A    between atoms: C_1  and  N_2
REMARK    2  A    between atoms: C_4  and  C_5
REMARK    3  A    between atoms: C_14  and  N_15
REMARK    4  A    between atoms: N_15  and  C_16
REMARK    5  A    between atoms: C_18  and  O_19
REMARK    6  A    between atoms: C_21  and  O_22
REMARK    7  A    between atoms: C_23  and  C_24
REMARK                            x       y       z     vdW  Elec       q    Type
REMARK                         _______ _______ _______ _____ _____    ______ ____
ROOT
ATOM      1  C   UNL     1       2.708   5.059  19.893  0.00  0.00    +0.000 A 
ATOM      2  C   UNL     1       1.516   4.401  20.263  0.00  0.00    +0.000 A 
ATOM      3  C   UNL     1       1.227   3.122  19.804  0.00  0.00    +0.000 A 
ATOM      4  C   UNL     1       2.156   2.411  19.066  0.00  0.00    +0.000 A 
ATOM      5  C   UNL     1       3.384   2.999  18.772  0.00  0.00    +0.000 A 
ATOM      6  C   UNL     1       3.652   4.344  19.105  0.00  0.00    +0.000 A 
ENDROOT
BRANCH   6   7
ATOM      7  C   UNL     1       4.965   4.961  18.731  0.00  0.00    +0.000 C 
ATOM      8  O   UNL     1       5.705   5.327  19.647  0.00  0.00    +0.000 OA
ATOM      9  N   UNL     1       5.334   5.072  17.397  0.00  0.00    +0.000 N 
ATOM     10  C   UNL     1       6.735   5.278  17.016  0.00  0.00    +0.000 C 
ATOM     11  C   UNL     1       6.741   4.949  15.550  0.00  0.00    +0.000 A 
ATOM     12  C   UNL     1       7.815   4.786  14.686  0.00  0.00    +0.000 A 
ATOM     13  C   UNL     1       7.552   4.426  13.360  0.00  0.00    +0.000 A 
ATOM     14  C   UNL     1       6.232   4.234  12.916  0.00  0.00    +0.000 A 
ATOM     15  C   UNL     1       5.156   4.421  13.786  0.00  0.00    +0.000 A 
ATOM     16  C   UNL     1       5.427   4.785  15.095  0.00  0.00    +0.000 A 
ATOM     17  C   UNL     1       4.469   5.060  16.212  0.00  0.00    +0.000 C 
ENDBRANCH   6   7
BRANCH   1  18
ATOM     18  N   UNL     1       2.917   6.425  20.263  0.00  0.00    +0.000 N 
ATOM     19  H   UNL     1       3.364   6.439  21.192  0.00  0.00    +0.000 HD
BRANCH  18  25
ATOM     20  C   UNL     1       3.098   7.924  17.581  0.00  0.00    +0.000 C 
ATOM     21  N   UNL     1       2.197   8.140  18.685  0.00  0.00    +0.000 N 
ATOM     22  N   UNL     1       1.330   9.165  18.587  0.00  0.00    +0.000 NA
ATOM     23  C   UNL     1       0.751   9.253  19.794  0.00  0.00    +0.000 A 
ATOM     24  C   UNL     1       1.258   8.238  20.654  0.00  0.00    +0.000 A 
ATOM     25  C   UNL     1       2.148   7.495  19.906  0.00  0.00    +0.000 A 
BRANCH  23  26
ATOM     26  C   UNL     1      -0.240  10.298  20.075  0.00  0.00    +0.000 A 
ATOM     27  C   UNL     1      -1.073  10.780  19.049  0.00  0.00    +0.000 A 
ATOM     28  C   UNL     1      -2.027  11.773  19.297  0.00  0.00    +0.000 A 
ATOM     29  C   UNL     1      -2.170  12.294  20.580  0.00  0.00    +0.000 A 
ATOM     30  C   UNL     1      -1.354  11.822  21.604  0.00  0.00    +0.000 A 
ATOM     31 CL   UNL     1      -1.553  12.466  23.195  0.00  0.00    +0.000 Cl
ATOM     32  C   UNL     1      -0.396  10.834  21.358  0.00  0.00    +0.000 A 
ATOM     33  F   UNL     1       0.364  10.395  22.372  0.00  0.00    +0.000 F 
ENDBRANCH  23  26
ENDBRANCH  18  25
ENDBRANCH   1  18
BRANCH   3  34
ATOM     34  O   UNL     1       0.031   2.525  20.066  0.00  0.00    +0.000 OA
ATOM     35  H   UNL     1      -0.272   2.057  19.268  0.00  0.00    +0.000 HD
ENDBRANCH   3  34
BRANCH   5  36
ATOM     36  O   UNL     1       4.339   2.220  18.172  0.00  0.00    +0.000 OA
ATOM     37  H   UNL     1       4.656   2.653  17.362  0.00  0.00    +0.000 HD
ENDBRANCH   5  36
TORSDOF 6
ENDMDL
MODEL 8
REMARK VINA RESULT:      -9.4      1.850      2.548
REMARK  Name = 
REMARK  7 active torsions:
REMARK  status: ('A' for Active; 'I' for Inactive)
REMARK    1  A    between atoms: C_1  and  N_2
REMARK    2  A    between atoms: C_4  and  C_5
REMARK    3  A    between atoms: C_14  and  N_15
REMARK    4  A    between atoms: N_15  and  C_16
REMARK    5  A    between atoms: C_18  and  O_19
REMARK    6  A    between atoms: C_21  and  O_22
REMARK    7  A    between atoms: C_23  and  C_24
REMARK                            x       y       z     vdW  Elec       q    Type
REMARK                         _______ _______ _______ _____ _____    ______ ____
ROOT
ATOM      1  C   UNL     1       3.133   5.435  20.038  0.00  0.00    +0.000 A 
ATOM      2  C   UNL     1       1.973   4.899  20.636  0.00  0.00    +0.000 A 
ATOM      3  C   UNL     1       1.737   3.529  20.647  0.00  0.00    +0.000 A 
ATOM      4  C   UNL     1       2.691   2.645  20.176  0.00  0.00    +0.000 A 
ATOM      5  C   UNL     1       3.890   3.144  19.673  0.00  0.00    +0.000 A 
ATOM      6  C   UNL     1       4.102   4.531  19.521  0.00  0.00    +0.000 A 
ENDROOT
BRANCH   6   7
ATOM      7  C   UNL     1       5.384   5.033  18.932  0.00  0.00    +0.000 C 
ATOM      8  O   UNL     1       6.280   5.366  19.712  0.00  0.00    +0.000 OA
ATOM      9  N   UNL     1       5.554   5.076  17.554  0.00  0.00    +0.000 N 
ATOM     10  C   UNL     1       6.892   5.160  16.961  0.00  0.00    +0.000 C 
ATOM     11  C   UNL     1       6.652   4.790  15.525  0.00  0.00    +0.000 A 
ATOM     12  C   UNL     1       7.568   4.519  14.518  0.00  0.00    +0.000 A 
ATOM     13  C   UNL     1       7.082   4.141  13.261  0.00  0.00    +0.000 A 
ATOM     14  C   UNL     1       5.700   4.040  13.027  0.00  0.00    +0.000 A 
ATOM     15  C   UNL     1       4.784   4.335  14.039  0.00  0.00    +0.000 A 
ATOM     16  C   UNL     1       5.276   4.716  15.277  0.00  0.00    +0.000 A 
ATOM     17  C   UNL     1       4.521   5.096  16.512  0.00  0.00    +0.000 C 
ENDBRANCH   6   7
BRANCH   1  18
ATOM     18  N   UNL     1       3.286   6.853  19.915  0.00  0.00    +0.000 N 
ATOM     19  H   UNL     1       4.211   7.108  20.292  0.00  0.00    +0.000 HD
BRANCH  18  25
ATOM     20  C   UNL     1       2.207   8.428  17.500  0.00  0.00    +0.000 C 
ATOM     21  N   UNL     1       1.777   8.463  18.876  0.00  0.00    +0.000 N 
ATOM     22  N   UNL     1       0.799   9.331  19.198  0.00  0.00    +0.000 NA
ATOM     23  C   UNL     1       0.721   9.291  20.536  0.00  0.00    +0.000 A 
ATOM     24  C   UNL     1       1.659   8.354  21.053  0.00  0.00    +0.000 A 
ATOM     25  C   UNL     1       2.292   7.788  19.965  0.00  0.00    +0.000 A 
BRANCH  23  26
ATOM     26  C   UNL     1      -0.227  10.149  21.257  0.00  0.00    +0.000 A 
ATOM     27  C   UNL     1      -0.487   9.929  22.622  0.00  0.00    +0.000 A 
ATOM     28  C   UNL     1      -1.385  10.737  23.328  0.00  0.00    +0.000 A 
ATOM     29  C   UNL     1      -2.032  11.786  22.681  0.00  0.00    +0.000 A 
ATOM     30  C   UNL     1      -1.779  12.015  21.330  0.00  0.00    +0.000 A 
ATOM     31 CL   UNL     1      -2.577  13.330  20.543  0.00  0.00    +0.000 Cl
ATOM     32  C   UNL     1      -0.888  11.205  20.622  0.00  0.00    +0.000 A 
ATOM     33  F   UNL     1      -0.661  11.465  19.325  0.00  0.00    +0.000 F 
ENDBRANCH  23  26
ENDBRANCH  18  25
ENDBRANCH   1  18
BRANCH   3  34
ATOM     34  O   UNL     1       0.569   3.013  21.122  0.00  0.00    +0.000 OA
ATOM     35  H   UNL     1      -0.111   3.078  20.430  0.00  0.00    +0.000 HD
ENDBRANCH   3  34
BRANCH   5  36
ATOM     36  O   UNL     1       4.874   2.244  19.355  0.00  0.00    +0.000 OA
ATOM     37  H   UNL     1       4.781   1.447  19.903  0.00  0.00    +0.000 HD
ENDBRANCH   5  36
TORSDOF 6
ENDMDL
MODEL 9
REMARK VINA RESULT:      -9.3      4.054      8.511
REMARK  Name = 
REMARK  7 active torsions:
REMARK  status: ('A' for Active; 'I' for Inactive)
REMARK    1  A    between atoms: C_1  and  N_2
REMARK    2  A    between atoms: C_4  and  C_5
REMARK    3  A    between atoms: C_14  and  N_15
REMARK    4  A    between atoms: N_15  and  C_16
REMARK    5  A    between atoms: C_18  and  O_19
REMARK    6  A    between atoms: C_21  and  O_22
REMARK    7  A    between atoms: C_23  and  C_24
REMARK                            x       y       z     vdW  Elec       q    Type
REMARK                         _______ _______ _______ _____ _____    ______ ____
ROOT
ATOM      1  C   UNL     1       3.831   5.420  19.487  0.00  0.00    +0.000 A 
ATOM      2  C   UNL     1       4.053   4.096  19.922  0.00  0.00    +0.000 A 
ATOM      3  C   UNL     1       3.090   3.408  20.651  0.00  0.00    +0.000 A 
ATOM      4  C   UNL     1       1.841   3.960  20.867  0.00  0.00    +0.000 A 
ATOM      5  C   UNL     1       1.560   5.226  20.360  0.00  0.00    +0.000 A 
ATOM      6  C   UNL     1       2.559   6.005  19.737  0.00  0.00    +0.000 A 
ENDROOT
BRANCH   6   7
ATOM      7  C   UNL     1       2.236   7.383  19.245  0.00  0.00    +0.000 C 
ATOM      8  O   UNL     1       2.454   7.630  18.056  0.00  0.00    +0.000 OA
ATOM      9  N   UNL     1       1.676   8.321  20.102  0.00  0.00    +0.000 N 
ATOM     10  C   UNL     1       0.983   9.502  19.578  0.00  0.00    +0.000 C 
ATOM     11  C   UNL     1       0.220  10.006  20.771  0.00  0.00    +0.000 A 
ATOM     12  C   UNL     1      -0.758  10.987  20.843  0.00  0.00    +0.000 A 
ATOM     13  C   UNL     1      -1.359  11.237  22.082  0.00  0.00    +0.000 A 
ATOM     14  C   UNL     1      -0.979  10.511  23.223  0.00  0.00    +0.000 A 
ATOM     15  C   UNL     1       0.021   9.539  23.147  0.00  0.00    +0.000 A 
ATOM     16  C   UNL     1       0.615   9.306  21.917  0.00  0.00    +0.000 A 
ATOM     17  C   UNL     1       1.708   8.344  21.568  0.00  0.00    +0.000 C 
ENDBRANCH   6   7
BRANCH   1  18
ATOM     18  N   UNL     1       4.888   6.155  18.862  0.00  0.00    +0.000 N 
ATOM     19  H   UNL     1       4.657   7.158  18.922  0.00  0.00    +0.000 HD
BRANCH  18  25
ATOM     20  C   UNL     1       7.907   5.582  19.031  0.00  0.00    +0.000 C 
ATOM     21  N   UNL     1       7.015   5.437  17.908  0.00  0.00    +0.000 N 
ATOM     22  N   UNL     1       7.550   5.044  16.737  0.00  0.00    +0.000 NA
ATOM     23  C   UNL     1       6.561   5.165  15.840  0.00  0.00    +0.000 A 
ATOM     24  C   UNL     1       5.374   5.621  16.480  0.00  0.00    +0.000 A 
ATOM     25  C   UNL     1       5.670   5.738  17.823  0.00  0.00    +0.000 A 
BRANCH  23  26
ATOM     26  C   UNL     1       6.791   4.854  14.424  0.00  0.00    +0.000 A 
ATOM     27  C   UNL     1       7.729   5.591  13.679  0.00  0.00    +0.000 A 
ATOM     28  C   UNL     1       7.966   5.308  12.330  0.00  0.00    +0.000 A 
ATOM     29  C   UNL     1       7.273   4.275  11.704  0.00  0.00    +0.000 A 
ATOM     30  C   UNL     1       6.343   3.537  12.433  0.00  0.00    +0.000 A 
ATOM     31 CL   UNL     1       5.501   2.249  11.649  0.00  0.00    +0.000 Cl
ATOM     32  C   UNL     1       6.101   3.822  13.779  0.00  0.00    +0.000 A 
ATOM     33  F   UNL     1       5.208   3.081  14.452  0.00  0.00    +0.000 F 
ENDBRANCH  23  26
ENDBRANCH  18  25
ENDBRANCH   1  18
BRANCH   3  34
ATOM     34  O   UNL     1       3.339   2.173  21.169  0.00  0.00    +0.000 OA
ATOM     35  H   UNL     1       2.785   1.518  20.710  0.00  0.00    +0.000 HD
ENDBRANCH   3  34
BRANCH   5  36
ATOM     36  O   UNL     1       0.272   5.684  20.458  0.00  0.00    +0.000 OA
ATOM     37  H   UNL     1      -0.346   4.934  20.439  0.00  0.00    +0.000 HD
ENDBRANCH   5  36
TORSDOF 6
ENDMDL
