MODEL 1
REMARK VINA RESULT:      -7.3      0.000      0.000
REMARK  Name = 
REMARK  8 active torsions:
REMARK  status: ('A' for Active; 'I' for Inactive)
REMARK    1  A    between atoms: C_2  and  C_3
REMARK    2  A    between atoms: C_3  and  N_4
REMARK    3  A    between atoms: C_5  and  C_6
REMARK    4  A    between atoms: C_9  and  C_10
REMARK    5  A    between atoms: N_16  and  C_17
REMARK    6  A    between atoms: C_18  and  C_19
REMARK    7  A    between atoms: N_20  and  C_21
REMARK    8  A    between atoms: N_22  and  C_23
REMARK                            x       y       z     vdW  Elec       q    Type
REMARK                         _______ _______ _______ _____ _____    ______ ____
ROOT
ATOM      1  N   UNL     1       1.161   9.366  20.557  0.00  0.00    +0.000 N 
ATOM      2  C   UNL     1       0.816  10.489  19.786  0.00  0.00    +0.000 A 
ATOM      3  C   UNL     1       0.732  10.174  18.441  0.00  0.00    +0.000 A 
ATOM      4  S   UNL     1       1.208   8.578  18.106  0.00  0.00    +0.000 S 
ATOM      5  C   UNL     1       1.433   8.280  19.805  0.00  0.00    +0.000 A 
ATOM      6  N   UNL     1       1.758   7.079  20.280  0.00  0.00    +0.000 N 
ATOM      7  H   UNL     1       1.179   6.799  21.064  0.00  0.00    +0.000 HD
ENDROOT
BRANCH   6   8
ATOM      8  C   UNL     1       2.394   6.096  19.551  0.00  0.00    +0.000 A 
ATOM      9  C   UNL     1       2.243   4.756  19.536  0.00  0.00    +0.000 A 
ATOM     10  C   UNL     1       1.267   3.955  20.337  0.00  0.00    +0.000 C 
ATOM     11  N   UNL     1       3.069   4.167  18.583  0.00  0.00    +0.000 N 
ATOM     12  C   UNL     1       3.307   2.746  18.333  0.00  0.00    +0.000 C 
ATOM     13  N   UNL     1       3.790   5.178  17.932  0.00  0.00    +0.000 N 
ATOM     14  C   UNL     1       3.509   6.383  18.581  0.00  0.00    +0.000 A 
ATOM     15  O   UNL     1       4.014   7.488  18.470  0.00  0.00    +0.000 OA
BRANCH  13  16
ATOM     16  C   UNL     1       4.927   4.880  17.165  0.00  0.00    +0.000 A 
ATOM     17  C   UNL     1       4.857   4.626  15.794  0.00  0.00    +0.000 A 
ATOM     18  C   UNL     1       6.030   4.354  15.078  0.00  0.00    +0.000 A 
ATOM     19  C   UNL     1       7.264   4.305  15.732  0.00  0.00    +0.000 A 
ATOM     20  C   UNL     1       7.331   4.540  17.100  0.00  0.00    +0.000 A 
ATOM     21  C   UNL     1       6.167   4.841  17.812  0.00  0.00    +0.000 A 
ENDBRANCH  13  16
ENDBRANCH   6   8
BRANCH   2  22
ATOM     22  C   UNL     1       0.529  11.871  20.199  0.00  0.00    +0.000 A 
ATOM     23  C   UNL     1      -0.810  12.312  20.245  0.00  0.00    +0.000 A 
ATOM     24  C   UNL     1      -1.155  13.544  20.807  0.00  0.00    +0.000 A 
ATOM     25  C   UNL     1      -0.167  14.390  21.305  0.00  0.00    +0.000 A 
ATOM     26  C   UNL     1      -0.519  15.694  21.955  0.00  0.00    +0.000 C 
ATOM     27  C   UNL     1       1.170  13.993  21.205  0.00  0.00    +0.000 A 
ATOM     28  C   UNL     1       1.513  12.744  20.671  0.00  0.00    +0.000 A 
ENDBRANCH   2  22
BRANCH   1  29
ATOM     29  C   UNL     1       1.412   9.461  22.007  0.00  0.00    +0.000 C 
BRANCH  29  31
ATOM     30  C   UNL     1      -0.738  10.210  23.218  0.00  0.00    +0.000 C 
ATOM     31  C   UNL     1       0.145   9.287  22.805  0.00  0.00    +0.000 C 
ENDBRANCH  29  31
ENDBRANCH   1  29
TORSDOF 5
ENDMDL
MODEL 2
REMARK VINA RESULT:      -7.2      0.362      1.292
REMARK  Name = 
REMARK  8 active torsions:
REMARK  status: ('A' for Active; 'I' for Inactive)
REMARK    1  A    between atoms: C_2  and  C_3
REMARK    2  A    between atoms: C_3  and  N_4
REMARK    3  A    between atoms: C_5  and  C_6
REMARK    4  A    between atoms: C_9  and  C_10
REMARK    5  A    between atoms: N_16  and  C_17
REMARK    6  A    between atoms: C_18  and  C_19
REMARK    7  A    between atoms: N_20  and  C_21
REMARK    8  A    between atoms: N_22  and  C_23
REMARK                            x       y       z     vdW  Elec       q    Type
REMARK                         _______ _______ _______ _____ _____    ______ ____
ROOT
ATOM      1  N   UNL     1       1.119   9.383  20.544  0.00  0.00    +0.000 N 
ATOM      2  C   UNL     1       0.747  10.475  19.744  0.00  0.00    +0.000 A 
ATOM      3  C   UNL     1       0.664  10.119  18.409  0.00  0.00    +0.000 A 
ATOM      4  S   UNL     1       1.171   8.524  18.117  0.00  0.00    +0.000 S 
ATOM      5  C   UNL     1       1.410   8.281  19.823  0.00  0.00    +0.000 A 
ATOM      6  N   UNL     1       1.763   7.101  20.331  0.00  0.00    +0.000 N 
ATOM      7  H   UNL     1       1.193   6.832  21.126  0.00  0.00    +0.000 HD
ENDROOT
BRANCH   6   8
ATOM      8  C   UNL     1       2.415   6.111  19.628  0.00  0.00    +0.000 A 
ATOM      9  C   UNL     1       2.303   4.767  19.664  0.00  0.00    +0.000 A 
ATOM     10  C   UNL     1       1.364   3.968  20.510  0.00  0.00    +0.000 C 
ATOM     11  N   UNL     1       3.131   4.168  18.719  0.00  0.00    +0.000 N 
ATOM     12  C   UNL     1       3.407   2.746  18.517  0.00  0.00    +0.000 C 
ATOM     13  N   UNL     1       3.811   5.175  18.019  0.00  0.00    +0.000 N 
ATOM     14  C   UNL     1       3.506   6.394  18.629  0.00  0.00    +0.000 A 
ATOM     15  O   UNL     1       3.977   7.508  18.469  0.00  0.00    +0.000 OA
BRANCH  13  16
ATOM     16  C   UNL     1       4.944   4.882  17.244  0.00  0.00    +0.000 A 
ATOM     17  C   UNL     1       6.230   4.839  17.787  0.00  0.00    +0.000 A 
ATOM     18  C   UNL     1       7.320   4.521  16.966  0.00  0.00    +0.000 A 
ATOM     19  C   UNL     1       7.132   4.278  15.603  0.00  0.00    +0.000 A 
ATOM     20  C   UNL     1       5.855   4.338  15.059  0.00  0.00    +0.000 A 
ATOM     21  C   UNL     1       4.762   4.625  15.881  0.00  0.00    +0.000 A 
ENDBRANCH  13  16
ENDBRANCH   6   8
BRANCH   2  22
ATOM     22  C   UNL     1       0.434  11.863  20.117  0.00  0.00    +0.000 A 
ATOM     23  C   UNL     1       1.490  12.777  20.313  0.00  0.00    +0.000 A 
ATOM     24  C   UNL     1       1.252  14.144  20.480  0.00  0.00    +0.000 A 
ATOM     25  C   UNL     1      -0.053  14.632  20.495  0.00  0.00    +0.000 A 
ATOM     26  C   UNL     1      -0.329  16.101  20.625  0.00  0.00    +0.000 C 
ATOM     27  C   UNL     1      -1.110  13.727  20.368  0.00  0.00    +0.000 A 
ATOM     28  C   UNL     1      -0.870  12.362  20.168  0.00  0.00    +0.000 A 
ENDBRANCH   2  22
BRANCH   1  29
ATOM     29  C   UNL     1       1.375   9.525  21.990  0.00  0.00    +0.000 C 
BRANCH  29  31
ATOM     30  C   UNL     1      -0.782  10.214  23.224  0.00  0.00    +0.000 C 
ATOM     31  C   UNL     1       0.122   9.316  22.802  0.00  0.00    +0.000 C 
ENDBRANCH  29  31
ENDBRANCH   1  29
TORSDOF 5
ENDMDL
MODEL 3
REMARK VINA RESULT:      -7.1      3.661     10.544
REMARK  Name = 
REMARK  8 active torsions:
REMARK  status: ('A' for Active; 'I' for Inactive)
REMARK    1  A    between atoms: C_2  and  C_3
REMARK    2  A    between atoms: C_3  and  N_4
REMARK    3  A    between atoms: C_5  and  C_6
REMARK    4  A    between atoms: C_9  and  C_10
REMARK    5  A    between atoms: N_16  and  C_17
REMARK    6  A    between atoms: C_18  and  C_19
REMARK    7  A    between atoms: N_20  and  C_21
REMARK    8  A    between atoms: N_22  and  C_23
REMARK                            x       y       z     vdW  Elec       q    Type
REMARK                         _______ _______ _______ _____ _____    ______ ____
ROOT
ATOM      1  N   UNL     1      -0.164  10.715  20.333  0.00  0.00    +0.000 N 
ATOM      2  C   UNL     1       0.482   9.545  20.765  0.00  0.00    +0.000 A 
ATOM      3  C   UNL     1       0.204   9.274  22.093  0.00  0.00    +0.000 A 
ATOM      4  S   UNL     1      -0.707  10.498  22.840  0.00  0.00    +0.000 S 
ATOM      5  C   UNL     1      -0.810  11.353  21.329  0.00  0.00    +0.000 A 
ATOM      6  N   UNL     1      -1.526  12.468  21.190  0.00  0.00    +0.000 N 
ATOM      7  H   UNL     1      -2.123  12.450  20.370  0.00  0.00    +0.000 HD
ENDROOT
BRANCH   6   8
ATOM      8  C   UNL     1      -1.860  13.317  22.224  0.00  0.00    +0.000 A 
ATOM      9  C   UNL     1      -3.052  13.636  22.768  0.00  0.00    +0.000 A 
ATOM     10  C   UNL     1      -4.390  13.094  22.378  0.00  0.00    +0.000 C 
ATOM     11  N   UNL     1      -2.897  14.501  23.848  0.00  0.00    +0.000 N 
ATOM     12  C   UNL     1      -3.928  15.185  24.627  0.00  0.00    +0.000 C 
ATOM     13  N   UNL     1      -1.528  14.750  24.027  0.00  0.00    +0.000 N 
ATOM     14  C   UNL     1      -0.846  14.147  22.967  0.00  0.00    +0.000 A 
ATOM     15  O   UNL     1       0.320  14.224  22.620  0.00  0.00    +0.000 OA
BRANCH  13  16
ATOM     16  C   UNL     1      -1.082  15.825  24.811  0.00  0.00    +0.000 A 
ATOM     17  C   UNL     1      -0.775  17.072  24.263  0.00  0.00    +0.000 A 
ATOM     18  C   UNL     1      -0.353  18.113  25.101  0.00  0.00    +0.000 A 
ATOM     19  C   UNL     1      -0.208  17.902  26.474  0.00  0.00    +0.000 A 
ATOM     20  C   UNL     1      -0.497  16.656  27.017  0.00  0.00    +0.000 A 
ATOM     21  C   UNL     1      -0.947  15.624  26.189  0.00  0.00    +0.000 A 
ENDBRANCH  13  16
ENDBRANCH   6   8
BRANCH   2  22
ATOM     22  C   UNL     1       1.351   8.614  20.029  0.00  0.00    +0.000 A 
ATOM     23  C   UNL     1       1.677   7.371  20.612  0.00  0.00    +0.000 A 
ATOM     24  C   UNL     1       2.335   6.373  19.888  0.00  0.00    +0.000 A 
ATOM     25  C   UNL     1       2.722   6.603  18.570  0.00  0.00    +0.000 A 
ATOM     26  C   UNL     1       3.387   5.530  17.759  0.00  0.00    +0.000 C 
ATOM     27  C   UNL     1       2.463   7.854  18.002  0.00  0.00    +0.000 A 
ATOM     28  C   UNL     1       1.775   8.842  18.718  0.00  0.00    +0.000 A 
ENDBRANCH   2  22
BRANCH   1  29
ATOM     29  C   UNL     1       0.053  11.275  18.986  0.00  0.00    +0.000 C 
BRANCH  29  31
ATOM     30  C   UNL     1      -1.581   9.946  17.499  0.00  0.00    +0.000 C 
ATOM     31  C   UNL     1      -1.144  11.067  18.095  0.00  0.00    +0.000 C 
ENDBRANCH  29  31
ENDBRANCH   1  29
TORSDOF 5
ENDMDL
MODEL 4
REMARK VINA RESULT:      -7.0      3.627     10.566
REMARK  Name = 
REMARK  8 active torsions:
REMARK  status: ('A' for Active; 'I' for Inactive)
REMARK    1  A    between atoms: C_2  and  C_3
REMARK    2  A    between atoms: C_3  and  N_4
REMARK    3  A    between atoms: C_5  and  C_6
REMARK    4  A    between atoms: C_9  and  C_10
REMARK    5  A    between atoms: N_16  and  C_17
REMARK    6  A    between atoms: C_18  and  C_19
REMARK    7  A    between atoms: N_20  and  C_21
REMARK    8  A    between atoms: N_22  and  C_23
REMARK                            x       y       z     vdW  Elec       q    Type
REMARK                         _______ _______ _______ _____ _____    ______ ____
ROOT
ATOM      1  N   UNL     1       0.020  10.816  20.215  0.00  0.00    +0.000 N 
ATOM      2  C   UNL     1       0.583   9.590  20.605  0.00  0.00    +0.000 A 
ATOM      3  C   UNL     1       0.186   9.232  21.881  0.00  0.00    +0.000 A 
ATOM      4  S   UNL     1      -0.737  10.437  22.647  0.00  0.00    +0.000 S 
ATOM      5  C   UNL     1      -0.682  11.406  21.203  0.00  0.00    +0.000 A 
ATOM      6  N   UNL     1      -1.340  12.559  21.095  0.00  0.00    +0.000 N 
ATOM      7  H   UNL     1      -1.867  12.628  20.231  0.00  0.00    +0.000 HD
ENDROOT
BRANCH   6   8
ATOM      8  C   UNL     1      -1.726  13.342  22.162  0.00  0.00    +0.000 A 
ATOM      9  C   UNL     1      -2.931  13.544  22.733  0.00  0.00    +0.000 A 
ATOM     10  C   UNL     1      -4.226  12.906  22.342  0.00  0.00    +0.000 C 
ATOM     11  N   UNL     1      -2.830  14.383  23.839  0.00  0.00    +0.000 N 
ATOM     12  C   UNL     1      -3.901  14.952  24.655  0.00  0.00    +0.000 C 
ATOM     13  N   UNL     1      -1.484  14.738  24.008  0.00  0.00    +0.000 N 
ATOM     14  C   UNL     1      -0.772  14.228  22.919  0.00  0.00    +0.000 A 
ATOM     15  O   UNL     1       0.378  14.414  22.559  0.00  0.00    +0.000 OA
BRANCH  13  16
ATOM     16  C   UNL     1      -1.115  15.820  24.822  0.00  0.00    +0.000 A 
ATOM     17  C   UNL     1      -0.906  15.682  26.196  0.00  0.00    +0.000 A 
ATOM     18  C   UNL     1      -0.519  16.796  26.953  0.00  0.00    +0.000 A 
ATOM     19  C   UNL     1      -0.373  18.047  26.349  0.00  0.00    +0.000 A 
ATOM     20  C   UNL     1      -0.599  18.187  24.985  0.00  0.00    +0.000 A 
ATOM     21  C   UNL     1      -0.956  17.073  24.221  0.00  0.00    +0.000 A 
ENDBRANCH  13  16
ENDBRANCH   6   8
BRANCH   2  22
ATOM     22  C   UNL     1       1.473   8.677  19.870  0.00  0.00    +0.000 A 
ATOM     23  C   UNL     1       1.856   7.459  20.470  0.00  0.00    +0.000 A 
ATOM     24  C   UNL     1       2.539   6.473  19.752  0.00  0.00    +0.000 A 
ATOM     25  C   UNL     1       2.894   6.693  18.423  0.00  0.00    +0.000 A 
ATOM     26  C   UNL     1       3.585   5.630  17.621  0.00  0.00    +0.000 C 
ATOM     27  C   UNL     1       2.578   7.922  17.837  0.00  0.00    +0.000 A 
ATOM     28  C   UNL     1       1.865   8.896  18.547  0.00  0.00    +0.000 A 
ENDBRANCH   2  22
BRANCH   1  29
ATOM     29  C   UNL     1       0.369  11.464  18.937  0.00  0.00    +0.000 C 
BRANCH  29  31
ATOM     30  C   UNL     1       2.499  12.716  18.196  0.00  0.00    +0.000 C 
ATOM     31  C   UNL     1       1.546  12.394  19.086  0.00  0.00    +0.000 C 
ENDBRANCH  29  31
ENDBRANCH   1  29
TORSDOF 5
ENDMDL
MODEL 5
REMARK VINA RESULT:      -6.9      3.691     10.504
REMARK  Name = 
REMARK  8 active torsions:
REMARK  status: ('A' for Active; 'I' for Inactive)
REMARK    1  A    between atoms: C_2  and  C_3
REMARK    2  A    between atoms: C_3  and  N_4
REMARK    3  A    between atoms: C_5  and  C_6
REMARK    4  A    between atoms: C_9  and  C_10
REMARK    5  A    between atoms: N_16  and  C_17
REMARK    6  A    between atoms: C_18  and  C_19
REMARK    7  A    between atoms: N_20  and  C_21
REMARK    8  A    between atoms: N_22  and  C_23
REMARK                            x       y       z     vdW  Elec       q    Type
REMARK                         _______ _______ _______ _____ _____    ______ ____
ROOT
ATOM      1  N   UNL     1      -0.301  10.795  20.214  0.00  0.00    +0.000 N 
ATOM      2  C   UNL     1       0.371   9.618  20.585  0.00  0.00    +0.000 A 
ATOM      3  C   UNL     1       0.164   9.315  21.919  0.00  0.00    +0.000 A 
ATOM      4  S   UNL     1      -0.711  10.518  22.741  0.00  0.00    +0.000 S 
ATOM      5  C   UNL     1      -0.896  11.408  21.258  0.00  0.00    +0.000 A 
ATOM      6  N   UNL     1      -1.621  12.522  21.182  0.00  0.00    +0.000 N 
ATOM      7  H   UNL     1      -2.261  12.520  20.395  0.00  0.00    +0.000 HD
ENDROOT
BRANCH   6   8
ATOM      8  C   UNL     1      -1.903  13.345  22.252  0.00  0.00    +0.000 A 
ATOM      9  C   UNL     1      -3.069  13.668  22.848  0.00  0.00    +0.000 A 
ATOM     10  C   UNL     1      -4.429  13.159  22.492  0.00  0.00    +0.000 C 
ATOM     11  N   UNL     1      -2.860  14.499  23.945  0.00  0.00    +0.000 N 
ATOM     12  C   UNL     1      -3.851  15.176  24.781  0.00  0.00    +0.000 C 
ATOM     13  N   UNL     1      -1.482  14.720  24.081  0.00  0.00    +0.000 N 
ATOM     14  C   UNL     1      -0.849  14.137  22.980  0.00  0.00    +0.000 A 
ATOM     15  O   UNL     1       0.305  14.206  22.592  0.00  0.00    +0.000 OA
BRANCH  13  16
ATOM     16  C   UNL     1      -0.990  15.765  24.878  0.00  0.00    +0.000 A 
ATOM     17  C   UNL     1      -0.891  15.661  26.267  0.00  0.00    +0.000 A 
ATOM     18  C   UNL     1      -0.372  16.731  27.008  0.00  0.00    +0.000 A 
ATOM     19  C   UNL     1       0.017  17.911  26.370  0.00  0.00    +0.000 A 
ATOM     20  C   UNL     1      -0.098  18.021  24.989  0.00  0.00    +0.000 A 
ATOM     21  C   UNL     1      -0.587  16.945  24.244  0.00  0.00    +0.000 A 
ENDBRANCH  13  16
ENDBRANCH   6   8
BRANCH   2  22
ATOM     22  C   UNL     1       1.202   8.707  19.784  0.00  0.00    +0.000 A 
ATOM     23  C   UNL     1       1.624   9.111  18.499  0.00  0.00    +0.000 A 
ATOM     24  C   UNL     1       2.565   8.376  17.774  0.00  0.00    +0.000 A 
ATOM     25  C   UNL     1       3.084   7.193  18.295  0.00  0.00    +0.000 A 
ATOM     26  C   UNL     1       4.130   6.414  17.555  0.00  0.00    +0.000 C 
ATOM     27  C   UNL     1       2.625   6.748  19.538  0.00  0.00    +0.000 A 
ATOM     28  C   UNL     1       1.706   7.502  20.279  0.00  0.00    +0.000 A 
ENDBRANCH   2  22
BRANCH   1  29
ATOM     29  C   UNL     1      -0.157  11.386  18.871  0.00  0.00    +0.000 C 
BRANCH  29  31
ATOM     30  C   UNL     1      -2.142  10.018  17.955  0.00  0.00    +0.000 C 
ATOM     31  C   UNL     1      -1.360  11.108  18.007  0.00  0.00    +0.000 C 
ENDBRANCH  29  31
ENDBRANCH   1  29
TORSDOF 5
ENDMDL
MODEL 6
REMARK VINA RESULT:      -6.9      3.742     10.842
REMARK  Name = 
REMARK  8 active torsions:
REMARK  status: ('A' for Active; 'I' for Inactive)
REMARK    1  A    between atoms: C_2  and  C_3
REMARK    2  A    between atoms: C_3  and  N_4
REMARK    3  A    between atoms: C_5  and  C_6
REMARK    4  A    between atoms: C_9  and  C_10
REMARK    5  A    between atoms: N_16  and  C_17
REMARK    6  A    between atoms: C_18  and  C_19
REMARK    7  A    between atoms: N_20  and  C_21
REMARK    8  A    between atoms: N_22  and  C_23
REMARK                            x       y       z     vdW  Elec       q    Type
REMARK                         _______ _______ _______ _____ _____    ______ ____
ROOT
ATOM      1  N   UNL     1      -0.252  10.396  19.333  0.00  0.00    +0.000 N 
ATOM      2  C   UNL     1       0.732   9.653  20.003  0.00  0.00    +0.000 A 
ATOM      3  C   UNL     1       0.853  10.046  21.325  0.00  0.00    +0.000 A 
ATOM      4  S   UNL     1      -0.110  11.394  21.703  0.00  0.00    +0.000 S 
ATOM      5  C   UNL     1      -0.770  11.383  20.093  0.00  0.00    +0.000 A 
ATOM      6  N   UNL     1      -1.737  12.217  19.715  0.00  0.00    +0.000 N 
ATOM      7  H   UNL     1      -2.492  11.745  19.229  0.00  0.00    +0.000 HD
ENDROOT
BRANCH   6   8
ATOM      8  C   UNL     1      -2.000  13.431  20.313  0.00  0.00    +0.000 A 
ATOM      9  C   UNL     1      -1.413  14.638  20.183  0.00  0.00    +0.000 A 
ATOM     10  C   UNL     1      -0.275  14.988  19.278  0.00  0.00    +0.000 C 
ATOM     11  N   UNL     1      -2.065  15.600  20.949  0.00  0.00    +0.000 N 
ATOM     12  C   UNL     1      -1.680  16.989  21.192  0.00  0.00    +0.000 C 
ATOM     13  N   UNL     1      -3.144  14.991  21.606  0.00  0.00    +0.000 N 
ATOM     14  C   UNL     1      -3.074  13.619  21.352  0.00  0.00    +0.000 A 
ATOM     15  O   UNL     1      -3.695  12.685  21.831  0.00  0.00    +0.000 OA
BRANCH  13  16
ATOM     16  C   UNL     1      -3.779  15.615  22.690  0.00  0.00    +0.000 A 
ATOM     17  C   UNL     1      -3.227  15.627  23.973  0.00  0.00    +0.000 A 
ATOM     18  C   UNL     1      -3.899  16.284  25.012  0.00  0.00    +0.000 A 
ATOM     19  C   UNL     1      -5.132  16.900  24.780  0.00  0.00    +0.000 A 
ATOM     20  C   UNL     1      -5.690  16.872  23.508  0.00  0.00    +0.000 A 
ATOM     21  C   UNL     1      -5.008  16.244  22.462  0.00  0.00    +0.000 A 
ENDBRANCH  13  16
ENDBRANCH   6   8
BRANCH   2  22
ATOM     22  C   UNL     1       1.591   8.560  19.520  0.00  0.00    +0.000 A 
ATOM     23  C   UNL     1       1.730   7.396  20.304  0.00  0.00    +0.000 A 
ATOM     24  C   UNL     1       2.373   6.256  19.814  0.00  0.00    +0.000 A 
ATOM     25  C   UNL     1       2.930   6.260  18.537  0.00  0.00    +0.000 A 
ATOM     26  C   UNL     1       3.583   5.033  17.973  0.00  0.00    +0.000 C 
ATOM     27  C   UNL     1       2.856   7.429  17.774  0.00  0.00    +0.000 A 
ATOM     28  C   UNL     1       2.183   8.561  18.254  0.00  0.00    +0.000 A 
ENDBRANCH   2  22
BRANCH   1  29
ATOM     29  C   UNL     1      -0.502  10.238  17.888  0.00  0.00    +0.000 C 
BRANCH  29  31
ATOM     30  C   UNL     1      -2.739  10.007  16.627  0.00  0.00    +0.000 C 
ATOM     31  C   UNL     1      -1.884   9.703  17.616  0.00  0.00    +0.000 C 
ENDBRANCH  29  31
ENDBRANCH   1  29
TORSDOF 5
ENDMDL
MODEL 7
REMARK VINA RESULT:      -6.8      4.267     11.365
REMARK  Name = 
REMARK  8 active torsions:
REMARK  status: ('A' for Active; 'I' for Inactive)
REMARK    1  A    between atoms: C_2  and  C_3
REMARK    2  A    between atoms: C_3  and  N_4
REMARK    3  A    between atoms: C_5  and  C_6
REMARK    4  A    between atoms: C_9  and  C_10
REMARK    5  A    between atoms: N_16  and  C_17
REMARK    6  A    between atoms: C_18  and  C_19
REMARK    7  A    between atoms: N_20  and  C_21
REMARK    8  A    between atoms: N_22  and  C_23
REMARK                            x       y       z     vdW  Elec       q    Type
REMARK                         _______ _______ _______ _____ _____    ______ ____
ROOT
ATOM      1  N   UNL     1      -0.732  11.336  19.530  0.00  0.00    +0.000 N 
ATOM      2  C   UNL     1       0.322  10.625  20.127  0.00  0.00    +0.000 A 
ATOM      3  C   UNL     1       0.556  11.056  21.421  0.00  0.00    +0.000 A 
ATOM      4  S   UNL     1      -0.391  12.400  21.850  0.00  0.00    +0.000 S 
ATOM      5  C   UNL     1      -1.195  12.335  20.309  0.00  0.00    +0.000 A 
ATOM      6  N   UNL     1      -2.206  13.145  19.999  0.00  0.00    +0.000 N 
ATOM      7  H   UNL     1      -2.995  12.650  19.598  0.00  0.00    +0.000 HD
ENDROOT
BRANCH   6   8
ATOM      8  C   UNL     1      -2.434  14.371  20.587  0.00  0.00    +0.000 A 
ATOM      9  C   UNL     1      -1.836  15.568  20.419  0.00  0.00    +0.000 A 
ATOM     10  C   UNL     1      -0.723  15.889  19.473  0.00  0.00    +0.000 C 
ATOM     11  N   UNL     1      -2.449  16.550  21.192  0.00  0.00    +0.000 N 
ATOM     12  C   UNL     1      -2.038  17.938  21.400  0.00  0.00    +0.000 C 
ATOM     13  N   UNL     1      -3.514  15.966  21.893  0.00  0.00    +0.000 N 
ATOM     14  C   UNL     1      -3.470  14.589  21.658  0.00  0.00    +0.000 A 
ATOM     15  O   UNL     1      -4.087  13.671  22.171  0.00  0.00    +0.000 OA
BRANCH  13  16
ATOM     16  C   UNL     1      -4.105  16.614  22.988  0.00  0.00    +0.000 A 
ATOM     17  C   UNL     1      -3.534  16.598  24.262  0.00  0.00    +0.000 A 
ATOM     18  C   UNL     1      -4.162  17.281  25.312  0.00  0.00    +0.000 A 
ATOM     19  C   UNL     1      -5.369  17.952  25.099  0.00  0.00    +0.000 A 
ATOM     20  C   UNL     1      -5.946  17.953  23.835  0.00  0.00    +0.000 A 
ATOM     21  C   UNL     1      -5.308  17.298  22.779  0.00  0.00    +0.000 A 
ENDBRANCH  13  16
ENDBRANCH   6   8
BRANCH   2  22
ATOM     22  C   UNL     1       1.151   9.532  19.595  0.00  0.00    +0.000 A 
ATOM     23  C   UNL     1       1.429   8.419  20.416  0.00  0.00    +0.000 A 
ATOM     24  C   UNL     1       2.045   7.272  19.907  0.00  0.00    +0.000 A 
ATOM     25  C   UNL     1       2.436   7.219  18.571  0.00  0.00    +0.000 A 
ATOM     26  C   UNL     1       3.055   5.981  17.993  0.00  0.00    +0.000 C 
ATOM     27  C   UNL     1       2.224   8.341  17.764  0.00  0.00    +0.000 A 
ATOM     28  C   UNL     1       1.578   9.478  18.266  0.00  0.00    +0.000 A 
ENDBRANCH   2  22
BRANCH   1  29
ATOM     29  C   UNL     1      -1.110  11.135  18.119  0.00  0.00    +0.000 C 
BRANCH  29  31
ATOM     30  C   UNL     1      -2.942   9.803  16.885  0.00  0.00    +0.000 C 
ATOM     31  C   UNL     1      -2.255  10.165  17.981  0.00  0.00    +0.000 C 
ENDBRANCH  29  31
ENDBRANCH   1  29
TORSDOF 5
ENDMDL
MODEL 8
REMARK VINA RESULT:      -6.7      3.029     10.316
REMARK  Name = 
REMARK  8 active torsions:
REMARK  status: ('A' for Active; 'I' for Inactive)
REMARK    1  A    between atoms: C_2  and  C_3
REMARK    2  A    between atoms: C_3  and  N_4
REMARK    3  A    between atoms: C_5  and  C_6
REMARK    4  A    between atoms: C_9  and  C_10
REMARK    5  A    between atoms: N_16  and  C_17
REMARK    6  A    between atoms: C_18  and  C_19
REMARK    7  A    between atoms: N_20  and  C_21
REMARK    8  A    between atoms: N_22  and  C_23
REMARK                            x       y       z     vdW  Elec       q    Type
REMARK                         _______ _______ _______ _____ _____    ______ ____
ROOT
ATOM      1  N   UNL     1       0.796   9.462  19.696  0.00  0.00    +0.000 N 
ATOM      2  C   UNL     1       1.340   8.371  20.392  0.00  0.00    +0.000 A 
ATOM      3  C   UNL     1       1.168   8.506  21.759  0.00  0.00    +0.000 A 
ATOM      4  S   UNL     1       0.490  10.001  22.195  0.00  0.00    +0.000 S 
ATOM      5  C   UNL     1       0.335  10.428  20.515  0.00  0.00    +0.000 A 
ATOM      6  N   UNL     1      -0.254  11.555  20.119  0.00  0.00    +0.000 N 
ATOM      7  H   UNL     1      -0.929  11.403  19.378  0.00  0.00    +0.000 HD
ENDROOT
BRANCH   6   8
ATOM      8  C   UNL     1      -0.379  12.687  20.896  0.00  0.00    +0.000 A 
ATOM      9  C   UNL     1       0.520  13.625  21.260  0.00  0.00    +0.000 A 
ATOM     10  C   UNL     1       1.960  13.689  20.862  0.00  0.00    +0.000 C 
ATOM     11  N   UNL     1      -0.080  14.632  22.010  0.00  0.00    +0.000 N 
ATOM     12  C   UNL     1       0.550  15.756  22.701  0.00  0.00    +0.000 C 
ATOM     13  N   UNL     1      -1.447  14.344  22.133  0.00  0.00    +0.000 N 
ATOM     14  C   UNL     1      -1.665  13.081  21.573  0.00  0.00    +0.000 A 
ATOM     15  O   UNL     1      -2.647  12.359  21.589  0.00  0.00    +0.000 OA
BRANCH  13  16
ATOM     16  C   UNL     1      -2.241  14.986  23.095  0.00  0.00    +0.000 A 
ATOM     17  C   UNL     1      -2.234  14.612  24.440  0.00  0.00    +0.000 A 
ATOM     18  C   UNL     1      -3.034  15.305  25.357  0.00  0.00    +0.000 A 
ATOM     19  C   UNL     1      -3.863  16.345  24.930  0.00  0.00    +0.000 A 
ATOM     20  C   UNL     1      -3.884  16.706  23.588  0.00  0.00    +0.000 A 
ATOM     21  C   UNL     1      -3.064  16.037  22.675  0.00  0.00    +0.000 A 
ENDBRANCH  13  16
ENDBRANCH   6   8
BRANCH   2  22
ATOM     22  C   UNL     1       2.013   7.163  19.890  0.00  0.00    +0.000 A 
ATOM     23  C   UNL     1       1.750   5.922  20.508  0.00  0.00    +0.000 A 
ATOM     24  C   UNL     1       2.207   4.721  19.958  0.00  0.00    +0.000 A 
ATOM     25  C   UNL     1       2.974   4.728  18.795  0.00  0.00    +0.000 A 
ATOM     26  C   UNL     1       3.435   3.448  18.163  0.00  0.00    +0.000 C 
ATOM     27  C   UNL     1       3.296   5.956  18.211  0.00  0.00    +0.000 A 
ATOM     28  C   UNL     1       2.811   7.157  18.743  0.00  0.00    +0.000 A 
ENDBRANCH   2  22
BRANCH   1  29
ATOM     29  C   UNL     1       0.939   9.606  18.235  0.00  0.00    +0.000 C 
BRANCH  29  31
ATOM     30  C   UNL     1       2.403  11.699  17.881  0.00  0.00    +0.000 C 
ATOM     31  C   UNL     1       2.182  10.375  17.868  0.00  0.00    +0.000 C 
ENDBRANCH  29  31
ENDBRANCH   1  29
TORSDOF 5
ENDMDL
MODEL 9
REMARK VINA RESULT:      -6.7      3.112     10.227
REMARK  Name = 
REMARK  8 active torsions:
REMARK  status: ('A' for Active; 'I' for Inactive)
REMARK    1  A    between atoms: C_2  and  C_3
REMARK    2  A    between atoms: C_3  and  N_4
REMARK    3  A    between atoms: C_5  and  C_6
REMARK    4  A    between atoms: C_9  and  C_10
REMARK    5  A    between atoms: N_16  and  C_17
REMARK    6  A    between atoms: C_18  and  C_19
REMARK    7  A    between atoms: N_20  and  C_21
REMARK    8  A    between atoms: N_22  and  C_23
REMARK                            x       y       z     vdW  Elec       q    Type
REMARK                         _______ _______ _______ _____ _____    ______ ____
ROOT
ATOM      1  N   UNL     1       0.913   9.595  19.669  0.00  0.00    +0.000 N 
ATOM      2  C   UNL     1       1.408   8.469  20.346  0.00  0.00    +0.000 A 
ATOM      3  C   UNL     1       1.317   8.621  21.719  0.00  0.00    +0.000 A 
ATOM      4  S   UNL     1       0.775  10.165  22.177  0.00  0.00    +0.000 S 
ATOM      5  C   UNL     1       0.568  10.596  20.504  0.00  0.00    +0.000 A 
ATOM      6  N   UNL     1       0.046  11.763  20.130  0.00  0.00    +0.000 N 
ATOM      7  H   UNL     1      -0.676  11.660  19.425  0.00  0.00    +0.000 HD
ENDROOT
BRANCH   6   8
ATOM      8  C   UNL     1       0.046  12.904  20.904  0.00  0.00    +0.000 A 
ATOM      9  C   UNL     1       1.023  13.788  21.193  0.00  0.00    +0.000 A 
ATOM     10  C   UNL     1       2.431  13.764  20.691  0.00  0.00    +0.000 C 
ATOM     11  N   UNL     1       0.541  14.833  21.976  0.00  0.00    +0.000 N 
ATOM     12  C   UNL     1       1.287  15.919  22.610  0.00  0.00    +0.000 C 
ATOM     13  N   UNL     1      -0.828  14.627  22.201  0.00  0.00    +0.000 N 
ATOM     14  C   UNL     1      -1.161  13.378  21.670  0.00  0.00    +0.000 A 
ATOM     15  O   UNL     1      -2.181  12.716  21.764  0.00  0.00    +0.000 OA
BRANCH  13  16
ATOM     16  C   UNL     1      -1.510  15.320  23.213  0.00  0.00    +0.000 A 
ATOM     17  C   UNL     1      -2.280  16.455  22.952  0.00  0.00    +0.000 A 
ATOM     18  C   UNL     1      -2.954  17.093  24.002  0.00  0.00    +0.000 A 
ATOM     19  C   UNL     1      -2.835  16.619  25.311  0.00  0.00    +0.000 A 
ATOM     20  C   UNL     1      -2.054  15.500  25.573  0.00  0.00    +0.000 A 
ATOM     21  C   UNL     1      -1.405  14.843  24.524  0.00  0.00    +0.000 A 
ENDBRANCH  13  16
ENDBRANCH   6   8
BRANCH   2  22
ATOM     22  C   UNL     1       1.962   7.212  19.819  0.00  0.00    +0.000 A 
ATOM     23  C   UNL     1       1.705   6.006  20.505  0.00  0.00    +0.000 A 
ATOM     24  C   UNL     1       2.040   4.766  19.954  0.00  0.00    +0.000 A 
ATOM     25  C   UNL     1       2.678   4.697  18.717  0.00  0.00    +0.000 A 
ATOM     26  C   UNL     1       3.003   3.376  18.087  0.00  0.00    +0.000 C 
ATOM     27  C   UNL     1       2.996   5.888  18.058  0.00  0.00    +0.000 A 
ATOM     28  C   UNL     1       2.631   7.129  18.595  0.00  0.00    +0.000 A 
ENDBRANCH   2  22
BRANCH   1  29
ATOM     29  C   UNL     1       0.992   9.723  18.202  0.00  0.00    +0.000 C 
BRANCH  29  31
ATOM     30  C   UNL     1      -1.476  10.005  17.511  0.00  0.00    +0.000 C 
ATOM     31  C   UNL     1      -0.307   9.345  17.538  0.00  0.00    +0.000 C 
ENDBRANCH  29  31
ENDBRANCH   1  29
TORSDOF 5
ENDMDL
