MODEL 1
REMARK VINA RESULT:      -8.4      0.000      0.000
REMARK  Name = 
REMARK  11 active torsions:
REMARK  status: ('A' for Active; 'I' for Inactive)
REMARK    1  A    between atoms: C_1  and  O_2
REMARK    2  A    between atoms: O_2  and  C_3
REMARK    3  A    between atoms: C_6  and  N_7
REMARK    4  A    between atoms: N_7  and  S_8
REMARK    5  A    between atoms: S_8  and  C_11
REMARK    6  A    between atoms: C_13  and  N_14
REMARK    7  A    between atoms: C_15  and  C_17
REMARK    8  A    between atoms: C_17  and  C_18
REMARK    9  A    between atoms: C_18  and  C_20
REMARK   10  A    between atoms: C_23  and  N_24
REMARK   11  A    between atoms: C_31  and  C_32
REMARK                            x       y       z     vdW  Elec       q    Type
REMARK                         _______ _______ _______ _____ _____    ______ ____
ROOT
ATOM      1  C   UNL     1       2.965   4.425  19.257  0.00  0.00    +0.000 A 
ATOM      2  C   UNL     1       4.078   5.277  19.106  0.00  0.00    +0.000 A 
ATOM      3  C   UNL     1       5.064   5.002  18.162  0.00  0.00    +0.000 A 
ATOM      4  C   UNL     1       4.903   3.901  17.321  0.00  0.00    +0.000 A 
ATOM      5  C   UNL     1       3.771   3.086  17.425  0.00  0.00    +0.000 A 
ATOM      6  C   UNL     1       2.773   3.342  18.382  0.00  0.00    +0.000 A 
ATOM      7  C   UNL     1       1.568   2.448  18.407  0.00  0.00    +0.000 C 
ENDROOT
BRANCH   3   8
ATOM      8  N   UNL     1       6.235   5.770  18.016  0.00  0.00    +0.000 N 
ATOM      9  C   UNL     1       7.238   5.954  18.950  0.00  0.00    +0.000 C 
ATOM     10  O   UNL     1       7.275   5.432  20.062  0.00  0.00    +0.000 OA
ATOM     11  H   UNL     1       6.447   6.085  17.067  0.00  0.00    +0.000 HD
BRANCH   9  12
ATOM     12  C   UNL     1       8.324   6.936  18.558  0.00  0.00    +0.000 C 
BRANCH  12  13
ATOM     13  C   UNL     1       7.891   8.187  17.831  0.00  0.00    +0.000 C 
ATOM     14  O   UNL     1       7.097   8.167  16.893  0.00  0.00    +0.000 OA
BRANCH  13  15
ATOM     15  C   UNL     1       8.451   9.495  18.261  0.00  0.00    +0.000 A 
ATOM     16  C   UNL     1       8.157  10.622  17.480  0.00  0.00    +0.000 A 
ATOM     17  C   UNL     1       8.647  11.879  17.838  0.00  0.00    +0.000 A 
ATOM     18  C   UNL     1       9.425  12.010  18.995  0.00  0.00    +0.000 A 
ATOM     19  C   UNL     1       9.710  10.891  19.792  0.00  0.00    +0.000 A 
ATOM     20  C   UNL     1       9.225   9.631  19.421  0.00  0.00    +0.000 A 
BRANCH  18  21
ATOM     21  N   UNL     1       9.946  13.331  19.372  0.00  0.00    +0.000 N 
ATOM     22  O   UNL     1       9.163  14.129  19.904  0.00  0.00    +0.000 OA
ATOM     23  O   UNL     1      11.139  13.567  19.132  0.00  0.00    +0.000 OA
ENDBRANCH  18  21
ENDBRANCH  13  15
ENDBRANCH  12  13
ENDBRANCH   9  12
ENDBRANCH   3   8
BRANCH   1  24
ATOM     24  S   UNL     1       1.881   4.800  20.634  0.00  0.00    +0.000 S 
ATOM     25  O   UNL     1       2.139   3.897  21.735  0.00  0.00    +0.000 OA
ATOM     26  O   UNL     1       0.548   4.937  20.087  0.00  0.00    +0.000 OA
BRANCH  24  27
ATOM     27  N   UNL     1       2.355   6.352  21.117  0.00  0.00    +0.000 N 
ATOM     28  H   UNL     1       2.628   6.384  22.099  0.00  0.00    +0.000 HD
BRANCH  27  32
ATOM     29  C   UNL     1       0.406   9.746  19.541  0.00  0.00    +0.000 A 
ATOM     30  C   UNL     1       0.058   9.253  20.799  0.00  0.00    +0.000 A 
ATOM     31  C   UNL     1       0.720   8.147  21.331  0.00  0.00    +0.000 A 
ATOM     32  C   UNL     1       1.696   7.490  20.582  0.00  0.00    +0.000 A 
ATOM     33  C   UNL     1       2.019   7.952  19.308  0.00  0.00    +0.000 A 
ATOM     34  C   UNL     1       1.385   9.092  18.795  0.00  0.00    +0.000 A 
BRANCH  29  36
ATOM     35  C   UNL     1      -1.329  10.599  18.182  0.00  0.00    +0.000 C 
ATOM     36  O   UNL     1      -0.301  10.845  19.136  0.00  0.00    +0.000 OA
ENDBRANCH  29  36
ENDBRANCH  27  32
ENDBRANCH  24  27
ENDBRANCH   1  24
TORSDOF 9
ENDMDL
MODEL 2
REMARK VINA RESULT:      -8.4      0.491      1.271
REMARK  Name = 
REMARK  11 active torsions:
REMARK  status: ('A' for Active; 'I' for Inactive)
REMARK    1  A    between atoms: C_1  and  O_2
REMARK    2  A    between atoms: O_2  and  C_3
REMARK    3  A    between atoms: C_6  and  N_7
REMARK    4  A    between atoms: N_7  and  S_8
REMARK    5  A    between atoms: S_8  and  C_11
REMARK    6  A    between atoms: C_13  and  N_14
REMARK    7  A    between atoms: C_15  and  C_17
REMARK    8  A    between atoms: C_17  and  C_18
REMARK    9  A    between atoms: C_18  and  C_20
REMARK   10  A    between atoms: C_23  and  N_24
REMARK   11  A    between atoms: C_31  and  C_32
REMARK                            x       y       z     vdW  Elec       q    Type
REMARK                         _______ _______ _______ _____ _____    ______ ____
ROOT
ATOM      1  C   UNL     1       3.021   4.439  19.246  0.00  0.00    +0.000 A 
ATOM      2  C   UNL     1       4.123   5.306  19.100  0.00  0.00    +0.000 A 
ATOM      3  C   UNL     1       5.117   5.045  18.161  0.00  0.00    +0.000 A 
ATOM      4  C   UNL     1       4.975   3.942  17.319  0.00  0.00    +0.000 A 
ATOM      5  C   UNL     1       3.853   3.112  17.418  0.00  0.00    +0.000 A 
ATOM      6  C   UNL     1       2.848   3.354  18.370  0.00  0.00    +0.000 A 
ATOM      7  C   UNL     1       1.655   2.445  18.390  0.00  0.00    +0.000 C 
ENDROOT
BRANCH   3   8
ATOM      8  N   UNL     1       6.279   5.828  18.021  0.00  0.00    +0.000 N 
ATOM      9  C   UNL     1       7.279   6.018  18.956  0.00  0.00    +0.000 C 
ATOM     10  O   UNL     1       7.322   5.490  20.064  0.00  0.00    +0.000 OA
ATOM     11  H   UNL     1       6.487   6.152  17.074  0.00  0.00    +0.000 HD
BRANCH   9  12
ATOM     12  C   UNL     1       8.353   7.017  18.571  0.00  0.00    +0.000 C 
BRANCH  12  13
ATOM     13  C   UNL     1       7.906   8.258  17.836  0.00  0.00    +0.000 C 
ATOM     14  O   UNL     1       7.110   8.224  16.900  0.00  0.00    +0.000 OA
BRANCH  13  15
ATOM     15  C   UNL     1       8.456   9.574  18.253  0.00  0.00    +0.000 A 
ATOM     16  C   UNL     1       9.219   9.622  19.428  0.00  0.00    +0.000 A 
ATOM     17  C   UNL     1       9.770  10.827  19.868  0.00  0.00    +0.000 A 
ATOM     18  C   UNL     1       9.567  11.991  19.115  0.00  0.00    +0.000 A 
ATOM     19  C   UNL     1       8.819  11.949  17.928  0.00  0.00    +0.000 A 
ATOM     20  C   UNL     1       8.259  10.739  17.500  0.00  0.00    +0.000 A 
BRANCH  18  21
ATOM     21  N   UNL     1      10.141  13.262  19.575  0.00  0.00    +0.000 N 
ATOM     22  O   UNL     1      10.263  13.430  20.796  0.00  0.00    +0.000 OA
ATOM     23  O   UNL     1      10.466  14.091  18.713  0.00  0.00    +0.000 OA
ENDBRANCH  18  21
ENDBRANCH  13  15
ENDBRANCH  12  13
ENDBRANCH   9  12
ENDBRANCH   3   8
BRANCH   1  24
ATOM     24  S   UNL     1       1.926   4.799  20.618  0.00  0.00    +0.000 S 
ATOM     25  O   UNL     1       2.188   3.897  21.718  0.00  0.00    +0.000 OA
ATOM     26  O   UNL     1       0.595   4.924  20.065  0.00  0.00    +0.000 OA
BRANCH  24  27
ATOM     27  N   UNL     1       2.381   6.356  21.107  0.00  0.00    +0.000 N 
ATOM     28  H   UNL     1       2.595   6.400  22.104  0.00  0.00    +0.000 HD
BRANCH  27  32
ATOM     29  C   UNL     1       0.537   9.714  19.342  0.00  0.00    +0.000 A 
ATOM     30  C   UNL     1       1.500   8.989  18.640  0.00  0.00    +0.000 A 
ATOM     31  C   UNL     1       2.091   7.863  19.214  0.00  0.00    +0.000 A 
ATOM     32  C   UNL     1       1.764   7.490  20.518  0.00  0.00    +0.000 A 
ATOM     33  C   UNL     1       0.833   8.234  21.238  0.00  0.00    +0.000 A 
ATOM     34  C   UNL     1       0.206   9.337  20.643  0.00  0.00    +0.000 A 
BRANCH  29  36
ATOM     35  C   UNL     1      -0.477  11.844  19.482  0.00  0.00    +0.000 C 
ATOM     36  O   UNL     1       0.017  10.785  18.669  0.00  0.00    +0.000 OA
ENDBRANCH  29  36
ENDBRANCH  27  32
ENDBRANCH  24  27
ENDBRANCH   1  24
TORSDOF 9
ENDMDL
MODEL 3
REMARK VINA RESULT:      -8.2      3.453      8.631
REMARK  Name = 
REMARK  11 active torsions:
REMARK  status: ('A' for Active; 'I' for Inactive)
REMARK    1  A    between atoms: C_1  and  O_2
REMARK    2  A    between atoms: O_2  and  C_3
REMARK    3  A    between atoms: C_6  and  N_7
REMARK    4  A    between atoms: N_7  and  S_8
REMARK    5  A    between atoms: S_8  and  C_11
REMARK    6  A    between atoms: C_13  and  N_14
REMARK    7  A    between atoms: C_15  and  C_17
REMARK    8  A    between atoms: C_17  and  C_18
REMARK    9  A    between atoms: C_18  and  C_20
REMARK   10  A    between atoms: C_23  and  N_24
REMARK   11  A    between atoms: C_31  and  C_32
REMARK                            x       y       z     vdW  Elec       q    Type
REMARK                         _______ _______ _______ _____ _____    ______ ____
ROOT
ATOM      1  C   UNL     1       2.543   4.268  18.963  0.00  0.00    +0.000 A 
ATOM      2  C   UNL     1       2.479   5.552  18.386  0.00  0.00    +0.000 A 
ATOM      3  C   UNL     1       2.200   6.672  19.165  0.00  0.00    +0.000 A 
ATOM      4  C   UNL     1       2.046   6.512  20.542  0.00  0.00    +0.000 A 
ATOM      5  C   UNL     1       2.169   5.248  21.130  0.00  0.00    +0.000 A 
ATOM      6  C   UNL     1       2.436   4.106  20.354  0.00  0.00    +0.000 A 
ATOM      7  C   UNL     1       2.594   2.791  21.059  0.00  0.00    +0.000 C 
ENDROOT
BRANCH   3   8
ATOM      8  N   UNL     1       2.045   7.968  18.637  0.00  0.00    +0.000 N 
ATOM      9  C   UNL     1       1.416   9.045  19.231  0.00  0.00    +0.000 C 
ATOM     10  O   UNL     1       0.916   9.042  20.354  0.00  0.00    +0.000 OA
ATOM     11  H   UNL     1       2.600   8.180  17.805  0.00  0.00    +0.000 HD
BRANCH   9  12
ATOM     12  C   UNL     1       1.295  10.288  18.372  0.00  0.00    +0.000 C 
BRANCH  12  13
ATOM     13  C   UNL     1       0.382  11.383  18.872  0.00  0.00    +0.000 C 
ATOM     14  O   UNL     1       0.797  12.355  19.500  0.00  0.00    +0.000 OA
BRANCH  13  15
ATOM     15  C   UNL     1      -1.075  11.280  18.601  0.00  0.00    +0.000 A 
ATOM     16  C   UNL     1      -1.933  12.142  19.298  0.00  0.00    +0.000 A 
ATOM     17  C   UNL     1      -3.312  12.099  19.080  0.00  0.00    +0.000 A 
ATOM     18  C   UNL     1      -3.832  11.195  18.146  0.00  0.00    +0.000 A 
ATOM     19  C   UNL     1      -2.979  10.340  17.431  0.00  0.00    +0.000 A 
ATOM     20  C   UNL     1      -1.598  10.380  17.663  0.00  0.00    +0.000 A 
BRANCH  18  21
ATOM     21  N   UNL     1      -5.282  11.143  17.916  0.00  0.00    +0.000 N 
ATOM     22  O   UNL     1      -5.756  11.893  17.053  0.00  0.00    +0.000 OA
ATOM     23  O   UNL     1      -5.943  10.352  18.604  0.00  0.00    +0.000 OA
ENDBRANCH  18  21
ENDBRANCH  13  15
ENDBRANCH  12  13
ENDBRANCH   9  12
ENDBRANCH   3   8
BRANCH   1  24
ATOM     24  S   UNL     1       2.721   2.907  17.811  0.00  0.00    +0.000 S 
ATOM     25  O   UNL     1       2.224   3.286  16.506  0.00  0.00    +0.000 OA
ATOM     26  O   UNL     1       2.215   1.728  18.480  0.00  0.00    +0.000 OA
BRANCH  24  27
ATOM     27  N   UNL     1       4.396   2.695  17.684  0.00  0.00    +0.000 N 
ATOM     28  H   UNL     1       4.752   2.020  18.361  0.00  0.00    +0.000 HD
BRANCH  27  32
ATOM     29  C   UNL     1       6.879   5.968  16.729  0.00  0.00    +0.000 A 
ATOM     30  C   UNL     1       6.734   5.556  18.054  0.00  0.00    +0.000 A 
ATOM     31  C   UNL     1       5.933   4.458  18.367  0.00  0.00    +0.000 A 
ATOM     32  C   UNL     1       5.226   3.800  17.361  0.00  0.00    +0.000 A 
ATOM     33  C   UNL     1       5.335   4.232  16.041  0.00  0.00    +0.000 A 
ATOM     34  C   UNL     1       6.176   5.307  15.724  0.00  0.00    +0.000 A 
BRANCH  29  36
ATOM     35  C   UNL     1       7.761   7.969  17.627  0.00  0.00    +0.000 C 
ATOM     36  O   UNL     1       7.704   7.045  16.546  0.00  0.00    +0.000 OA
ENDBRANCH  29  36
ENDBRANCH  27  32
ENDBRANCH  24  27
ENDBRANCH   1  24
TORSDOF 9
ENDMDL
MODEL 4
REMARK VINA RESULT:      -8.1      1.827      2.296
REMARK  Name = 
REMARK  11 active torsions:
REMARK  status: ('A' for Active; 'I' for Inactive)
REMARK    1  A    between atoms: C_1  and  O_2
REMARK    2  A    between atoms: O_2  and  C_3
REMARK    3  A    between atoms: C_6  and  N_7
REMARK    4  A    between atoms: N_7  and  S_8
REMARK    5  A    between atoms: S_8  and  C_11
REMARK    6  A    between atoms: C_13  and  N_14
REMARK    7  A    between atoms: C_15  and  C_17
REMARK    8  A    between atoms: C_17  and  C_18
REMARK    9  A    between atoms: C_18  and  C_20
REMARK   10  A    between atoms: C_23  and  N_24
REMARK   11  A    between atoms: C_31  and  C_32
REMARK                            x       y       z     vdW  Elec       q    Type
REMARK                         _______ _______ _______ _____ _____    ______ ____
ROOT
ATOM      1  C   UNL     1       4.107   5.193  18.060  0.00  0.00    +0.000 A 
ATOM      2  C   UNL     1       4.776   6.420  17.878  0.00  0.00    +0.000 A 
ATOM      3  C   UNL     1       5.943   6.492  17.123  0.00  0.00    +0.000 A 
ATOM      4  C   UNL     1       6.410   5.338  16.494  0.00  0.00    +0.000 A 
ATOM      5  C   UNL     1       5.717   4.129  16.620  0.00  0.00    +0.000 A 
ATOM      6  C   UNL     1       4.545   4.037  17.391  0.00  0.00    +0.000 A 
ATOM      7  C   UNL     1       3.834   2.717  17.448  0.00  0.00    +0.000 C 
ENDROOT
BRANCH   3   8
ATOM      8  N   UNL     1       6.698   7.670  16.969  0.00  0.00    +0.000 N 
ATOM      9  C   UNL     1       7.796   8.065  17.711  0.00  0.00    +0.000 C 
ATOM     10  O   UNL     1       8.311   7.412  18.615  0.00  0.00    +0.000 OA
ATOM     11  H   UNL     1       6.521   8.206  16.117  0.00  0.00    +0.000 HD
BRANCH   9  12
ATOM     12  C   UNL     1       8.334   9.447  17.398  0.00  0.00    +0.000 C 
BRANCH  12  13
ATOM     13  C   UNL     1       9.015  10.191  18.523  0.00  0.00    +0.000 C 
ATOM     14  O   UNL     1       9.034   9.771  19.677  0.00  0.00    +0.000 OA
BRANCH  13  15
ATOM     15  C   UNL     1       9.681  11.485  18.225  0.00  0.00    +0.000 A 
ATOM     16  C   UNL     1       8.891  12.643  18.221  0.00  0.00    +0.000 A 
ATOM     17  C   UNL     1       9.461  13.890  17.957  0.00  0.00    +0.000 A 
ATOM     18  C   UNL     1      10.837  13.978  17.710  0.00  0.00    +0.000 A 
ATOM     19  C   UNL     1      11.639  12.827  17.729  0.00  0.00    +0.000 A 
ATOM     20  C   UNL     1      11.058  11.578  17.983  0.00  0.00    +0.000 A 
BRANCH  18  21
ATOM     21  N   UNL     1      11.440  15.288  17.428  0.00  0.00    +0.000 N 
ATOM     22  O   UNL     1      11.023  15.914  16.444  0.00  0.00    +0.000 OA
ATOM     23  O   UNL     1      12.333  15.684  18.190  0.00  0.00    +0.000 OA
ENDBRANCH  18  21
ENDBRANCH  13  15
ENDBRANCH  12  13
ENDBRANCH   9  12
ENDBRANCH   3   8
BRANCH   1  24
ATOM     24  S   UNL     1       2.731   5.221  19.208  0.00  0.00    +0.000 S 
ATOM     25  O   UNL     1       2.835   4.121  20.142  0.00  0.00    +0.000 OA
ATOM     26  O   UNL     1       1.534   5.408  18.416  0.00  0.00    +0.000 OA
BRANCH  24  27
ATOM     27  N   UNL     1       2.952   6.658  20.076  0.00  0.00    +0.000 N 
ATOM     28  H   UNL     1       3.347   6.493  21.002  0.00  0.00    +0.000 HD
BRANCH  27  32
ATOM     29  C   UNL     1       0.175   9.810  19.693  0.00  0.00    +0.000 A 
ATOM     30  C   UNL     1       0.205   9.034  20.852  0.00  0.00    +0.000 A 
ATOM     31  C   UNL     1       1.140   8.008  20.989  0.00  0.00    +0.000 A 
ATOM     32  C   UNL     1       2.014   7.715  19.942  0.00  0.00    +0.000 A 
ATOM     33  C   UNL     1       1.961   8.460  18.766  0.00  0.00    +0.000 A 
ATOM     34  C   UNL     1       1.052   9.520  18.649  0.00  0.00    +0.000 A 
BRANCH  29  36
ATOM     35  C   UNL     1      -0.853  11.588  20.864  0.00  0.00    +0.000 C 
ATOM     36  O   UNL     1      -0.773  10.797  19.683  0.00  0.00    +0.000 OA
ENDBRANCH  29  36
ENDBRANCH  27  32
ENDBRANCH  24  27
ENDBRANCH   1  24
TORSDOF 9
ENDMDL
MODEL 5
REMARK VINA RESULT:      -8.0      4.375      6.620
REMARK  Name = 
REMARK  11 active torsions:
REMARK  status: ('A' for Active; 'I' for Inactive)
REMARK    1  A    between atoms: C_1  and  O_2
REMARK    2  A    between atoms: O_2  and  C_3
REMARK    3  A    between atoms: C_6  and  N_7
REMARK    4  A    between atoms: N_7  and  S_8
REMARK    5  A    between atoms: S_8  and  C_11
REMARK    6  A    between atoms: C_13  and  N_14
REMARK    7  A    between atoms: C_15  and  C_17
REMARK    8  A    between atoms: C_17  and  C_18
REMARK    9  A    between atoms: C_18  and  C_20
REMARK   10  A    between atoms: C_23  and  N_24
REMARK   11  A    between atoms: C_31  and  C_32
REMARK                            x       y       z     vdW  Elec       q    Type
REMARK                         _______ _______ _______ _____ _____    ______ ____
ROOT
ATOM      1  C   UNL     1       1.086   9.136  20.108  0.00  0.00    +0.000 A 
ATOM      2  C   UNL     1       1.925   8.005  20.175  0.00  0.00    +0.000 A 
ATOM      3  C   UNL     1       2.456   7.440  19.019  0.00  0.00    +0.000 A 
ATOM      4  C   UNL     1       2.196   8.050  17.791  0.00  0.00    +0.000 A 
ATOM      5  C   UNL     1       1.414   9.208  17.724  0.00  0.00    +0.000 A 
ATOM      6  C   UNL     1       0.859   9.782  18.881  0.00  0.00    +0.000 A 
ATOM      7  C   UNL     1       0.064  11.046  18.735  0.00  0.00    +0.000 C 
ENDROOT
BRANCH   3   8
ATOM      8  N   UNL     1       3.235   6.268  19.013  0.00  0.00    +0.000 N 
ATOM      9  C   UNL     1       2.786   4.964  19.097  0.00  0.00    +0.000 C 
ATOM     10  O   UNL     1       1.607   4.622  19.154  0.00  0.00    +0.000 OA
ATOM     11  H   UNL     1       4.216   6.385  18.751  0.00  0.00    +0.000 HD
BRANCH   9  12
ATOM     12  C   UNL     1       3.867   3.904  19.191  0.00  0.00    +0.000 C 
BRANCH  12  13
ATOM     13  C   UNL     1       5.288   4.348  18.937  0.00  0.00    +0.000 C 
ATOM     14  O   UNL     1       6.067   4.626  19.846  0.00  0.00    +0.000 OA
BRANCH  13  15
ATOM     15  C   UNL     1       5.763   4.461  17.534  0.00  0.00    +0.000 A 
ATOM     16  C   UNL     1       6.920   5.216  17.293  0.00  0.00    +0.000 A 
ATOM     17  C   UNL     1       7.420   5.352  15.996  0.00  0.00    +0.000 A 
ATOM     18  C   UNL     1       6.765   4.714  14.936  0.00  0.00    +0.000 A 
ATOM     19  C   UNL     1       5.617   3.942  15.170  0.00  0.00    +0.000 A 
ATOM     20  C   UNL     1       5.113   3.820  16.471  0.00  0.00    +0.000 A 
BRANCH  18  21
ATOM     21  N   UNL     1       7.285   4.858  13.570  0.00  0.00    +0.000 N 
ATOM     22  O   UNL     1       6.797   4.138  12.689  0.00  0.00    +0.000 OA
ATOM     23  O   UNL     1       8.185   5.690  13.383  0.00  0.00    +0.000 OA
ENDBRANCH  18  21
ENDBRANCH  13  15
ENDBRANCH  12  13
ENDBRANCH   9  12
ENDBRANCH   3   8
BRANCH   1  24
ATOM     24  S   UNL     1       0.328   9.633  21.653  0.00  0.00    +0.000 S 
ATOM     25  O   UNL     1       1.295   9.578  22.728  0.00  0.00    +0.000 OA
ATOM     26  O   UNL     1      -0.926   8.915  21.751  0.00  0.00    +0.000 OA
BRANCH  24  27
ATOM     27  N   UNL     1      -0.078  11.259  21.406  0.00  0.00    +0.000 N 
ATOM     28  H   UNL     1       0.727  11.877  21.506  0.00  0.00    +0.000 HD
BRANCH  27  32
ATOM     29  C   UNL     1      -3.812  12.724  22.713  0.00  0.00    +0.000 A 
ATOM     30  C   UNL     1      -2.948  12.095  23.610  0.00  0.00    +0.000 A 
ATOM     31  C   UNL     1      -1.703  11.634  23.184  0.00  0.00    +0.000 A 
ATOM     32  C   UNL     1      -1.337  11.746  21.842  0.00  0.00    +0.000 A 
ATOM     33  C   UNL     1      -2.213  12.336  20.933  0.00  0.00    +0.000 A 
ATOM     34  C   UNL     1      -3.444  12.841  21.374  0.00  0.00    +0.000 A 
BRANCH  29  36
ATOM     35  C   UNL     1      -5.884  13.800  22.351  0.00  0.00    +0.000 C 
ATOM     36  O   UNL     1      -4.995  13.149  23.253  0.00  0.00    +0.000 OA
ENDBRANCH  29  36
ENDBRANCH  27  32
ENDBRANCH  24  27
ENDBRANCH   1  24
TORSDOF 9
ENDMDL
MODEL 6
REMARK VINA RESULT:      -7.9      3.441      7.763
REMARK  Name = 
REMARK  11 active torsions:
REMARK  status: ('A' for Active; 'I' for Inactive)
REMARK    1  A    between atoms: C_1  and  O_2
REMARK    2  A    between atoms: O_2  and  C_3
REMARK    3  A    between atoms: C_6  and  N_7
REMARK    4  A    between atoms: N_7  and  S_8
REMARK    5  A    between atoms: S_8  and  C_11
REMARK    6  A    between atoms: C_13  and  N_14
REMARK    7  A    between atoms: C_15  and  C_17
REMARK    8  A    between atoms: C_17  and  C_18
REMARK    9  A    between atoms: C_18  and  C_20
REMARK   10  A    between atoms: C_23  and  N_24
REMARK   11  A    between atoms: C_31  and  C_32
REMARK                            x       y       z     vdW  Elec       q    Type
REMARK                         _______ _______ _______ _____ _____    ______ ____
ROOT
ATOM      1  C   UNL     1       2.597   4.172  18.950  0.00  0.00    +0.000 A 
ATOM      2  C   UNL     1       2.290   5.492  18.563  0.00  0.00    +0.000 A 
ATOM      3  C   UNL     1       1.970   6.458  19.512  0.00  0.00    +0.000 A 
ATOM      4  C   UNL     1       2.018   6.117  20.863  0.00  0.00    +0.000 A 
ATOM      5  C   UNL     1       2.381   4.825  21.258  0.00  0.00    +0.000 A 
ATOM      6  C   UNL     1       2.694   3.834  20.311  0.00  0.00    +0.000 A 
ATOM      7  C   UNL     1       3.113   2.482  20.810  0.00  0.00    +0.000 C 
ENDROOT
BRANCH   3   8
ATOM      8  N   UNL     1       1.579   7.771  19.184  0.00  0.00    +0.000 N 
ATOM      9  C   UNL     1       2.054   8.551  18.147  0.00  0.00    +0.000 C 
ATOM     10  O   UNL     1       2.883   8.193  17.313  0.00  0.00    +0.000 OA
ATOM     11  H   UNL     1       0.742   8.119  19.656  0.00  0.00    +0.000 HD
BRANCH   9  12
ATOM     12  C   UNL     1       1.537   9.976  18.110  0.00  0.00    +0.000 C 
BRANCH  12  13
ATOM     13  C   UNL     1       0.054  10.175  18.320  0.00  0.00    +0.000 C 
ATOM     14  O   UNL     1      -0.783   9.848  17.482  0.00  0.00    +0.000 OA
BRANCH  13  15
ATOM     15  C   UNL     1      -0.413  10.798  19.586  0.00  0.00    +0.000 A 
ATOM     16  C   UNL     1      -1.535  11.636  19.529  0.00  0.00    +0.000 A 
ATOM     17  C   UNL     1      -2.026  12.243  20.686  0.00  0.00    +0.000 A 
ATOM     18  C   UNL     1      -1.397  11.995  21.912  0.00  0.00    +0.000 A 
ATOM     19  C   UNL     1      -0.284  11.144  21.982  0.00  0.00    +0.000 A 
ATOM     20  C   UNL     1       0.212  10.548  20.815  0.00  0.00    +0.000 A 
BRANCH  18  21
ATOM     21  N   UNL     1      -1.908  12.635  23.132  0.00  0.00    +0.000 N 
ATOM     22  O   UNL     1      -1.247  13.564  23.615  0.00  0.00    +0.000 OA
ATOM     23  O   UNL     1      -2.968  12.202  23.606  0.00  0.00    +0.000 OA
ENDBRANCH  18  21
ENDBRANCH  13  15
ENDBRANCH  12  13
ENDBRANCH   9  12
ENDBRANCH   3   8
BRANCH   1  24
ATOM     24  S   UNL     1       2.802   2.997  17.613  0.00  0.00    +0.000 S 
ATOM     25  O   UNL     1       2.352   3.574  16.365  0.00  0.00    +0.000 OA
ATOM     26  O   UNL     1       2.264   1.737  18.081  0.00  0.00    +0.000 OA
BRANCH  24  27
ATOM     27  N   UNL     1       4.479   2.784  17.508  0.00  0.00    +0.000 N 
ATOM     28  H   UNL     1       4.811   2.036  18.118  0.00  0.00    +0.000 HD
BRANCH  27  32
ATOM     29  C   UNL     1       6.975   6.142  16.974  0.00  0.00    +0.000 A 
ATOM     30  C   UNL     1       6.398   5.510  15.872  0.00  0.00    +0.000 A 
ATOM     31  C   UNL     1       5.552   4.415  16.051  0.00  0.00    +0.000 A 
ATOM     32  C   UNL     1       5.324   3.910  17.330  0.00  0.00    +0.000 A 
ATOM     33  C   UNL     1       5.930   4.512  18.431  0.00  0.00    +0.000 A 
ATOM     34  C   UNL     1       6.742   5.640  18.253  0.00  0.00    +0.000 A 
BRANCH  29  36
ATOM     35  C   UNL     1       7.828   8.235  17.664  0.00  0.00    +0.000 C 
ATOM     36  O   UNL     1       7.770   7.214  16.674  0.00  0.00    +0.000 OA
ENDBRANCH  29  36
ENDBRANCH  27  32
ENDBRANCH  24  27
ENDBRANCH   1  24
TORSDOF 9
ENDMDL
MODEL 7
REMARK VINA RESULT:      -7.9      4.346      6.657
REMARK  Name = 
REMARK  11 active torsions:
REMARK  status: ('A' for Active; 'I' for Inactive)
REMARK    1  A    between atoms: C_1  and  O_2
REMARK    2  A    between atoms: O_2  and  C_3
REMARK    3  A    between atoms: C_6  and  N_7
REMARK    4  A    between atoms: N_7  and  S_8
REMARK    5  A    between atoms: S_8  and  C_11
REMARK    6  A    between atoms: C_13  and  N_14
REMARK    7  A    between atoms: C_15  and  C_17
REMARK    8  A    between atoms: C_17  and  C_18
REMARK    9  A    between atoms: C_18  and  C_20
REMARK   10  A    between atoms: C_23  and  N_24
REMARK   11  A    between atoms: C_31  and  C_32
REMARK                            x       y       z     vdW  Elec       q    Type
REMARK                         _______ _______ _______ _____ _____    ______ ____
ROOT
ATOM      1  C   UNL     1       1.213   8.905  20.156  0.00  0.00    +0.000 A 
ATOM      2  C   UNL     1       1.737   7.680  20.615  0.00  0.00    +0.000 A 
ATOM      3  C   UNL     1       2.378   6.806  19.742  0.00  0.00    +0.000 A 
ATOM      4  C   UNL     1       2.552   7.189  18.412  0.00  0.00    +0.000 A 
ATOM      5  C   UNL     1       2.087   8.430  17.963  0.00  0.00    +0.000 A 
ATOM      6  C   UNL     1       1.425   9.318  18.829  0.00  0.00    +0.000 A 
ATOM      7  C   UNL     1       0.991  10.648  18.287  0.00  0.00    +0.000 C 
ENDROOT
BRANCH   3   8
ATOM      8  N   UNL     1       2.854   5.536  20.122  0.00  0.00    +0.000 N 
ATOM      9  C   UNL     1       2.147   4.349  20.142  0.00  0.00    +0.000 C 
ATOM     10  O   UNL     1       0.978   4.214  19.788  0.00  0.00    +0.000 OA
ATOM     11  H   UNL     1       3.866   5.453  20.232  0.00  0.00    +0.000 HD
BRANCH   9  12
ATOM     12  C   UNL     1       2.887   3.157  20.717  0.00  0.00    +0.000 C 
BRANCH  12  13
ATOM     13  C   UNL     1       4.192   2.775  20.060  0.00  0.00    +0.000 C 
ATOM     14  O   UNL     1       4.883   1.839  20.454  0.00  0.00    +0.000 OA
BRANCH  13  15
ATOM     15  C   UNL     1       4.665   3.567  18.894  0.00  0.00    +0.000 A 
ATOM     16  C   UNL     1       4.084   3.304  17.645  0.00  0.00    +0.000 A 
ATOM     17  C   UNL     1       4.480   4.022  16.515  0.00  0.00    +0.000 A 
ATOM     18  C   UNL     1       5.454   5.020  16.640  0.00  0.00    +0.000 A 
ATOM     19  C   UNL     1       6.028   5.301  17.889  0.00  0.00    +0.000 A 
ATOM     20  C   UNL     1       5.636   4.570  19.017  0.00  0.00    +0.000 A 
BRANCH  18  21
ATOM     21  N   UNL     1       5.877   5.774  15.452  0.00  0.00    +0.000 N 
ATOM     22  O   UNL     1       5.230   6.786  15.153  0.00  0.00    +0.000 OA
ATOM     23  O   UNL     1       6.855   5.349  14.821  0.00  0.00    +0.000 OA
ENDBRANCH  18  21
ENDBRANCH  13  15
ENDBRANCH  12  13
ENDBRANCH   9  12
ENDBRANCH   3   8
BRANCH   1  24
ATOM     24  S   UNL     1       0.252   9.835  21.349  0.00  0.00    +0.000 S 
ATOM     25  O   UNL     1       1.072  10.853  21.969  0.00  0.00    +0.000 OA
ATOM     26  O   UNL     1      -0.458   8.865  22.155  0.00  0.00    +0.000 OA
BRANCH  24  27
ATOM     27  N   UNL     1      -0.920  10.617  20.410  0.00  0.00    +0.000 N 
ATOM     28  H   UNL     1      -0.793  10.446  19.412  0.00  0.00    +0.000 HD
BRANCH  27  32
ATOM     29  C   UNL     1      -2.363  14.412  21.555  0.00  0.00    +0.000 A 
ATOM     30  C   UNL     1      -1.663  14.255  20.359  0.00  0.00    +0.000 A 
ATOM     31  C   UNL     1      -1.208  12.996  19.968  0.00  0.00    +0.000 A 
ATOM     32  C   UNL     1      -1.401  11.894  20.801  0.00  0.00    +0.000 A 
ATOM     33  C   UNL     1      -2.064  12.051  22.016  0.00  0.00    +0.000 A 
ATOM     34  C   UNL     1      -2.560  13.309  22.385  0.00  0.00    +0.000 A 
BRANCH  29  36
ATOM     35  C   UNL     1      -3.815  16.189  20.989  0.00  0.00    +0.000 C 
ATOM     36  O   UNL     1      -2.773  15.690  21.822  0.00  0.00    +0.000 OA
ENDBRANCH  29  36
ENDBRANCH  27  32
ENDBRANCH  24  27
ENDBRANCH   1  24
TORSDOF 9
ENDMDL
MODEL 8
REMARK VINA RESULT:      -7.9      4.400      6.707
REMARK  Name = 
REMARK  11 active torsions:
REMARK  status: ('A' for Active; 'I' for Inactive)
REMARK    1  A    between atoms: C_1  and  O_2
REMARK    2  A    between atoms: O_2  and  C_3
REMARK    3  A    between atoms: C_6  and  N_7
REMARK    4  A    between atoms: N_7  and  S_8
REMARK    5  A    between atoms: S_8  and  C_11
REMARK    6  A    between atoms: C_13  and  N_14
REMARK    7  A    between atoms: C_15  and  C_17
REMARK    8  A    between atoms: C_17  and  C_18
REMARK    9  A    between atoms: C_18  and  C_20
REMARK   10  A    between atoms: C_23  and  N_24
REMARK   11  A    between atoms: C_31  and  C_32
REMARK                            x       y       z     vdW  Elec       q    Type
REMARK                         _______ _______ _______ _____ _____    ______ ____
ROOT
ATOM      1  C   UNL     1       1.277   8.757  20.490  0.00  0.00    +0.000 A 
ATOM      2  C   UNL     1       1.818   7.510  20.862  0.00  0.00    +0.000 A 
ATOM      3  C   UNL     1       2.381   6.664  19.911  0.00  0.00    +0.000 A 
ATOM      4  C   UNL     1       2.461   7.097  18.587  0.00  0.00    +0.000 A 
ATOM      5  C   UNL     1       1.981   8.360  18.222  0.00  0.00    +0.000 A 
ATOM      6  C   UNL     1       1.396   9.219  19.168  0.00  0.00    +0.000 A 
ATOM      7  C   UNL     1       0.940  10.574  18.710  0.00  0.00    +0.000 C 
ENDROOT
BRANCH   3   8
ATOM      8  N   UNL     1       2.867   5.376  20.206  0.00  0.00    +0.000 N 
ATOM      9  C   UNL     1       2.155   4.192  20.204  0.00  0.00    +0.000 C 
ATOM     10  O   UNL     1       0.969   4.079  19.901  0.00  0.00    +0.000 OA
ATOM     11  H   UNL     1       3.883   5.284  20.263  0.00  0.00    +0.000 HD
BRANCH   9  12
ATOM     12  C   UNL     1       2.914   2.970  20.684  0.00  0.00    +0.000 C 
BRANCH  12  13
ATOM     13  C   UNL     1       4.220   2.656  19.991  0.00  0.00    +0.000 C 
ATOM     14  O   UNL     1       4.982   1.777  20.384  0.00  0.00    +0.000 OA
BRANCH  13  15
ATOM     15  C   UNL     1       4.602   3.447  18.792  0.00  0.00    +0.000 A 
ATOM     16  C   UNL     1       5.547   4.469  18.956  0.00  0.00    +0.000 A 
ATOM     17  C   UNL     1       5.953   5.240  17.865  0.00  0.00    +0.000 A 
ATOM     18  C   UNL     1       5.419   4.974  16.598  0.00  0.00    +0.000 A 
ATOM     19  C   UNL     1       4.486   3.941  16.422  0.00  0.00    +0.000 A 
ATOM     20  C   UNL     1       4.074   3.179  17.523  0.00  0.00    +0.000 A 
BRANCH  18  21
ATOM     21  N   UNL     1       5.840   5.786  15.448  0.00  0.00    +0.000 N 
ATOM     22  O   UNL     1       6.797   5.379  14.776  0.00  0.00    +0.000 OA
ATOM     23  O   UNL     1       5.213   6.831  15.223  0.00  0.00    +0.000 OA
ENDBRANCH  18  21
ENDBRANCH  13  15
ENDBRANCH  12  13
ENDBRANCH   9  12
ENDBRANCH   3   8
BRANCH   1  24
ATOM     24  S   UNL     1       0.419   9.649  21.786  0.00  0.00    +0.000 S 
ATOM     25  O   UNL     1       1.260   9.764  22.957  0.00  0.00    +0.000 OA
ATOM     26  O   UNL     1      -0.905   9.073  21.880  0.00  0.00    +0.000 OA
BRANCH  24  27
ATOM     27  N   UNL     1       0.212  11.204  21.145  0.00  0.00    +0.000 N 
ATOM     28  H   UNL     1       1.099  11.698  21.038  0.00  0.00    +0.000 HD
BRANCH  27  32
ATOM     29  C   UNL     1      -3.186  13.464  22.212  0.00  0.00    +0.000 A 
ATOM     30  C   UNL     1      -3.023  13.011  20.902  0.00  0.00    +0.000 A 
ATOM     31  C   UNL     1      -1.912  12.242  20.556  0.00  0.00    +0.000 A 
ATOM     32  C   UNL     1      -0.927  11.970  21.504  0.00  0.00    +0.000 A 
ATOM     33  C   UNL     1      -1.064  12.454  22.804  0.00  0.00    +0.000 A 
ATOM     34  C   UNL     1      -2.203  13.187  23.161  0.00  0.00    +0.000 A 
BRANCH  29  36
ATOM     35  C   UNL     1      -4.671  14.389  23.800  0.00  0.00    +0.000 C 
ATOM     36  O   UNL     1      -4.323  14.192  22.434  0.00  0.00    +0.000 OA
ENDBRANCH  29  36
ENDBRANCH  27  32
ENDBRANCH  24  27
ENDBRANCH   1  24
TORSDOF 9
ENDMDL
MODEL 9
REMARK VINA RESULT:      -7.9      3.986      7.355
REMARK  Name = 
REMARK  11 active torsions:
REMARK  status: ('A' for Active; 'I' for Inactive)
REMARK    1  A    between atoms: C_1  and  O_2
REMARK    2  A    between atoms: O_2  and  C_3
REMARK    3  A    between atoms: C_6  and  N_7
REMARK    4  A    between atoms: N_7  and  S_8
REMARK    5  A    between atoms: S_8  and  C_11
REMARK    6  A    between atoms: C_13  and  N_14
REMARK    7  A    between atoms: C_15  and  C_17
REMARK    8  A    between atoms: C_17  and  C_18
REMARK    9  A    between atoms: C_18  and  C_20
REMARK   10  A    between atoms: C_23  and  N_24
REMARK   11  A    between atoms: C_31  and  C_32
REMARK                            x       y       z     vdW  Elec       q    Type
REMARK                         _______ _______ _______ _____ _____    ______ ____
ROOT
ATOM      1  C   UNL     1       0.767  10.054  20.027  0.00  0.00    +0.000 A 
ATOM      2  C   UNL     1       1.481   8.846  19.906  0.00  0.00    +0.000 A 
ATOM      3  C   UNL     1       1.354   7.842  20.862  0.00  0.00    +0.000 A 
ATOM      4  C   UNL     1       0.456   8.025  21.914  0.00  0.00    +0.000 A 
ATOM      5  C   UNL     1      -0.301   9.197  22.007  0.00  0.00    +0.000 A 
ATOM      6  C   UNL     1      -0.173  10.226  21.057  0.00  0.00    +0.000 A 
ATOM      7  C   UNL     1      -1.047  11.437  21.200  0.00  0.00    +0.000 C 
ENDROOT
BRANCH   3   8
ATOM      8  N   UNL     1       2.097   6.646  20.838  0.00  0.00    +0.000 N 
ATOM      9  C   UNL     1       1.616   5.365  20.645  0.00  0.00    +0.000 C 
ATOM     10  O   UNL     1       0.443   5.075  20.422  0.00  0.00    +0.000 OA
ATOM     11  H   UNL     1       3.112   6.753  20.792  0.00  0.00    +0.000 HD
BRANCH   9  12
ATOM     12  C   UNL     1       2.637   4.254  20.793  0.00  0.00    +0.000 C 
BRANCH  12  13
ATOM     13  C   UNL     1       3.014   3.495  19.543  0.00  0.00    +0.000 C 
ATOM     14  O   UNL     1       2.454   2.454  19.206  0.00  0.00    +0.000 OA
BRANCH  13  15
ATOM     15  C   UNL     1       4.109   4.022  18.688  0.00  0.00    +0.000 A 
ATOM     16  C   UNL     1       3.983   3.878  17.299  0.00  0.00    +0.000 A 
ATOM     17  C   UNL     1       4.975   4.361  16.443  0.00  0.00    +0.000 A 
ATOM     18  C   UNL     1       6.095   5.006  16.984  0.00  0.00    +0.000 A 
ATOM     19  C   UNL     1       6.221   5.170  18.371  0.00  0.00    +0.000 A 
ATOM     20  C   UNL     1       5.228   4.672  19.225  0.00  0.00    +0.000 A 
BRANCH  18  21
ATOM     21  N   UNL     1       7.143   5.512  16.087  0.00  0.00    +0.000 N 
ATOM     22  O   UNL     1       7.523   4.772  15.170  0.00  0.00    +0.000 OA
ATOM     23  O   UNL     1       7.586   6.648  16.306  0.00  0.00    +0.000 OA
ENDBRANCH  18  21
ENDBRANCH  13  15
ENDBRANCH  12  13
ENDBRANCH   9  12
ENDBRANCH   3   8
BRANCH   1  24
ATOM     24  S   UNL     1       1.176  11.322  18.828  0.00  0.00    +0.000 S 
ATOM     25  O   UNL     1      -0.031  11.911  18.289  0.00  0.00    +0.000 OA
ATOM     26  O   UNL     1       2.178  10.755  17.950  0.00  0.00    +0.000 OA
BRANCH  24  27
ATOM     27  N   UNL     1       1.966  12.509  19.741  0.00  0.00    +0.000 N 
ATOM     28  H   UNL     1       1.824  12.383  20.744  0.00  0.00    +0.000 HD
BRANCH  27  32
ATOM     29  C   UNL     1       2.211  16.469  18.307  0.00  0.00    +0.000 A 
ATOM     30  C   UNL     1       1.254  16.122  19.261  0.00  0.00    +0.000 A 
ATOM     31  C   UNL     1       1.190  14.819  19.754  0.00  0.00    +0.000 A 
ATOM     32  C   UNL     1       2.046  13.839  19.252  0.00  0.00    +0.000 A 
ATOM     33  C   UNL     1       2.977  14.170  18.270  0.00  0.00    +0.000 A 
ATOM     34  C   UNL     1       3.070  15.490  17.810  0.00  0.00    +0.000 A 
BRANCH  29  36
ATOM     35  C   UNL     1       1.281  18.091  16.862  0.00  0.00    +0.000 C 
ATOM     36  O   UNL     1       2.188  17.779  17.914  0.00  0.00    +0.000 OA
ENDBRANCH  29  36
ENDBRANCH  27  32
ENDBRANCH  24  27
ENDBRANCH   1  24
TORSDOF 9
ENDMDL
