MODEL 1
REMARK VINA RESULT:      -5.5      0.000      0.000
REMARK  Name = 
REMARK  4 active torsions:
REMARK  status: ('A' for Active; 'I' for Inactive)
REMARK    1  A    between atoms: C_2  and  C_3
REMARK    2  A    between atoms: C_3  and  C_4
REMARK    3  A    between atoms: C_7  and  O_8
REMARK    4  A    between atoms: O_8  and  C_9
REMARK                            x       y       z     vdW  Elec       q    Type
REMARK                         _______ _______ _______ _____ _____    ______ ____
ROOT
ATOM      1  C   UNL     1       5.716   3.530  12.416  0.00  0.00    +0.000 A 
ATOM      2  C   UNL     1       5.157   3.681  13.692  0.00  0.00    +0.000 A 
ATOM      3  C   UNL     1       5.836   4.397  14.680  0.00  0.00    +0.000 A 
ATOM      4  C   UNL     1       7.083   4.964  14.418  0.00  0.00    +0.000 A 
ATOM      5  C   UNL     1       7.639   4.835  13.145  0.00  0.00    +0.000 A 
ATOM      6  C   UNL     1       6.957   4.123  12.150  0.00  0.00    +0.000 A 
ENDROOT
BRANCH   4   7
ATOM      7  O   UNL     1       7.640   5.653  15.460  0.00  0.00    +0.000 OA
ATOM      8  C   UNL     1       6.821   5.802  16.613  0.00  0.00    +0.000 C 
ENDBRANCH   4   7
BRANCH   1   9
ATOM      9  C   UNL     1       4.975   2.771  11.340  0.00  0.00    +0.000 C 
BRANCH   9  11
ATOM     10  C   UNL     1       3.206   3.807   9.879  0.00  0.00    +0.000 C 
ATOM     11  C   UNL     1       3.610   3.338  11.069  0.00  0.00    +0.000 C 
ENDBRANCH   9  11
ENDBRANCH   1   9
TORSDOF 3
ENDMDL
MODEL 2
REMARK VINA RESULT:      -5.4      0.147      1.459
REMARK  Name = 
REMARK  4 active torsions:
REMARK  status: ('A' for Active; 'I' for Inactive)
REMARK    1  A    between atoms: C_2  and  C_3
REMARK    2  A    between atoms: C_3  and  C_4
REMARK    3  A    between atoms: C_7  and  O_8
REMARK    4  A    between atoms: O_8  and  C_9
REMARK                            x       y       z     vdW  Elec       q    Type
REMARK                         _______ _______ _______ _____ _____    ______ ____
ROOT
ATOM      1  C   UNL     1       5.717   3.517  12.397  0.00  0.00    +0.000 A 
ATOM      2  C   UNL     1       6.974   4.103  12.204  0.00  0.00    +0.000 A 
ATOM      3  C   UNL     1       7.576   4.837  13.229  0.00  0.00    +0.000 A 
ATOM      4  C   UNL     1       6.932   5.006  14.455  0.00  0.00    +0.000 A 
ATOM      5  C   UNL     1       5.689   4.410  14.662  0.00  0.00    +0.000 A 
ATOM      6  C   UNL     1       5.086   3.668  13.639  0.00  0.00    +0.000 A 
ENDROOT
BRANCH   4   7
ATOM      7  O   UNL     1       7.629   5.731  15.383  0.00  0.00    +0.000 OA
ATOM      8  C   UNL     1       7.049   5.799  16.680  0.00  0.00    +0.000 C 
ENDBRANCH   4   7
BRANCH   1   9
ATOM      9  C   UNL     1       5.072   2.708  11.296  0.00  0.00    +0.000 C 
BRANCH   9  11
ATOM     10  C   UNL     1       3.263   3.904  10.017  0.00  0.00    +0.000 C 
ATOM     11  C   UNL     1       3.650   3.120  11.033  0.00  0.00    +0.000 C 
ENDBRANCH   9  11
ENDBRANCH   1   9
TORSDOF 3
ENDMDL
MODEL 3
REMARK VINA RESULT:      -5.2      4.750      6.639
REMARK  Name = 
REMARK  4 active torsions:
REMARK  status: ('A' for Active; 'I' for Inactive)
REMARK    1  A    between atoms: C_2  and  C_3
REMARK    2  A    between atoms: C_3  and  C_4
REMARK    3  A    between atoms: C_7  and  O_8
REMARK    4  A    between atoms: O_8  and  C_9
REMARK                            x       y       z     vdW  Elec       q    Type
REMARK                         _______ _______ _______ _____ _____    ______ ____
ROOT
ATOM      1  C   UNL     1       2.225   3.958  18.158  0.00  0.00    +0.000 A 
ATOM      2  C   UNL     1       3.166   3.158  17.498  0.00  0.00    +0.000 A 
ATOM      3  C   UNL     1       4.303   3.734  16.925  0.00  0.00    +0.000 A 
ATOM      4  C   UNL     1       4.514   5.111  16.993  0.00  0.00    +0.000 A 
ATOM      5  C   UNL     1       3.592   5.912  17.666  0.00  0.00    +0.000 A 
ATOM      6  C   UNL     1       2.454   5.338  18.246  0.00  0.00    +0.000 A 
ENDROOT
BRANCH   4   7
ATOM      7  O   UNL     1       5.670   5.552  16.409  0.00  0.00    +0.000 OA
ATOM      8  C   UNL     1       6.664   4.562  16.176  0.00  0.00    +0.000 C 
ENDBRANCH   4   7
BRANCH   1   9
ATOM      9  C   UNL     1       1.003   3.336  18.794  0.00  0.00    +0.000 C 
BRANCH   9  11
ATOM     10  C   UNL     1       1.482   2.975  21.239  0.00  0.00    +0.000 C 
ATOM     11  C   UNL     1       0.883   3.663  20.256  0.00  0.00    +0.000 C 
ENDBRANCH   9  11
ENDBRANCH   1   9
TORSDOF 3
ENDMDL
MODEL 4
REMARK VINA RESULT:      -5.1      4.467      6.374
REMARK  Name = 
REMARK  4 active torsions:
REMARK  status: ('A' for Active; 'I' for Inactive)
REMARK    1  A    between atoms: C_2  and  C_3
REMARK    2  A    between atoms: C_3  and  C_4
REMARK    3  A    between atoms: C_7  and  O_8
REMARK    4  A    between atoms: O_8  and  C_9
REMARK                            x       y       z     vdW  Elec       q    Type
REMARK                         _______ _______ _______ _____ _____    ______ ____
ROOT
ATOM      1  C   UNL     1       2.537   4.365  17.958  0.00  0.00    +0.000 A 
ATOM      2  C   UNL     1       2.674   5.745  18.152  0.00  0.00    +0.000 A 
ATOM      3  C   UNL     1       3.760   6.431  17.602  0.00  0.00    +0.000 A 
ATOM      4  C   UNL     1       4.727   5.753  16.860  0.00  0.00    +0.000 A 
ATOM      5  C   UNL     1       4.588   4.382  16.645  0.00  0.00    +0.000 A 
ATOM      6  C   UNL     1       3.498   3.693  17.190  0.00  0.00    +0.000 A 
ENDROOT
BRANCH   4   7
ATOM      7  O   UNL     1       5.731   6.536  16.360  0.00  0.00    +0.000 OA
ATOM      8  C   UNL     1       6.664   7.032  17.313  0.00  0.00    +0.000 C 
ENDBRANCH   4   7
BRANCH   1   9
ATOM      9  C   UNL     1       1.355   3.623  18.538  0.00  0.00    +0.000 C 
BRANCH   9  11
ATOM     10  C   UNL     1       1.422   3.225  21.022  0.00  0.00    +0.000 C 
ATOM     11  C   UNL     1       1.091   3.989  19.971  0.00  0.00    +0.000 C 
ENDBRANCH   9  11
ENDBRANCH   1   9
TORSDOF 3
ENDMDL
MODEL 5
REMARK VINA RESULT:      -5.1      4.724      7.039
REMARK  Name = 
REMARK  4 active torsions:
REMARK  status: ('A' for Active; 'I' for Inactive)
REMARK    1  A    between atoms: C_2  and  C_3
REMARK    2  A    between atoms: C_3  and  C_4
REMARK    3  A    between atoms: C_7  and  O_8
REMARK    4  A    between atoms: O_8  and  C_9
REMARK                            x       y       z     vdW  Elec       q    Type
REMARK                         _______ _______ _______ _____ _____    ______ ____
ROOT
ATOM      1  C   UNL     1       2.837   4.639  19.186  0.00  0.00    +0.000 A 
ATOM      2  C   UNL     1       4.069   5.182  19.575  0.00  0.00    +0.000 A 
ATOM      3  C   UNL     1       5.195   5.029  18.763  0.00  0.00    +0.000 A 
ATOM      4  C   UNL     1       5.116   4.328  17.560  0.00  0.00    +0.000 A 
ATOM      5  C   UNL     1       3.889   3.800  17.156  0.00  0.00    +0.000 A 
ATOM      6  C   UNL     1       2.756   3.957  17.964  0.00  0.00    +0.000 A 
ENDROOT
BRANCH   4   7
ATOM      7  O   UNL     1       6.281   4.260  16.848  0.00  0.00    +0.000 OA
ATOM      8  C   UNL     1       7.459   4.645  17.547  0.00  0.00    +0.000 C 
ENDBRANCH   4   7
BRANCH   1   9
ATOM      9  C   UNL     1       1.613   4.818  20.053  0.00  0.00    +0.000 C 
BRANCH   9  11
ATOM     10  C   UNL     1       1.835   2.814  21.561  0.00  0.00    +0.000 C 
ATOM     11  C   UNL     1       1.142   3.526  20.661  0.00  0.00    +0.000 C 
ENDBRANCH   9  11
ENDBRANCH   1   9
TORSDOF 3
ENDMDL
MODEL 6
REMARK VINA RESULT:      -5.1      5.173      7.179
REMARK  Name = 
REMARK  4 active torsions:
REMARK  status: ('A' for Active; 'I' for Inactive)
REMARK    1  A    between atoms: C_2  and  C_3
REMARK    2  A    between atoms: C_3  and  C_4
REMARK    3  A    between atoms: C_7  and  O_8
REMARK    4  A    between atoms: O_8  and  C_9
REMARK                            x       y       z     vdW  Elec       q    Type
REMARK                         _______ _______ _______ _____ _____    ______ ____
ROOT
ATOM      1  C   UNL     1       1.928   3.725  18.788  0.00  0.00    +0.000 A 
ATOM      2  C   UNL     1       2.713   2.987  17.894  0.00  0.00    +0.000 A 
ATOM      3  C   UNL     1       3.688   3.622  17.121  0.00  0.00    +0.000 A 
ATOM      4  C   UNL     1       3.890   4.998  17.221  0.00  0.00    +0.000 A 
ATOM      5  C   UNL     1       3.126   5.738  18.123  0.00  0.00    +0.000 A 
ATOM      6  C   UNL     1       2.152   5.104  18.904  0.00  0.00    +0.000 A 
ENDROOT
BRANCH   4   7
ATOM      7  O   UNL     1       4.884   5.499  16.426  0.00  0.00    +0.000 OA
ATOM      8  C   UNL     1       5.482   6.712  16.870  0.00  0.00    +0.000 C 
ENDBRANCH   4   7
BRANCH   1   9
ATOM      9  C   UNL     1       0.884   3.039  19.638  0.00  0.00    +0.000 C 
BRANCH   9  11
ATOM     10  C   UNL     1       2.399   2.684  21.616  0.00  0.00    +0.000 C 
ATOM     11  C   UNL     1       1.221   3.066  21.102  0.00  0.00    +0.000 C 
ENDBRANCH   9  11
ENDBRANCH   1   9
TORSDOF 3
ENDMDL
MODEL 7
REMARK VINA RESULT:      -5.0      4.577      6.741
REMARK  Name = 
REMARK  4 active torsions:
REMARK  status: ('A' for Active; 'I' for Inactive)
REMARK    1  A    between atoms: C_2  and  C_3
REMARK    2  A    between atoms: C_3  and  C_4
REMARK    3  A    between atoms: C_7  and  O_8
REMARK    4  A    between atoms: O_8  and  C_9
REMARK                            x       y       z     vdW  Elec       q    Type
REMARK                         _______ _______ _______ _____ _____    ______ ____
ROOT
ATOM      1  C   UNL     1       2.894   4.204  18.613  0.00  0.00    +0.000 A 
ATOM      2  C   UNL     1       3.354   3.746  17.371  0.00  0.00    +0.000 A 
ATOM      3  C   UNL     1       4.690   3.922  17.005  0.00  0.00    +0.000 A 
ATOM      4  C   UNL     1       5.585   4.562  17.862  0.00  0.00    +0.000 A 
ATOM      5  C   UNL     1       5.141   5.003  19.108  0.00  0.00    +0.000 A 
ATOM      6  C   UNL     1       3.803   4.823  19.481  0.00  0.00    +0.000 A 
ENDROOT
BRANCH   4   7
ATOM      7  O   UNL     1       6.868   4.659  17.398  0.00  0.00    +0.000 OA
ATOM      8  C   UNL     1       7.028   4.548  15.988  0.00  0.00    +0.000 C 
ENDBRANCH   4   7
BRANCH   1   9
ATOM      9  C   UNL     1       1.454   4.000  19.019  0.00  0.00    +0.000 C 
BRANCH   9  11
ATOM     10  C   UNL     1       1.315   2.845  21.251  0.00  0.00    +0.000 C 
ATOM     11  C   UNL     1       1.273   3.962  20.510  0.00  0.00    +0.000 C 
ENDBRANCH   9  11
ENDBRANCH   1   9
TORSDOF 3
ENDMDL
MODEL 8
REMARK VINA RESULT:      -5.0      4.138      5.677
REMARK  Name = 
REMARK  4 active torsions:
REMARK  status: ('A' for Active; 'I' for Inactive)
REMARK    1  A    between atoms: C_2  and  C_3
REMARK    2  A    between atoms: C_3  and  C_4
REMARK    3  A    between atoms: C_7  and  O_8
REMARK    4  A    between atoms: O_8  and  C_9
REMARK                            x       y       z     vdW  Elec       q    Type
REMARK                         _______ _______ _______ _____ _____    ______ ____
ROOT
ATOM      1  C   UNL     1       3.370   4.206  17.341  0.00  0.00    +0.000 A 
ATOM      2  C   UNL     1       4.534   3.925  16.613  0.00  0.00    +0.000 A 
ATOM      3  C   UNL     1       5.478   4.927  16.378  0.00  0.00    +0.000 A 
ATOM      4  C   UNL     1       5.276   6.222  16.854  0.00  0.00    +0.000 A 
ATOM      5  C   UNL     1       4.130   6.506  17.596  0.00  0.00    +0.000 A 
ATOM      6  C   UNL     1       3.184   5.503  17.840  0.00  0.00    +0.000 A 
ENDROOT
BRANCH   4   7
ATOM      7  O   UNL     1       6.279   7.108  16.573  0.00  0.00    +0.000 OA
ATOM      8  C   UNL     1       7.366   7.126  17.490  0.00  0.00    +0.000 C 
ENDBRANCH   4   7
BRANCH   1   9
ATOM      9  C   UNL     1       2.355   3.121  17.612  0.00  0.00    +0.000 C 
BRANCH   9  11
ATOM     10  C   UNL     1       1.006   3.109  19.737  0.00  0.00    +0.000 C 
ATOM     11  C   UNL     1       1.239   3.584  18.505  0.00  0.00    +0.000 C 
ENDBRANCH   9  11
ENDBRANCH   1   9
TORSDOF 3
ENDMDL
MODEL 9
REMARK VINA RESULT:      -5.0      5.006      6.708
REMARK  Name = 
REMARK  4 active torsions:
REMARK  status: ('A' for Active; 'I' for Inactive)
REMARK    1  A    between atoms: C_2  and  C_3
REMARK    2  A    between atoms: C_3  and  C_4
REMARK    3  A    between atoms: C_7  and  O_8
REMARK    4  A    between atoms: O_8  and  C_9
REMARK                            x       y       z     vdW  Elec       q    Type
REMARK                         _______ _______ _______ _____ _____    ______ ____
ROOT
ATOM      1  C   UNL     1       4.511   5.858  17.333  0.00  0.00    +0.000 A 
ATOM      2  C   UNL     1       3.319   6.281  17.933  0.00  0.00    +0.000 A 
ATOM      3  C   UNL     1       2.255   5.390  18.093  0.00  0.00    +0.000 A 
ATOM      4  C   UNL     1       2.358   4.072  17.651  0.00  0.00    +0.000 A 
ATOM      5  C   UNL     1       3.548   3.637  17.069  0.00  0.00    +0.000 A 
ATOM      6  C   UNL     1       4.620   4.525  16.913  0.00  0.00    +0.000 A 
ENDROOT
BRANCH   4   7
ATOM      7  O   UNL     1       1.256   3.293  17.878  0.00  0.00    +0.000 OA
ATOM      8  C   UNL     1       1.032   2.916  19.232  0.00  0.00    +0.000 C 
ENDBRANCH   4   7
BRANCH   1   9
ATOM      9  C   UNL     1       5.670   6.814  17.174  0.00  0.00    +0.000 C 
BRANCH   9  11
ATOM     10  C   UNL     1       7.784   6.504  18.505  0.00  0.00    +0.000 C 
ATOM     11  C   UNL     1       6.995   6.171  17.473  0.00  0.00    +0.000 C 
ENDBRANCH   9  11
ENDBRANCH   1   9
TORSDOF 3
ENDMDL
