MODEL 1
REMARK VINA RESULT:      -7.7      0.000      0.000
REMARK  Name = 
REMARK  8 active torsions:
REMARK  status: ('A' for Active; 'I' for Inactive)
REMARK    1  A    between atoms: C_1  and  O_2
REMARK    2  A    between atoms: O_2  and  C_3
REMARK    3  A    between atoms: C_6  and  C_7
REMARK    4  A    between atoms: C_7  and  C_8
REMARK    5  A    between atoms: C_14  and  C_15
REMARK    6  A    between atoms: C_15  and  C_16
REMARK    7  A    between atoms: C_19  and  O_20
REMARK    8  A    between atoms: O_20  and  C_21
REMARK                            x       y       z     vdW  Elec       q    Type
REMARK                         _______ _______ _______ _____ _____    ______ ____
ROOT
ATOM      1  C   UNL     1       2.770   4.569  19.140  0.00  0.00    +0.000 C 
ATOM      2  C   UNL     1       1.572   3.672  19.481  0.00  0.00    +0.000 C 
ATOM      3  O   UNL     1       0.556   3.998  20.070  0.00  0.00    +0.000 OA
ATOM      4  O   UNL     1       1.825   2.396  19.054  0.00  0.00    +0.000 OA
ATOM      5  C   UNL     1       3.183   2.252  18.618  0.00  0.00    +0.000 C 
ATOM      6  O   UNL     1       3.575   2.937  17.430  0.00  0.00    +0.000 OA
ATOM      7  C   UNL     1       3.829   3.606  18.672  0.00  0.00    +0.000 C 
ENDROOT
BRANCH   1   8
ATOM      8  C   UNL     1       2.402   5.606  18.068  0.00  0.00    +0.000 C 
BRANCH   8  12
ATOM      9  C   UNL     1       1.310   9.487  19.636  0.00  0.00    +0.000 A 
ATOM     10  C   UNL     1       1.460   8.396  20.494  0.00  0.00    +0.000 A 
ATOM     11  C   UNL     1       1.870   7.152  20.006  0.00  0.00    +0.000 A 
ATOM     12  C   UNL     1       2.111   6.975  18.639  0.00  0.00    +0.000 A 
ATOM     13  C   UNL     1       1.994   8.083  17.787  0.00  0.00    +0.000 A 
ATOM     14  C   UNL     1       1.592   9.329  18.281  0.00  0.00    +0.000 A 
BRANCH   9  16
ATOM     15  C   UNL     1       0.481  10.526  21.602  0.00  0.00    +0.000 C 
ATOM     16  O   UNL     1       0.856  10.630  20.235  0.00  0.00    +0.000 OA
ENDBRANCH   9  16
ENDBRANCH   8  12
ENDBRANCH   1   8
BRANCH   7  17
ATOM     17  C   UNL     1       5.238   3.688  19.161  0.00  0.00    +0.000 C 
BRANCH  17  18
ATOM     18  C   UNL     1       6.019   4.839  18.580  0.00  0.00    +0.000 A 
ATOM     19  C   UNL     1       5.639   5.429  17.368  0.00  0.00    +0.000 A 
ATOM     20  C   UNL     1       6.309   6.561  16.898  0.00  0.00    +0.000 A 
ATOM     21  C   UNL     1       7.352   7.127  17.631  0.00  0.00    +0.000 A 
ATOM     22  C   UNL     1       7.771   6.516  18.811  0.00  0.00    +0.000 A 
ATOM     23  C   UNL     1       7.109   5.375  19.279  0.00  0.00    +0.000 A 
BRANCH  21  24
ATOM     24  O   UNL     1       7.914   8.255  17.094  0.00  0.00    +0.000 OA
ATOM     25  C   UNL     1       8.368   9.212  18.048  0.00  0.00    +0.000 C 
ENDBRANCH  21  24
ENDBRANCH  17  18
ENDBRANCH   7  17
TORSDOF 6
ENDMDL
MODEL 2
REMARK VINA RESULT:      -7.7      1.306      1.676
REMARK  Name = 
REMARK  8 active torsions:
REMARK  status: ('A' for Active; 'I' for Inactive)
REMARK    1  A    between atoms: C_1  and  O_2
REMARK    2  A    between atoms: O_2  and  C_3
REMARK    3  A    between atoms: C_6  and  C_7
REMARK    4  A    between atoms: C_7  and  C_8
REMARK    5  A    between atoms: C_14  and  C_15
REMARK    6  A    between atoms: C_15  and  C_16
REMARK    7  A    between atoms: C_19  and  O_20
REMARK    8  A    between atoms: O_20  and  C_21
REMARK                            x       y       z     vdW  Elec       q    Type
REMARK                         _______ _______ _______ _____ _____    ______ ____
ROOT
ATOM      1  C   UNL     1       3.431   3.848  19.002  0.00  0.00    +0.000 C 
ATOM      2  C   UNL     1       3.786   2.643  19.884  0.00  0.00    +0.000 C 
ATOM      3  O   UNL     1       4.071   2.660  21.069  0.00  0.00    +0.000 OA
ATOM      4  O   UNL     1       3.778   1.505  19.123  0.00  0.00    +0.000 OA
ATOM      5  C   UNL     1       3.650   1.812  17.728  0.00  0.00    +0.000 C 
ATOM      6  O   UNL     1       2.409   2.355  17.280  0.00  0.00    +0.000 OA
ATOM      7  C   UNL     1       3.444   3.294  17.601  0.00  0.00    +0.000 C 
ENDROOT
BRANCH   1   8
ATOM      8  C   UNL     1       2.068   4.439  19.389  0.00  0.00    +0.000 C 
BRANCH   8  12
ATOM      9  C   UNL     1       1.764   8.753  19.256  0.00  0.00    +0.000 A 
ATOM     10  C   UNL     1       1.550   8.066  20.452  0.00  0.00    +0.000 A 
ATOM     11  C   UNL     1       1.705   6.679  20.520  0.00  0.00    +0.000 A 
ATOM     12  C   UNL     1       2.050   5.951  19.376  0.00  0.00    +0.000 A 
ATOM     13  C   UNL     1       2.298   6.649  18.185  0.00  0.00    +0.000 A 
ATOM     14  C   UNL     1       2.152   8.039  18.124  0.00  0.00    +0.000 A 
BRANCH   9  16
ATOM     15  C   UNL     1       0.346  10.510  19.985  0.00  0.00    +0.000 C 
ATOM     16  O   UNL     1       1.532  10.099  19.316  0.00  0.00    +0.000 OA
ENDBRANCH   9  16
ENDBRANCH   8  12
ENDBRANCH   1   8
BRANCH   7  17
ATOM     17  C   UNL     1       4.136   4.001  16.482  0.00  0.00    +0.000 C 
BRANCH  17  18
ATOM     18  C   UNL     1       5.279   4.875  16.928  0.00  0.00    +0.000 A 
ATOM     19  C   UNL     1       5.226   6.267  16.777  0.00  0.00    +0.000 A 
ATOM     20  C   UNL     1       6.246   7.069  17.292  0.00  0.00    +0.000 A 
ATOM     21  C   UNL     1       7.323   6.502  17.974  0.00  0.00    +0.000 A 
ATOM     22  C   UNL     1       7.412   5.116  18.083  0.00  0.00    +0.000 A 
ATOM     23  C   UNL     1       6.396   4.309  17.558  0.00  0.00    +0.000 A 
BRANCH  21  24
ATOM     24  O   UNL     1       8.247   7.384  18.466  0.00  0.00    +0.000 OA
ATOM     25  C   UNL     1       8.162   8.703  17.932  0.00  0.00    +0.000 C 
ENDBRANCH  21  24
ENDBRANCH  17  18
ENDBRANCH   7  17
TORSDOF 6
ENDMDL
MODEL 3
REMARK VINA RESULT:      -7.6      1.208      5.238
REMARK  Name = 
REMARK  8 active torsions:
REMARK  status: ('A' for Active; 'I' for Inactive)
REMARK    1  A    between atoms: C_1  and  O_2
REMARK    2  A    between atoms: O_2  and  C_3
REMARK    3  A    between atoms: C_6  and  C_7
REMARK    4  A    between atoms: C_7  and  C_8
REMARK    5  A    between atoms: C_14  and  C_15
REMARK    6  A    between atoms: C_15  and  C_16
REMARK    7  A    between atoms: C_19  and  O_20
REMARK    8  A    between atoms: O_20  and  C_21
REMARK                            x       y       z     vdW  Elec       q    Type
REMARK                         _______ _______ _______ _____ _____    ______ ____
ROOT
ATOM      1  C   UNL     1       2.975   3.937  18.858  0.00  0.00    +0.000 C 
ATOM      2  C   UNL     1       2.016   3.059  18.044  0.00  0.00    +0.000 C 
ATOM      3  O   UNL     1       1.986   2.932  16.832  0.00  0.00    +0.000 OA
ATOM      4  O   UNL     1       1.134   2.442  18.892  0.00  0.00    +0.000 OA
ATOM      5  C   UNL     1       1.247   2.959  20.225  0.00  0.00    +0.000 C 
ATOM      6  O   UNL     1       2.443   2.677  20.947  0.00  0.00    +0.000 OA
ATOM      7  C   UNL     1       2.394   3.927  20.247  0.00  0.00    +0.000 C 
ENDROOT
BRANCH   1   8
ATOM      8  C   UNL     1       4.407   3.385  18.815  0.00  0.00    +0.000 C 
BRANCH   8  12
ATOM      9  C   UNL     1       7.072   6.370  17.170  0.00  0.00    +0.000 A 
ATOM     10  C   UNL     1       7.099   6.074  18.534  0.00  0.00    +0.000 A 
ATOM     11  C   UNL     1       6.285   5.070  19.065  0.00  0.00    +0.000 A 
ATOM     12  C   UNL     1       5.406   4.363  18.238  0.00  0.00    +0.000 A 
ATOM     13  C   UNL     1       5.408   4.639  16.863  0.00  0.00    +0.000 A 
ATOM     14  C   UNL     1       6.231   5.638  16.333  0.00  0.00    +0.000 A 
BRANCH   9  16
ATOM     15  C   UNL     1       7.948   8.516  17.676  0.00  0.00    +0.000 C 
ATOM     16  O   UNL     1       7.880   7.406  16.790  0.00  0.00    +0.000 OA
ENDBRANCH   9  16
ENDBRANCH   8  12
ENDBRANCH   1   8
BRANCH   7  17
ATOM     17  C   UNL     1       2.233   5.182  21.042  0.00  0.00    +0.000 C 
BRANCH  17  18
ATOM     18  C   UNL     1       2.044   6.416  20.199  0.00  0.00    +0.000 A 
ATOM     19  C   UNL     1       1.399   7.549  20.711  0.00  0.00    +0.000 A 
ATOM     20  C   UNL     1       1.327   8.720  19.953  0.00  0.00    +0.000 A 
ATOM     21  C   UNL     1       1.906   8.785  18.686  0.00  0.00    +0.000 A 
ATOM     22  C   UNL     1       2.503   7.647  18.146  0.00  0.00    +0.000 A 
ATOM     23  C   UNL     1       2.567   6.469  18.899  0.00  0.00    +0.000 A 
BRANCH  21  24
ATOM     24  O   UNL     1       1.806   9.991  18.047  0.00  0.00    +0.000 OA
ATOM     25  C   UNL     1       1.087  10.993  18.763  0.00  0.00    +0.000 C 
ENDBRANCH  21  24
ENDBRANCH  17  18
ENDBRANCH   7  17
TORSDOF 6
ENDMDL
MODEL 4
REMARK VINA RESULT:      -7.6      2.069      5.081
REMARK  Name = 
REMARK  8 active torsions:
REMARK  status: ('A' for Active; 'I' for Inactive)
REMARK    1  A    between atoms: C_1  and  O_2
REMARK    2  A    between atoms: O_2  and  C_3
REMARK    3  A    between atoms: C_6  and  C_7
REMARK    4  A    between atoms: C_7  and  C_8
REMARK    5  A    between atoms: C_14  and  C_15
REMARK    6  A    between atoms: C_15  and  C_16
REMARK    7  A    between atoms: C_19  and  O_20
REMARK    8  A    between atoms: O_20  and  C_21
REMARK                            x       y       z     vdW  Elec       q    Type
REMARK                         _______ _______ _______ _____ _____    ______ ____
ROOT
ATOM      1  C   UNL     1       4.725   5.425  16.500  0.00  0.00    +0.000 C 
ATOM      2  C   UNL     1       5.353   6.204  15.337  0.00  0.00    +0.000 C 
ATOM      3  O   UNL     1       4.976   7.269  14.878  0.00  0.00    +0.000 OA
ATOM      4  O   UNL     1       6.412   5.496  14.834  0.00  0.00    +0.000 OA
ATOM      5  C   UNL     1       6.474   4.180  15.403  0.00  0.00    +0.000 C 
ATOM      6  O   UNL     1       6.803   4.070  16.786  0.00  0.00    +0.000 OA
ATOM      7  C   UNL     1       5.409   4.084  16.456  0.00  0.00    +0.000 C 
ENDROOT
BRANCH   1   8
ATOM      8  C   UNL     1       4.940   6.151  17.836  0.00  0.00    +0.000 C 
BRANCH   8  12
ATOM      9  C   UNL     1       1.542   8.291  19.446  0.00  0.00    +0.000 A 
ATOM     10  C   UNL     1       2.112   8.681  18.233  0.00  0.00    +0.000 A 
ATOM     11  C   UNL     1       3.171   7.961  17.674  0.00  0.00    +0.000 A 
ATOM     12  C   UNL     1       3.697   6.849  18.341  0.00  0.00    +0.000 A 
ATOM     13  C   UNL     1       3.099   6.440  19.542  0.00  0.00    +0.000 A 
ATOM     14  C   UNL     1       2.032   7.159  20.093  0.00  0.00    +0.000 A 
BRANCH   9  16
ATOM     15  C   UNL     1       0.636   9.521  21.263  0.00  0.00    +0.000 C 
ATOM     16  O   UNL     1       0.547   9.111  19.904  0.00  0.00    +0.000 OA
ENDBRANCH   9  16
ENDBRANCH   8  12
ENDBRANCH   1   8
BRANCH   7  17
ATOM     17  C   UNL     1       4.641   2.806  16.556  0.00  0.00    +0.000 C 
BRANCH  17  18
ATOM     18  C   UNL     1       3.589   2.811  17.635  0.00  0.00    +0.000 A 
ATOM     19  C   UNL     1       3.901   2.441  18.949  0.00  0.00    +0.000 A 
ATOM     20  C   UNL     1       2.941   2.553  19.957  0.00  0.00    +0.000 A 
ATOM     21  C   UNL     1       1.667   3.046  19.676  0.00  0.00    +0.000 A 
ATOM     22  C   UNL     1       1.330   3.366  18.362  0.00  0.00    +0.000 A 
ATOM     23  C   UNL     1       2.287   3.245  17.348  0.00  0.00    +0.000 A 
BRANCH  21  24
ATOM     24  O   UNL     1       0.817   3.146  20.745  0.00  0.00    +0.000 OA
ATOM     25  C   UNL     1       1.371   2.732  21.992  0.00  0.00    +0.000 C 
ENDBRANCH  21  24
ENDBRANCH  17  18
ENDBRANCH   7  17
TORSDOF 6
ENDMDL
MODEL 5
REMARK VINA RESULT:      -7.4      1.139      1.522
REMARK  Name = 
REMARK  8 active torsions:
REMARK  status: ('A' for Active; 'I' for Inactive)
REMARK    1  A    between atoms: C_1  and  O_2
REMARK    2  A    between atoms: O_2  and  C_3
REMARK    3  A    between atoms: C_6  and  C_7
REMARK    4  A    between atoms: C_7  and  C_8
REMARK    5  A    between atoms: C_14  and  C_15
REMARK    6  A    between atoms: C_15  and  C_16
REMARK    7  A    between atoms: C_19  and  O_20
REMARK    8  A    between atoms: O_20  and  C_21
REMARK                            x       y       z     vdW  Elec       q    Type
REMARK                         _______ _______ _______ _____ _____    ______ ____
ROOT
ATOM      1  C   UNL     1       3.251   4.061  18.701  0.00  0.00    +0.000 C 
ATOM      2  C   UNL     1       3.162   3.050  19.852  0.00  0.00    +0.000 C 
ATOM      3  O   UNL     1       3.036   3.298  21.039  0.00  0.00    +0.000 OA
ATOM      4  O   UNL     1       3.288   1.781  19.353  0.00  0.00    +0.000 OA
ATOM      5  C   UNL     1       3.665   1.802  17.969  0.00  0.00    +0.000 C 
ATOM      6  O   UNL     1       2.709   2.288  17.029  0.00  0.00    +0.000 OA
ATOM      7  C   UNL     1       3.671   3.233  17.516  0.00  0.00    +0.000 C 
ENDROOT
BRANCH   1   8
ATOM      8  C   UNL     1       1.908   4.771  18.478  0.00  0.00    +0.000 C 
BRANCH   8  12
ATOM      9  C   UNL     1       1.569   8.818  19.969  0.00  0.00    +0.000 A 
ATOM     10  C   UNL     1       1.403   7.731  20.830  0.00  0.00    +0.000 A 
ATOM     11  C   UNL     1       1.569   6.422  20.372  0.00  0.00    +0.000 A 
ATOM     12  C   UNL     1       1.878   6.178  19.030  0.00  0.00    +0.000 A 
ATOM     13  C   UNL     1       2.079   7.273  18.176  0.00  0.00    +0.000 A 
ATOM     14  C   UNL     1       1.921   8.583  18.641  0.00  0.00    +0.000 A 
BRANCH   9  16
ATOM     15  C   UNL     1       0.685  10.040  21.801  0.00  0.00    +0.000 C 
ATOM     16  O   UNL     1       1.329  10.040  20.533  0.00  0.00    +0.000 OA
ENDBRANCH   9  16
ENDBRANCH   8  12
ENDBRANCH   1   8
BRANCH   7  17
ATOM     17  C   UNL     1       4.767   3.669  16.599  0.00  0.00    +0.000 C 
BRANCH  17  18
ATOM     18  C   UNL     1       5.628   4.771  17.161  0.00  0.00    +0.000 A 
ATOM     19  C   UNL     1       6.726   4.482  17.981  0.00  0.00    +0.000 A 
ATOM     20  C   UNL     1       7.575   5.506  18.406  0.00  0.00    +0.000 A 
ATOM     21  C   UNL     1       7.352   6.826  18.011  0.00  0.00    +0.000 A 
ATOM     22  C   UNL     1       6.232   7.131  17.240  0.00  0.00    +0.000 A 
ATOM     23  C   UNL     1       5.374   6.107  16.822  0.00  0.00    +0.000 A 
BRANCH  21  24
ATOM     24  O   UNL     1       8.266   7.743  18.456  0.00  0.00    +0.000 OA
ATOM     25  C   UNL     1       8.186   9.022  17.831  0.00  0.00    +0.000 C 
ENDBRANCH  21  24
ENDBRANCH  17  18
ENDBRANCH   7  17
TORSDOF 6
ENDMDL
MODEL 6
REMARK VINA RESULT:      -7.3      3.419      7.704
REMARK  Name = 
REMARK  8 active torsions:
REMARK  status: ('A' for Active; 'I' for Inactive)
REMARK    1  A    between atoms: C_1  and  O_2
REMARK    2  A    between atoms: O_2  and  C_3
REMARK    3  A    between atoms: C_6  and  C_7
REMARK    4  A    between atoms: C_7  and  C_8
REMARK    5  A    between atoms: C_14  and  C_15
REMARK    6  A    between atoms: C_15  and  C_16
REMARK    7  A    between atoms: C_19  and  O_20
REMARK    8  A    between atoms: O_20  and  C_21
REMARK                            x       y       z     vdW  Elec       q    Type
REMARK                         _______ _______ _______ _____ _____    ______ ____
ROOT
ATOM      1  C   UNL     1       6.675   5.398  16.558  0.00  0.00    +0.000 C 
ATOM      2  C   UNL     1       7.699   5.021  17.637  0.00  0.00    +0.000 C 
ATOM      3  O   UNL     1       8.340   3.987  17.711  0.00  0.00    +0.000 OA
ATOM      4  O   UNL     1       7.771   6.025  18.566  0.00  0.00    +0.000 OA
ATOM      5  C   UNL     1       6.740   7.000  18.359  0.00  0.00    +0.000 C 
ATOM      6  O   UNL     1       6.819   7.810  17.188  0.00  0.00    +0.000 OA
ATOM      7  C   UNL     1       6.006   6.633  17.102  0.00  0.00    +0.000 C 
ENDROOT
BRANCH   1   8
ATOM      8  C   UNL     1       7.358   5.646  15.205  0.00  0.00    +0.000 C 
BRANCH   8  12
ATOM      9  C   UNL     1       5.840   3.072  12.077  0.00  0.00    +0.000 A 
ATOM     10  C   UNL     1       5.105   3.271  13.247  0.00  0.00    +0.000 A 
ATOM     11  C   UNL     1       5.557   4.147  14.237  0.00  0.00    +0.000 A 
ATOM     12  C   UNL     1       6.774   4.818  14.083  0.00  0.00    +0.000 A 
ATOM     13  C   UNL     1       7.492   4.643  12.891  0.00  0.00    +0.000 A 
ATOM     14  C   UNL     1       7.031   3.773  11.897  0.00  0.00    +0.000 A 
BRANCH   9  16
ATOM     15  C   UNL     1       6.025   0.933  11.065  0.00  0.00    +0.000 C 
ATOM     16  O   UNL     1       5.309   2.153  11.214  0.00  0.00    +0.000 OA
ENDBRANCH   9  16
ENDBRANCH   8  12
ENDBRANCH   1   8
BRANCH   7  17
ATOM     17  C   UNL     1       4.521   6.792  17.090  0.00  0.00    +0.000 C 
BRANCH  17  18
ATOM     18  C   UNL     1       3.788   5.738  17.879  0.00  0.00    +0.000 A 
ATOM     19  C   UNL     1       3.487   4.492  17.313  0.00  0.00    +0.000 A 
ATOM     20  C   UNL     1       2.903   3.490  18.091  0.00  0.00    +0.000 A 
ATOM     21  C   UNL     1       2.625   3.707  19.441  0.00  0.00    +0.000 A 
ATOM     22  C   UNL     1       2.872   4.960  19.999  0.00  0.00    +0.000 A 
ATOM     23  C   UNL     1       3.447   5.969  19.219  0.00  0.00    +0.000 A 
BRANCH  21  24
ATOM     24  O   UNL     1       2.086   2.645  20.116  0.00  0.00    +0.000 OA
ATOM     25  C   UNL     1       1.855   2.871  21.505  0.00  0.00    +0.000 C 
ENDBRANCH  21  24
ENDBRANCH  17  18
ENDBRANCH   7  17
TORSDOF 6
ENDMDL
MODEL 7
REMARK VINA RESULT:      -7.3      1.129      1.543
REMARK  Name = 
REMARK  8 active torsions:
REMARK  status: ('A' for Active; 'I' for Inactive)
REMARK    1  A    between atoms: C_1  and  O_2
REMARK    2  A    between atoms: O_2  and  C_3
REMARK    3  A    between atoms: C_6  and  C_7
REMARK    4  A    between atoms: C_7  and  C_8
REMARK    5  A    between atoms: C_14  and  C_15
REMARK    6  A    between atoms: C_15  and  C_16
REMARK    7  A    between atoms: C_19  and  O_20
REMARK    8  A    between atoms: O_20  and  C_21
REMARK                            x       y       z     vdW  Elec       q    Type
REMARK                         _______ _______ _______ _____ _____    ______ ____
ROOT
ATOM      1  C   UNL     1       3.322   4.677  18.693  0.00  0.00    +0.000 C 
ATOM      2  C   UNL     1       3.070   3.850  19.960  0.00  0.00    +0.000 C 
ATOM      3  O   UNL     1       2.827   4.273  21.077  0.00  0.00    +0.000 OA
ATOM      4  O   UNL     1       3.200   2.518  19.666  0.00  0.00    +0.000 OA
ATOM      5  C   UNL     1       3.723   2.326  18.345  0.00  0.00    +0.000 C 
ATOM      6  O   UNL     1       2.894   2.690  17.243  0.00  0.00    +0.000 OA
ATOM      7  C   UNL     1       3.834   3.673  17.694  0.00  0.00    +0.000 C 
ENDROOT
BRANCH   1   8
ATOM      8  C   UNL     1       2.039   5.377  18.220  0.00  0.00    +0.000 C 
BRANCH   8  12
ATOM      9  C   UNL     1       1.638   9.573  19.191  0.00  0.00    +0.000 A 
ATOM     10  C   UNL     1       1.474   8.601  20.179  0.00  0.00    +0.000 A 
ATOM     11  C   UNL     1       1.660   7.247  19.890  0.00  0.00    +0.000 A 
ATOM     12  C   UNL     1       1.987   6.842  18.592  0.00  0.00    +0.000 A 
ATOM     13  C   UNL     1       2.186   7.824  17.611  0.00  0.00    +0.000 A 
ATOM     14  C   UNL     1       2.008   9.180  17.907  0.00  0.00    +0.000 A 
BRANCH   9  16
ATOM     15  C   UNL     1       1.730  11.891  18.690  0.00  0.00    +0.000 C 
ATOM     16  O   UNL     1       1.378  10.854  19.596  0.00  0.00    +0.000 OA
ENDBRANCH   9  16
ENDBRANCH   8  12
ENDBRANCH   1   8
BRANCH   7  17
ATOM     17  C   UNL     1       5.038   3.945  16.853  0.00  0.00    +0.000 C 
BRANCH  17  18
ATOM     18  C   UNL     1       5.903   5.065  17.370  0.00  0.00    +0.000 A 
ATOM     19  C   UNL     1       6.825   4.848  18.402  0.00  0.00    +0.000 A 
ATOM     20  C   UNL     1       7.691   5.870  18.796  0.00  0.00    +0.000 A 
ATOM     21  C   UNL     1       7.662   7.113  18.163  0.00  0.00    +0.000 A 
ATOM     22  C   UNL     1       6.712   7.355  17.173  0.00  0.00    +0.000 A 
ATOM     23  C   UNL     1       5.836   6.336  16.783  0.00  0.00    +0.000 A 
BRANCH  21  24
ATOM     24  O   UNL     1       8.579   8.029  18.606  0.00  0.00    +0.000 OA
ATOM     25  C   UNL     1       8.371   9.360  18.139  0.00  0.00    +0.000 C 
ENDBRANCH  21  24
ENDBRANCH  17  18
ENDBRANCH   7  17
TORSDOF 6
ENDMDL
MODEL 8
REMARK VINA RESULT:      -7.3      1.472      5.230
REMARK  Name = 
REMARK  8 active torsions:
REMARK  status: ('A' for Active; 'I' for Inactive)
REMARK    1  A    between atoms: C_1  and  O_2
REMARK    2  A    between atoms: O_2  and  C_3
REMARK    3  A    between atoms: C_6  and  C_7
REMARK    4  A    between atoms: C_7  and  C_8
REMARK    5  A    between atoms: C_14  and  C_15
REMARK    6  A    between atoms: C_15  and  C_16
REMARK    7  A    between atoms: C_19  and  O_20
REMARK    8  A    between atoms: O_20  and  C_21
REMARK                            x       y       z     vdW  Elec       q    Type
REMARK                         _______ _______ _______ _____ _____    ______ ____
ROOT
ATOM      1  C   UNL     1       2.409   3.884  18.618  0.00  0.00    +0.000 C 
ATOM      2  C   UNL     1       1.136   3.046  18.792  0.00  0.00    +0.000 C 
ATOM      3  O   UNL     1       0.307   2.784  17.938  0.00  0.00    +0.000 OA
ATOM      4  O   UNL     1       1.029   2.648  20.098  0.00  0.00    +0.000 OA
ATOM      5  C   UNL     1       2.008   3.297  20.921  0.00  0.00    +0.000 C 
ATOM      6  O   UNL     1       3.377   2.952  20.722  0.00  0.00    +0.000 OA
ATOM      7  C   UNL     1       2.897   4.108  20.025  0.00  0.00    +0.000 C 
ENDROOT
BRANCH   1   8
ATOM      8  C   UNL     1       3.441   3.155  17.746  0.00  0.00    +0.000 C 
BRANCH   8  12
ATOM      9  C   UNL     1       6.661   5.857  16.722  0.00  0.00    +0.000 A 
ATOM     10  C   UNL     1       6.699   5.132  17.915  0.00  0.00    +0.000 A 
ATOM     11  C   UNL     1       5.695   4.213  18.227  0.00  0.00    +0.000 A 
ATOM     12  C   UNL     1       4.615   4.025  17.357  0.00  0.00    +0.000 A 
ATOM     13  C   UNL     1       4.599   4.729  16.144  0.00  0.00    +0.000 A 
ATOM     14  C   UNL     1       5.612   5.641  15.831  0.00  0.00    +0.000 A 
BRANCH   9  16
ATOM     15  C   UNL     1       7.724   7.834  17.492  0.00  0.00    +0.000 C 
ATOM     16  O   UNL     1       7.678   6.757  16.564  0.00  0.00    +0.000 OA
ENDBRANCH   9  16
ENDBRANCH   8  12
ENDBRANCH   1   8
BRANCH   7  17
ATOM     17  C   UNL     1       3.327   5.457  20.503  0.00  0.00    +0.000 C 
BRANCH  17  18
ATOM     18  C   UNL     1       2.669   6.600  19.773  0.00  0.00    +0.000 A 
ATOM     19  C   UNL     1       1.729   7.418  20.412  0.00  0.00    +0.000 A 
ATOM     20  C   UNL     1       1.209   8.536  19.755  0.00  0.00    +0.000 A 
ATOM     21  C   UNL     1       1.626   8.861  18.464  0.00  0.00    +0.000 A 
ATOM     22  C   UNL     1       2.520   8.023  17.801  0.00  0.00    +0.000 A 
ATOM     23  C   UNL     1       3.034   6.896  18.453  0.00  0.00    +0.000 A 
BRANCH  21  24
ATOM     24  O   UNL     1       1.078   9.997  17.930  0.00  0.00    +0.000 OA
ATOM     25  C   UNL     1       0.109  10.641  18.755  0.00  0.00    +0.000 C 
ENDBRANCH  21  24
ENDBRANCH  17  18
ENDBRANCH   7  17
TORSDOF 6
ENDMDL
MODEL 9
REMARK VINA RESULT:      -7.2      3.435      7.529
REMARK  Name = 
REMARK  8 active torsions:
REMARK  status: ('A' for Active; 'I' for Inactive)
REMARK    1  A    between atoms: C_1  and  O_2
REMARK    2  A    between atoms: O_2  and  C_3
REMARK    3  A    between atoms: C_6  and  C_7
REMARK    4  A    between atoms: C_7  and  C_8
REMARK    5  A    between atoms: C_14  and  C_15
REMARK    6  A    between atoms: C_15  and  C_16
REMARK    7  A    between atoms: C_19  and  O_20
REMARK    8  A    between atoms: O_20  and  C_21
REMARK                            x       y       z     vdW  Elec       q    Type
REMARK                         _______ _______ _______ _____ _____    ______ ____
ROOT
ATOM      1  C   UNL     1       6.717   5.207  16.506  0.00  0.00    +0.000 C 
ATOM      2  C   UNL     1       7.735   4.976  17.630  0.00  0.00    +0.000 C 
ATOM      3  O   UNL     1       8.360   3.954  17.856  0.00  0.00    +0.000 OA
ATOM      4  O   UNL     1       7.822   6.103  18.403  0.00  0.00    +0.000 OA
ATOM      5  C   UNL     1       6.806   7.053  18.054  0.00  0.00    +0.000 C 
ATOM      6  O   UNL     1       6.896   7.683  16.777  0.00  0.00    +0.000 OA
ATOM      7  C   UNL     1       6.066   6.517  16.862  0.00  0.00    +0.000 C 
ENDROOT
BRANCH   1   8
ATOM      8  C   UNL     1       7.403   5.245  15.133  0.00  0.00    +0.000 C 
BRANCH   8  12
ATOM      9  C   UNL     1       5.148   3.236  12.034  0.00  0.00    +0.000 A 
ATOM     10  C   UNL     1       6.457   3.660  11.794  0.00  0.00    +0.000 A 
ATOM     11  C   UNL     1       7.214   4.255  12.805  0.00  0.00    +0.000 A 
ATOM     12  C   UNL     1       6.659   4.463  14.073  0.00  0.00    +0.000 A 
ATOM     13  C   UNL     1       5.357   4.004  14.320  0.00  0.00    +0.000 A 
ATOM     14  C   UNL     1       4.606   3.399  13.307  0.00  0.00    +0.000 A 
BRANCH   9  16
ATOM     15  C   UNL     1       3.447   3.495  10.400  0.00  0.00    +0.000 C 
ATOM     16  O   UNL     1       4.504   2.715  10.946  0.00  0.00    +0.000 OA
ENDBRANCH   9  16
ENDBRANCH   8  12
ENDBRANCH   1   8
BRANCH   7  17
ATOM     17  C   UNL     1       4.583   6.696  16.824  0.00  0.00    +0.000 C 
BRANCH  17  18
ATOM     18  C   UNL     1       3.830   5.717  17.687  0.00  0.00    +0.000 A 
ATOM     19  C   UNL     1       3.511   4.436  17.216  0.00  0.00    +0.000 A 
ATOM     20  C   UNL     1       2.907   3.506  18.065  0.00  0.00    +0.000 A 
ATOM     21  C   UNL     1       2.625   3.832  19.392  0.00  0.00    +0.000 A 
ATOM     22  C   UNL     1       2.888   5.120  19.853  0.00  0.00    +0.000 A 
ATOM     23  C   UNL     1       3.484   6.057  19.002  0.00  0.00    +0.000 A 
BRANCH  21  24
ATOM     24  O   UNL     1       2.064   2.833  20.144  0.00  0.00    +0.000 OA
ATOM     25  C   UNL     1       2.153   3.022  21.554  0.00  0.00    +0.000 C 
ENDBRANCH  21  24
ENDBRANCH  17  18
ENDBRANCH   7  17
TORSDOF 6
ENDMDL
