MODEL 1
REMARK VINA RESULT:      -7.8      0.000      0.000
REMARK  Name = 
REMARK  5 active torsions:
REMARK  status: ('A' for Active; 'I' for Inactive)
REMARK    1  A    between atoms: C_1  and  N_2
REMARK    2  A    between atoms: N_2  and  C_3
REMARK    3  A    between atoms: N_2  and  C_4
REMARK    4  A    between atoms: C_10  and  O_11
REMARK    5  A    between atoms: C_16  and  O_17
REMARK                            x       y       z     vdW  Elec       q    Type
REMARK                         _______ _______ _______ _____ _____    ______ ____
ROOT
ATOM      1  C   UNL     1       2.770   7.464  18.305  0.00  0.00    +0.000 C 
ATOM      2  C   UNL     1       3.102   6.158  18.127  0.00  0.00    +0.000 C 
ATOM      3  C   UNL     1       2.401   5.051  18.868  0.00  0.00    +0.000 A 
ATOM      4  C   UNL     1       1.515   5.278  19.936  0.00  0.00    +0.000 A 
ATOM      5  C   UNL     1       0.771   4.258  20.529  0.00  0.00    +0.000 A 
ATOM      6  C   UNL     1       0.962   2.949  20.125  0.00  0.00    +0.000 A 
ATOM      7  C   UNL     1       1.925   2.670  19.158  0.00  0.00    +0.000 A 
ATOM      8  C   UNL     1       2.650   3.707  18.531  0.00  0.00    +0.000 A 
ATOM      9  C   UNL     1       3.734   3.386  17.565  0.00  0.00    +0.000 C 
ATOM     10  O   UNL     1       4.045   2.226  17.297  0.00  0.00    +0.000 OA
ATOM     11  C   UNL     1       4.516   4.461  16.911  0.00  0.00    +0.000 A 
ATOM     12  C   UNL     1       5.563   4.101  16.034  0.00  0.00    +0.000 A 
ATOM     13  C   UNL     1       6.308   5.064  15.368  0.00  0.00    +0.000 A 
ATOM     14  C   UNL     1       6.006   6.401  15.565  0.00  0.00    +0.000 A 
ATOM     15  C   UNL     1       4.971   6.767  16.447  0.00  0.00    +0.000 A 
ATOM     16  C   UNL     1       4.213   5.813  17.154  0.00  0.00    +0.000 A 
ENDROOT
BRANCH   1  18
ATOM     17  C   UNL     1       1.062   9.266  18.458  0.00  0.00    +0.000 C 
ATOM     18  N   UNL     1       1.773   8.118  19.046  0.00  0.00    +0.000 N 
ATOM     19  C   UNL     1       1.905   8.182  20.508  0.00  0.00    +0.000 C 
ENDBRANCH   1  18
BRANCH   7  20
ATOM     20  O   UNL     1       2.137   1.356  18.841  0.00  0.00    +0.000 OA
ATOM     21  H   UNL     1       1.368   0.823  19.099  0.00  0.00    +0.000 HD
ENDBRANCH   7  20
BRANCH  12  22
ATOM     22  O   UNL     1       5.930   2.803  15.782  0.00  0.00    +0.000 OA
ATOM     23  H   UNL     1       6.326   2.444  16.611  0.00  0.00    +0.000 HD
ENDBRANCH  12  22
TORSDOF 3
ENDMDL
MODEL 2
REMARK VINA RESULT:      -7.6      2.746      4.931
REMARK  Name = 
REMARK  5 active torsions:
REMARK  status: ('A' for Active; 'I' for Inactive)
REMARK    1  A    between atoms: C_1  and  N_2
REMARK    2  A    between atoms: N_2  and  C_3
REMARK    3  A    between atoms: N_2  and  C_4
REMARK    4  A    between atoms: C_10  and  O_11
REMARK    5  A    between atoms: C_16  and  O_17
REMARK                            x       y       z     vdW  Elec       q    Type
REMARK                         _______ _______ _______ _____ _____    ______ ____
ROOT
ATOM      1  C   UNL     1       4.639   5.787  16.823  0.00  0.00    +0.000 C 
ATOM      2  C   UNL     1       3.815   5.767  17.904  0.00  0.00    +0.000 C 
ATOM      3  C   UNL     1       3.654   4.538  18.758  0.00  0.00    +0.000 A 
ATOM      4  C   UNL     1       4.163   3.276  18.399  0.00  0.00    +0.000 A 
ATOM      5  C   UNL     1       4.124   2.176  19.255  0.00  0.00    +0.000 A 
ATOM      6  C   UNL     1       3.487   2.282  20.477  0.00  0.00    +0.000 A 
ATOM      7  C   UNL     1       2.859   3.479  20.814  0.00  0.00    +0.000 A 
ATOM      8  C   UNL     1       2.931   4.604  19.964  0.00  0.00    +0.000 A 
ATOM      9  C   UNL     1       2.184   5.845  20.298  0.00  0.00    +0.000 C 
ATOM     10  O   UNL     1       1.472   5.927  21.299  0.00  0.00    +0.000 OA
ATOM     11  C   UNL     1       2.234   7.029  19.408  0.00  0.00    +0.000 A 
ATOM     12  C   UNL     1       1.470   8.167  19.750  0.00  0.00    +0.000 A 
ATOM     13  C   UNL     1       1.504   9.317  18.973  0.00  0.00    +0.000 A 
ATOM     14  C   UNL     1       2.311   9.343  17.848  0.00  0.00    +0.000 A 
ATOM     15  C   UNL     1       3.066   8.208  17.496  0.00  0.00    +0.000 A 
ATOM     16  C   UNL     1       3.035   7.020  18.252  0.00  0.00    +0.000 A 
ENDROOT
BRANCH   1  18
ATOM     17  C   UNL     1       6.932   4.830  16.744  0.00  0.00    +0.000 C 
ATOM     18  N   UNL     1       5.538   4.861  16.272  0.00  0.00    +0.000 N 
ATOM     19  C   UNL     1       5.373   4.463  14.868  0.00  0.00    +0.000 C 
ENDBRANCH   1  18
BRANCH   7  20
ATOM     20  O   UNL     1       2.175   3.519  21.998  0.00  0.00    +0.000 OA
ATOM     21  H   UNL     1       2.482   2.810  22.585  0.00  0.00    +0.000 HD
ENDBRANCH   7  20
BRANCH  12  22
ATOM     22  O   UNL     1       0.645   8.228  20.844  0.00  0.00    +0.000 OA
ATOM     23  H   UNL     1       0.915   9.015  21.373  0.00  0.00    +0.000 HD
ENDBRANCH  12  22
TORSDOF 3
ENDMDL
MODEL 3
REMARK VINA RESULT:      -7.0      2.978      5.883
REMARK  Name = 
REMARK  5 active torsions:
REMARK  status: ('A' for Active; 'I' for Inactive)
REMARK    1  A    between atoms: C_1  and  N_2
REMARK    2  A    between atoms: N_2  and  C_3
REMARK    3  A    between atoms: N_2  and  C_4
REMARK    4  A    between atoms: C_10  and  O_11
REMARK    5  A    between atoms: C_16  and  O_17
REMARK                            x       y       z     vdW  Elec       q    Type
REMARK                         _______ _______ _______ _____ _____    ______ ____
ROOT
ATOM      1  C   UNL     1       3.465   3.654  19.742  0.00  0.00    +0.000 C 
ATOM      2  C   UNL     1       3.543   4.812  19.034  0.00  0.00    +0.000 C 
ATOM      3  C   UNL     1       4.425   4.946  17.822  0.00  0.00    +0.000 A 
ATOM      4  C   UNL     1       5.380   3.981  17.452  0.00  0.00    +0.000 A 
ATOM      5  C   UNL     1       6.098   4.050  16.259  0.00  0.00    +0.000 A 
ATOM      6  C   UNL     1       5.946   5.147  15.431  0.00  0.00    +0.000 A 
ATOM      7  C   UNL     1       5.104   6.184  15.826  0.00  0.00    +0.000 A 
ATOM      8  C   UNL     1       4.348   6.097  17.015  0.00  0.00    +0.000 A 
ATOM      9  C   UNL     1       3.523   7.249  17.465  0.00  0.00    +0.000 C 
ATOM     10  O   UNL     1       3.485   8.307  16.839  0.00  0.00    +0.000 OA
ATOM     11  C   UNL     1       2.737   7.181  18.720  0.00  0.00    +0.000 A 
ATOM     12  C   UNL     1       2.004   8.319  19.124  0.00  0.00    +0.000 A 
ATOM     13  C   UNL     1       1.224   8.302  20.272  0.00  0.00    +0.000 A 
ATOM     14  C   UNL     1       1.161   7.142  21.025  0.00  0.00    +0.000 A 
ATOM     15  C   UNL     1       1.899   6.007  20.634  0.00  0.00    +0.000 A 
ATOM     16  C   UNL     1       2.716   6.001  19.487  0.00  0.00    +0.000 A 
ENDROOT
BRANCH   1  18
ATOM     17  C   UNL     1       3.345   1.405  18.687  0.00  0.00    +0.000 C 
ATOM     18  N   UNL     1       4.016   2.375  19.570  0.00  0.00    +0.000 N 
ATOM     19  C   UNL     1       4.744   1.760  20.688  0.00  0.00    +0.000 C 
ENDBRANCH   1  18
BRANCH   7  20
ATOM     20  O   UNL     1       5.039   7.285  15.017  0.00  0.00    +0.000 OA
ATOM     21  H   UNL     1       5.689   7.210  14.299  0.00  0.00    +0.000 HD
ENDBRANCH   7  20
BRANCH  12  22
ATOM     22  O   UNL     1       2.009   9.508  18.440  0.00  0.00    +0.000 OA
ATOM     23  H   UNL     1       1.663  10.199  19.052  0.00  0.00    +0.000 HD
ENDBRANCH  12  22
TORSDOF 3
ENDMDL
MODEL 4
REMARK VINA RESULT:      -6.7      2.957      5.720
REMARK  Name = 
REMARK  5 active torsions:
REMARK  status: ('A' for Active; 'I' for Inactive)
REMARK    1  A    between atoms: C_1  and  N_2
REMARK    2  A    between atoms: N_2  and  C_3
REMARK    3  A    between atoms: N_2  and  C_4
REMARK    4  A    between atoms: C_10  and  O_11
REMARK    5  A    between atoms: C_16  and  O_17
REMARK                            x       y       z     vdW  Elec       q    Type
REMARK                         _______ _______ _______ _____ _____    ______ ____
ROOT
ATOM      1  C   UNL     1       1.780   4.764  20.557  0.00  0.00    +0.000 C 
ATOM      2  C   UNL     1       2.249   5.730  19.722  0.00  0.00    +0.000 C 
ATOM      3  C   UNL     1       3.280   5.436  18.666  0.00  0.00    +0.000 A 
ATOM      4  C   UNL     1       3.985   4.221  18.593  0.00  0.00    +0.000 A 
ATOM      5  C   UNL     1       4.841   3.908  17.537  0.00  0.00    +0.000 A 
ATOM      6  C   UNL     1       5.089   4.850  16.555  0.00  0.00    +0.000 A 
ATOM      7  C   UNL     1       4.508   6.111  16.662  0.00  0.00    +0.000 A 
ATOM      8  C   UNL     1       3.612   6.415  17.710  0.00  0.00    +0.000 A 
ATOM      9  C   UNL     1       3.070   7.791  17.858  0.00  0.00    +0.000 C 
ATOM     10  O   UNL     1       3.392   8.703  17.097  0.00  0.00    +0.000 OA
ATOM     11  C   UNL     1       2.143   8.132  18.963  0.00  0.00    +0.000 A 
ATOM     12  C   UNL     1       1.691   9.465  19.083  0.00  0.00    +0.000 A 
ATOM     13  C   UNL     1       0.796   9.835  20.078  0.00  0.00    +0.000 A 
ATOM     14  C   UNL     1       0.335   8.871  20.958  0.00  0.00    +0.000 A 
ATOM     15  C   UNL     1       0.791   7.543  20.851  0.00  0.00    +0.000 A 
ATOM     16  C   UNL     1       1.715   7.143  19.867  0.00  0.00    +0.000 A 
ENDROOT
BRANCH   1  18
ATOM     17  C   UNL     1       1.227   2.465  19.787  0.00  0.00    +0.000 C 
ATOM     18  N   UNL     1       1.991   3.380  20.652  0.00  0.00    +0.000 N 
ATOM     19  C   UNL     1       2.354   2.807  21.955  0.00  0.00    +0.000 C 
ENDBRANCH   1  18
BRANCH   7  20
ATOM     20  O   UNL     1       4.838   7.039  15.712  0.00  0.00    +0.000 OA
ATOM     21  H   UNL     1       4.088   7.186  15.115  0.00  0.00    +0.000 HD
ENDBRANCH   7  20
BRANCH  12  22
ATOM     22  O   UNL     1       2.096  10.481  18.256  0.00  0.00    +0.000 OA
ATOM     23  H   UNL     1       3.009  10.267  17.953  0.00  0.00    +0.000 HD
ENDBRANCH  12  22
TORSDOF 3
ENDMDL
MODEL 5
REMARK VINA RESULT:      -6.6      9.939     11.686
REMARK  Name = 
REMARK  5 active torsions:
REMARK  status: ('A' for Active; 'I' for Inactive)
REMARK    1  A    between atoms: C_1  and  N_2
REMARK    2  A    between atoms: N_2  and  C_3
REMARK    3  A    between atoms: N_2  and  C_4
REMARK    4  A    between atoms: C_10  and  O_11
REMARK    5  A    between atoms: C_16  and  O_17
REMARK                            x       y       z     vdW  Elec       q    Type
REMARK                         _______ _______ _______ _____ _____    ______ ____
ROOT
ATOM      1  C   UNL     1       8.189  15.216  21.382  0.00  0.00    +0.000 C 
ATOM      2  C   UNL     1       8.890  14.819  20.287  0.00  0.00    +0.000 C 
ATOM      3  C   UNL     1       9.274  13.380  20.067  0.00  0.00    +0.000 A 
ATOM      4  C   UNL     1       9.130  12.383  21.051  0.00  0.00    +0.000 A 
ATOM      5  C   UNL     1       9.364  11.033  20.795  0.00  0.00    +0.000 A 
ATOM      6  C   UNL     1       9.841  10.643  19.557  0.00  0.00    +0.000 A 
ATOM      7  C   UNL     1      10.117  11.616  18.599  0.00  0.00    +0.000 A 
ATOM      8  C   UNL     1       9.844  12.979  18.844  0.00  0.00    +0.000 A 
ATOM      9  C   UNL     1      10.226  14.012  17.845  0.00  0.00    +0.000 C 
ATOM     10  O   UNL     1      10.800  13.722  16.796  0.00  0.00    +0.000 OA
ATOM     11  C   UNL     1       9.963  15.449  18.095  0.00  0.00    +0.000 A 
ATOM     12  C   UNL     1      10.384  16.393  17.131  0.00  0.00    +0.000 A 
ATOM     13  C   UNL     1      10.136  17.749  17.296  0.00  0.00    +0.000 A 
ATOM     14  C   UNL     1       9.454  18.174  18.422  0.00  0.00    +0.000 A 
ATOM     15  C   UNL     1       9.041  17.240  19.392  0.00  0.00    +0.000 A 
ATOM     16  C   UNL     1       9.298  15.861  19.264  0.00  0.00    +0.000 A 
ENDROOT
BRANCH   1  18
ATOM     17  C   UNL     1       6.158  14.246  22.441  0.00  0.00    +0.000 C 
ATOM     18  N   UNL     1       7.603  14.531  22.458  0.00  0.00    +0.000 N 
ATOM     19  C   UNL     1       8.158  14.720  23.805  0.00  0.00    +0.000 C 
ENDBRANCH   1  18
BRANCH   7  20
ATOM     20  O   UNL     1      10.659  11.197  17.415  0.00  0.00    +0.000 OA
ATOM     21  H   UNL     1      10.901  11.962  16.870  0.00  0.00    +0.000 HD
ENDBRANCH   7  20
BRANCH  12  22
ATOM     22  O   UNL     1      11.066  16.059  15.989  0.00  0.00    +0.000 OA
ATOM     23  H   UNL     1      10.725  15.183  15.689  0.00  0.00    +0.000 HD
ENDBRANCH  12  22
TORSDOF 3
ENDMDL
MODEL 6
REMARK VINA RESULT:      -6.5      7.981     10.021
REMARK  Name = 
REMARK  5 active torsions:
REMARK  status: ('A' for Active; 'I' for Inactive)
REMARK    1  A    between atoms: C_1  and  N_2
REMARK    2  A    between atoms: N_2  and  C_3
REMARK    3  A    between atoms: N_2  and  C_4
REMARK    4  A    between atoms: C_10  and  O_11
REMARK    5  A    between atoms: C_16  and  O_17
REMARK                            x       y       z     vdW  Elec       q    Type
REMARK                         _______ _______ _______ _____ _____    ______ ____
ROOT
ATOM      1  C   UNL     1      -5.271  12.896  19.742  0.00  0.00    +0.000 C 
ATOM      2  C   UNL     1      -3.992  12.434  19.735  0.00  0.00    +0.000 C 
ATOM      3  C   UNL     1      -3.046  12.692  20.877  0.00  0.00    +0.000 A 
ATOM      4  C   UNL     1      -3.328  13.590  21.924  0.00  0.00    +0.000 A 
ATOM      5  C   UNL     1      -2.506  13.724  23.043  0.00  0.00    +0.000 A 
ATOM      6  C   UNL     1      -1.317  13.021  23.107  0.00  0.00    +0.000 A 
ATOM      7  C   UNL     1      -0.943  12.220  22.031  0.00  0.00    +0.000 A 
ATOM      8  C   UNL     1      -1.792  12.054  20.915  0.00  0.00    +0.000 A 
ATOM      9  C   UNL     1      -1.340  11.265  19.739  0.00  0.00    +0.000 C 
ATOM     10  O   UNL     1      -0.222  10.755  19.689  0.00  0.00    +0.000 OA
ATOM     11  C   UNL     1      -2.212  11.096  18.553  0.00  0.00    +0.000 A 
ATOM     12  C   UNL     1      -1.717  10.373  17.445  0.00  0.00    +0.000 A 
ATOM     13  C   UNL     1      -2.500  10.154  16.320  0.00  0.00    +0.000 A 
ATOM     14  C   UNL     1      -3.793  10.649  16.296  0.00  0.00    +0.000 A 
ATOM     15  C   UNL     1      -4.289  11.380  17.392  0.00  0.00    +0.000 A 
ATOM     16  C   UNL     1      -3.510  11.637  18.538  0.00  0.00    +0.000 A 
ENDROOT
BRANCH   1  18
ATOM     17  C   UNL     1      -6.977  12.831  21.551  0.00  0.00    +0.000 C 
ATOM     18  N   UNL     1      -6.048  13.582  20.689  0.00  0.00    +0.000 N 
ATOM     19  C   UNL     1      -6.486  14.951  20.388  0.00  0.00    +0.000 C 
ENDBRANCH   1  18
BRANCH   7  20
ATOM     20  O   UNL     1       0.275  11.601  22.101  0.00  0.00    +0.000 OA
ATOM     21  H   UNL     1       0.371  10.970  21.370  0.00  0.00    +0.000 HD
ENDBRANCH   7  20
BRANCH  12  22
ATOM     22  O   UNL     1      -0.450   9.850  17.384  0.00  0.00    +0.000 OA
ATOM     23  H   UNL     1      -0.451   9.017  17.912  0.00  0.00    +0.000 HD
ENDBRANCH  12  22
TORSDOF 3
ENDMDL
MODEL 7
REMARK VINA RESULT:      -6.4      8.032     10.413
REMARK  Name = 
REMARK  5 active torsions:
REMARK  status: ('A' for Active; 'I' for Inactive)
REMARK    1  A    between atoms: C_1  and  N_2
REMARK    2  A    between atoms: N_2  and  C_3
REMARK    3  A    between atoms: N_2  and  C_4
REMARK    4  A    between atoms: C_10  and  O_11
REMARK    5  A    between atoms: C_16  and  O_17
REMARK                            x       y       z     vdW  Elec       q    Type
REMARK                         _______ _______ _______ _____ _____    ______ ____
ROOT
ATOM      1  C   UNL     1      -5.273  13.047  19.724  0.00  0.00    +0.000 C 
ATOM      2  C   UNL     1      -4.035  12.486  19.752  0.00  0.00    +0.000 C 
ATOM      3  C   UNL     1      -3.525  11.628  18.626  0.00  0.00    +0.000 A 
ATOM      4  C   UNL     1      -4.340  11.170  17.574  0.00  0.00    +0.000 A 
ATOM      5  C   UNL     1      -3.833  10.489  16.468  0.00  0.00    +0.000 A 
ATOM      6  C   UNL     1      -2.490  10.161  16.424  0.00  0.00    +0.000 A 
ATOM      7  C   UNL     1      -1.676  10.485  17.507  0.00  0.00    +0.000 A 
ATOM      8  C   UNL     1      -2.181  11.208  18.609  0.00  0.00    +0.000 A 
ATOM      9  C   UNL     1      -1.322  11.470  19.793  0.00  0.00    +0.000 C 
ATOM     10  O   UNL     1      -0.165  11.054  19.862  0.00  0.00    +0.000 OA
ATOM     11  C   UNL     1      -1.842  12.212  20.965  0.00  0.00    +0.000 A 
ATOM     12  C   UNL     1      -0.996  12.395  22.082  0.00  0.00    +0.000 A 
ATOM     13  C   UNL     1      -1.417  13.111  23.194  0.00  0.00    +0.000 A 
ATOM     14  C   UNL     1      -2.688  13.661  23.197  0.00  0.00    +0.000 A 
ATOM     15  C   UNL     1      -3.540  13.472  22.091  0.00  0.00    +0.000 A 
ATOM     16  C   UNL     1      -3.149  12.732  20.959  0.00  0.00    +0.000 A 
ENDROOT
BRANCH   1  18
ATOM     17  C   UNL     1      -6.576  14.348  18.052  0.00  0.00    +0.000 C 
ATOM     18  N   UNL     1      -6.296  13.089  18.764  0.00  0.00    +0.000 N 
ATOM     19  C   UNL     1      -7.474  12.231  18.946  0.00  0.00    +0.000 C 
ENDBRANCH   1  18
BRANCH   7  20
ATOM     20  O   UNL     1      -0.371  10.076  17.458  0.00  0.00    +0.000 OA
ATOM     21  H   UNL     1       0.218  10.815  17.678  0.00  0.00    +0.000 HD
ENDBRANCH   7  20
BRANCH  12  22
ATOM     22  O   UNL     1       0.275  11.886  22.164  0.00  0.00    +0.000 OA
ATOM     23  H   UNL     1       0.284  11.038  21.661  0.00  0.00    +0.000 HD
ENDBRANCH  12  22
TORSDOF 3
ENDMDL
MODEL 8
REMARK VINA RESULT:      -6.4      7.673     11.151
REMARK  Name = 
REMARK  5 active torsions:
REMARK  status: ('A' for Active; 'I' for Inactive)
REMARK    1  A    between atoms: C_1  and  N_2
REMARK    2  A    between atoms: N_2  and  C_3
REMARK    3  A    between atoms: N_2  and  C_4
REMARK    4  A    between atoms: C_10  and  O_11
REMARK    5  A    between atoms: C_16  and  O_17
REMARK                            x       y       z     vdW  Elec       q    Type
REMARK                         _______ _______ _______ _____ _____    ______ ____
ROOT
ATOM      1  C   UNL     1      -0.743  11.773  20.164  0.00  0.00    +0.000 C 
ATOM      2  C   UNL     1      -2.068  12.009  19.969  0.00  0.00    +0.000 C 
ATOM      3  C   UNL     1      -2.741  11.724  18.653  0.00  0.00    +0.000 A 
ATOM      4  C   UNL     1      -2.036  11.400  17.479  0.00  0.00    +0.000 A 
ATOM      5  C   UNL     1      -2.672  11.009  16.301  0.00  0.00    +0.000 A 
ATOM      6  C   UNL     1      -4.053  11.019  16.234  0.00  0.00    +0.000 A 
ATOM      7  C   UNL     1      -4.783  11.457  17.336  0.00  0.00    +0.000 A 
ATOM      8  C   UNL     1      -4.141  11.815  18.541  0.00  0.00    +0.000 A 
ATOM      9  C   UNL     1      -4.929  12.363  19.677  0.00  0.00    +0.000 C 
ATOM     10  O   UNL     1      -6.145  12.538  19.601  0.00  0.00    +0.000 OA
ATOM     11  C   UNL     1      -4.269  12.760  20.942  0.00  0.00    +0.000 A 
ATOM     12  C   UNL     1      -5.058  13.315  21.974  0.00  0.00    +0.000 A 
ATOM     13  C   UNL     1      -4.500  13.675  23.193  0.00  0.00    +0.000 A 
ATOM     14  C   UNL     1      -3.145  13.474  23.396  0.00  0.00    +0.000 A 
ATOM     15  C   UNL     1      -2.351  12.932  22.368  0.00  0.00    +0.000 A 
ATOM     16  C   UNL     1      -2.884  12.579  21.113  0.00  0.00    +0.000 A 
ENDROOT
BRANCH   1  18
ATOM     17  C   UNL     1       0.643   9.791  19.583  0.00  0.00    +0.000 C 
ATOM     18  N   UNL     1       0.265  11.200  19.374  0.00  0.00    +0.000 N 
ATOM     19  C   UNL     1       1.367  12.050  18.905  0.00  0.00    +0.000 C 
ENDBRANCH   1  18
BRANCH   7  20
ATOM     20  O   UNL     1      -6.144  11.523  17.203  0.00  0.00    +0.000 OA
ATOM     21  H   UNL     1      -6.388  11.512  16.264  0.00  0.00    +0.000 HD
ENDBRANCH   7  20
BRANCH  12  22
ATOM     22  O   UNL     1      -6.405  13.549  21.858  0.00  0.00    +0.000 OA
ATOM     23  H   UNL     1      -6.573  13.844  20.932  0.00  0.00    +0.000 HD
ENDBRANCH  12  22
TORSDOF 3
ENDMDL
MODEL 9
REMARK VINA RESULT:      -6.4      8.234     10.332
REMARK  Name = 
REMARK  5 active torsions:
REMARK  status: ('A' for Active; 'I' for Inactive)
REMARK    1  A    between atoms: C_1  and  N_2
REMARK    2  A    between atoms: N_2  and  C_3
REMARK    3  A    between atoms: N_2  and  C_4
REMARK    4  A    between atoms: C_10  and  O_11
REMARK    5  A    between atoms: C_16  and  O_17
REMARK                            x       y       z     vdW  Elec       q    Type
REMARK                         _______ _______ _______ _____ _____    ______ ____
ROOT
ATOM      1  C   UNL     1      -0.470  11.201  19.704  0.00  0.00    +0.000 C 
ATOM      2  C   UNL     1      -1.784  11.537  19.606  0.00  0.00    +0.000 C 
ATOM      3  C   UNL     1      -2.529  12.173  20.748  0.00  0.00    +0.000 A 
ATOM      4  C   UNL     1      -2.004  12.276  22.050  0.00  0.00    +0.000 A 
ATOM      5  C   UNL     1      -2.646  12.982  23.068  0.00  0.00    +0.000 A 
ATOM      6  C   UNL     1      -3.891  13.537  22.835  0.00  0.00    +0.000 A 
ATOM      7  C   UNL     1      -4.500  13.345  21.597  0.00  0.00    +0.000 A 
ATOM      8  C   UNL     1      -3.834  12.664  20.555  0.00  0.00    +0.000 A 
ATOM      9  C   UNL     1      -4.532  12.393  19.271  0.00  0.00    +0.000 C 
ATOM     10  O   UNL     1      -5.700  12.730  19.081  0.00  0.00    +0.000 OA
ATOM     11  C   UNL     1      -3.854  11.663  18.173  0.00  0.00    +0.000 A 
ATOM     12  C   UNL     1      -4.577  11.395  16.990  0.00  0.00    +0.000 A 
ATOM     13  C   UNL     1      -3.984  10.744  15.916  0.00  0.00    +0.000 A 
ATOM     14  C   UNL     1      -2.656  10.364  16.011  0.00  0.00    +0.000 A 
ATOM     15  C   UNL     1      -1.934  10.619  17.193  0.00  0.00    +0.000 A 
ATOM     16  C   UNL     1      -2.514  11.256  18.307  0.00  0.00    +0.000 A 
ENDROOT
BRANCH   1  18
ATOM     17  C   UNL     1       1.504  12.451  20.556  0.00  0.00    +0.000 C 
ATOM     18  N   UNL     1       0.504  11.379  20.699  0.00  0.00    +0.000 N 
ATOM     19  C   UNL     1       0.989  10.203  21.433  0.00  0.00    +0.000 C 
ENDBRANCH   1  18
BRANCH   7  20
ATOM     20  O   UNL     1      -5.763  13.844  21.433  0.00  0.00    +0.000 OA
ATOM     21  H   UNL     1      -6.393  13.343  21.975  0.00  0.00    +0.000 HD
ENDBRANCH   7  20
BRANCH  12  22
ATOM     22  O   UNL     1      -5.894  11.735  16.810  0.00  0.00    +0.000 OA
ATOM     23  H   UNL     1      -6.373  11.501  17.640  0.00  0.00    +0.000 HD
ENDBRANCH  12  22
TORSDOF 3
ENDMDL
