MODEL 1
REMARK VINA RESULT:      -6.3      0.000      0.000
REMARK  Name = 
REMARK  16 active torsions:
REMARK  status: ('A' for Active; 'I' for Inactive)
REMARK    1  A    between atoms: C_1  and  C_2
REMARK    2  A    between atoms: C_2  and  N_3
REMARK    3  A    between atoms: N_3  and  C_4
REMARK    4  A    between atoms: N_3  and  C_12
REMARK    5  A    between atoms: C_4  and  C_5
REMARK    6  A    between atoms: C_13  and  N_14
REMARK    7  A    between atoms: N_18  and  C_19
REMARK    8  A    between atoms: C_19  and  C_20
REMARK    9  A    between atoms: C_20  and  C_21
REMARK   10  A    between atoms: C_21  and  C_22
REMARK   11  A    between atoms: C_22  and  O_24
REMARK   12  A    between atoms: O_24  and  C_25
REMARK   13  A    between atoms: C_25  and  C_26
REMARK   14  A    between atoms: C_26  and  C_27
REMARK   15  A    between atoms: C_27  and  O_28
REMARK   16  A    between atoms: N_30  and  C_31
REMARK                            x       y       z     vdW  Elec       q    Type
REMARK                         _______ _______ _______ _____ _____    ______ ____
ROOT
ATOM      1  C   UNL     1       2.801   5.386  18.873  0.00  0.00    +0.000 C 
ATOM      2  C   UNL     1       2.172   5.167  20.063  0.00  0.00    +0.000 C 
ATOM      3  C   UNL     1       1.540   6.149  20.987  0.00  0.00    +0.000 C 
ATOM      4  N   UNL     1       1.584   7.563  20.644  0.00  0.00    +0.000 NA
ATOM      5  C   UNL     1       2.411   7.826  19.482  0.00  0.00    +0.000 C 
ATOM      6  N   UNL     1       2.906   6.784  18.565  0.00  0.00    +0.000 N 
ATOM      7  C   UNL     1       3.672   7.410  17.491  0.00  0.00    +0.000 C 
ENDROOT
BRANCH   2   8
ATOM      8  N   UNL     1       2.078   3.870  20.673  0.00  0.00    +0.000 N 
ATOM      9  O   UNL     1       3.148   3.331  21.010  0.00  0.00    +0.000 OA
ATOM     10  O   UNL     1       0.966   3.333  20.702  0.00  0.00    +0.000 OA
ENDBRANCH   2   8
BRANCH   1  11
ATOM     11  N   UNL     1       3.281   4.340  18.000  0.00  0.00    +0.000 N 
BRANCH  11  13
ATOM     12  C   UNL     1       2.612   1.925  17.750  0.00  0.00    +0.000 C 
ATOM     13  C   UNL     1       2.438   3.365  17.270  0.00  0.00    +0.000 C 
ENDBRANCH  11  13
BRANCH  11  14
ATOM     14  C   UNL     1       4.724   3.964  17.876  0.00  0.00    +0.000 C 
BRANCH  14  15
ATOM     15  C   UNL     1       5.401   4.373  16.590  0.00  0.00    +0.000 A 
ATOM     16  C   UNL     1       5.001   3.993  15.301  0.00  0.00    +0.000 A 
ATOM     17  C   UNL     1       5.795   4.312  14.199  0.00  0.00    +0.000 A 
ATOM     18  C   UNL     1       6.958   5.025  14.419  0.00  0.00    +0.000 A 
ATOM     19 CL   UNL     1       8.042   5.366  13.133  0.00  0.00    +0.000 Cl
ATOM     20  N   UNL     1       7.364   5.460  15.627  0.00  0.00    +0.000 NA
ATOM     21  C   UNL     1       6.571   5.141  16.675  0.00  0.00    +0.000 A 
ENDBRANCH  14  15
ENDBRANCH  11  14
ENDBRANCH   1  11
BRANCH   4  22
ATOM     22  C   UNL     1       0.270   8.201  20.561  0.00  0.00    +0.000 C 
BRANCH  22  23
ATOM     23  C   UNL     1       0.273   9.658  21.036  0.00  0.00    +0.000 C 
BRANCH  23  24
ATOM     24  C   UNL     1      -0.654  10.537  20.201  0.00  0.00    +0.000 C 
BRANCH  24  25
ATOM     25  C   UNL     1      -0.055  10.842  18.855  0.00  0.00    +0.000 C 
ATOM     26  O   UNL     1       1.138  10.920  18.602  0.00  0.00    +0.000 OA
BRANCH  25  27
ATOM     27  O   UNL     1      -1.066  11.162  17.999  0.00  0.00    +0.000 OA
BRANCH  27  28
ATOM     28  C   UNL     1      -1.637  10.037  17.331  0.00  0.00    +0.000 C 
BRANCH  28  29
ATOM     29  C   UNL     1      -3.153  10.020  17.382  0.00  0.00    +0.000 C 
BRANCH  29  30
ATOM     30  C   UNL     1      -3.778  11.123  16.541  0.00  0.00    +0.000 C 
BRANCH  30  31
ATOM     31  O   UNL     1      -4.444  10.552  15.420  0.00  0.00    +0.000 OA
ATOM     32  H   UNL     1      -3.861   9.871  15.043  0.00  0.00    +0.000 HD
ENDBRANCH  30  31
ENDBRANCH  29  30
ENDBRANCH  28  29
ENDBRANCH  27  28
ENDBRANCH  25  27
ENDBRANCH  24  25
ENDBRANCH  23  24
ENDBRANCH  22  23
ENDBRANCH   4  22
TORSDOF 14
ENDMDL
MODEL 2
REMARK VINA RESULT:      -6.2      4.169      8.614
REMARK  Name = 
REMARK  16 active torsions:
REMARK  status: ('A' for Active; 'I' for Inactive)
REMARK    1  A    between atoms: C_1  and  C_2
REMARK    2  A    between atoms: C_2  and  N_3
REMARK    3  A    between atoms: N_3  and  C_4
REMARK    4  A    between atoms: N_3  and  C_12
REMARK    5  A    between atoms: C_4  and  C_5
REMARK    6  A    between atoms: C_13  and  N_14
REMARK    7  A    between atoms: N_18  and  C_19
REMARK    8  A    between atoms: C_19  and  C_20
REMARK    9  A    between atoms: C_20  and  C_21
REMARK   10  A    between atoms: C_21  and  C_22
REMARK   11  A    between atoms: C_22  and  O_24
REMARK   12  A    between atoms: O_24  and  C_25
REMARK   13  A    between atoms: C_25  and  C_26
REMARK   14  A    between atoms: C_26  and  C_27
REMARK   15  A    between atoms: C_27  and  O_28
REMARK   16  A    between atoms: N_30  and  C_31
REMARK                            x       y       z     vdW  Elec       q    Type
REMARK                         _______ _______ _______ _____ _____    ______ ____
ROOT
ATOM      1  C   UNL     1      -0.217  11.068  20.461  0.00  0.00    +0.000 C 
ATOM      2  C   UNL     1       0.446   9.959  20.898  0.00  0.00    +0.000 C 
ATOM      3  C   UNL     1       1.077   8.867  20.106  0.00  0.00    +0.000 C 
ATOM      4  N   UNL     1       0.989   8.914  18.653  0.00  0.00    +0.000 NA
ATOM      5  C   UNL     1       0.128   9.983  18.184  0.00  0.00    +0.000 C 
ATOM      6  N   UNL     1      -0.364  11.083  19.033  0.00  0.00    +0.000 N 
ATOM      7  C   UNL     1      -1.171  11.993  18.225  0.00  0.00    +0.000 C 
ENDROOT
BRANCH   2   8
ATOM      8  N   UNL     1       0.587   9.627  22.289  0.00  0.00    +0.000 N 
ATOM      9  O   UNL     1       1.737   9.670  22.761  0.00  0.00    +0.000 OA
ATOM     10  O   UNL     1      -0.413   9.203  22.877  0.00  0.00    +0.000 OA
ENDBRANCH   2   8
BRANCH   1  11
ATOM     11  N   UNL     1      -0.692  12.125  21.322  0.00  0.00    +0.000 N 
BRANCH  11  13
ATOM     12  C   UNL     1      -2.414  12.097  23.160  0.00  0.00    +0.000 C 
ATOM     13  C   UNL     1      -2.106  12.375  21.690  0.00  0.00    +0.000 C 
ENDBRANCH  11  13
BRANCH  11  14
ATOM     14  C   UNL     1       0.168  13.253  21.797  0.00  0.00    +0.000 C 
BRANCH  14  15
ATOM     15  C   UNL     1       0.935  13.991  20.727  0.00  0.00    +0.000 A 
ATOM     16  C   UNL     1       0.394  14.930  19.838  0.00  0.00    +0.000 A 
ATOM     17  C   UNL     1       1.172  15.435  18.794  0.00  0.00    +0.000 A 
ATOM     18  C   UNL     1       2.479  14.998  18.686  0.00  0.00    +0.000 A 
ATOM     19 CL   UNL     1       3.467  15.487  17.372  0.00  0.00    +0.000 Cl
ATOM     20  N   UNL     1       3.064  14.138  19.540  0.00  0.00    +0.000 NA
ATOM     21  C   UNL     1       2.287  13.671  20.545  0.00  0.00    +0.000 A 
ENDBRANCH  14  15
ENDBRANCH  11  14
ENDBRANCH   1  11
BRANCH   4  22
ATOM     22  C   UNL     1       2.285   8.891  17.974  0.00  0.00    +0.000 C 
BRANCH  22  23
ATOM     23  C   UNL     1       3.091   7.617  18.251  0.00  0.00    +0.000 C 
BRANCH  23  24
ATOM     24  C   UNL     1       2.286   6.353  17.963  0.00  0.00    +0.000 C 
BRANCH  24  25
ATOM     25  C   UNL     1       3.146   5.122  18.056  0.00  0.00    +0.000 C 
ATOM     26  O   UNL     1       3.788   4.624  17.143  0.00  0.00    +0.000 OA
BRANCH  25  27
ATOM     27  O   UNL     1       2.972   4.571  19.290  0.00  0.00    +0.000 OA
BRANCH  27  28
ATOM     28  C   UNL     1       1.622   4.600  19.752  0.00  0.00    +0.000 C 
BRANCH  28  29
ATOM     29  C   UNL     1       1.068   3.221  20.060  0.00  0.00    +0.000 C 
BRANCH  29  30
ATOM     30  C   UNL     1       0.823   2.397  18.806  0.00  0.00    +0.000 C 
BRANCH  30  31
ATOM     31  O   UNL     1       2.027   1.746  18.418  0.00  0.00    +0.000 OA
ATOM     32  H   UNL     1       1.835   0.797  18.324  0.00  0.00    +0.000 HD
ENDBRANCH  30  31
ENDBRANCH  29  30
ENDBRANCH  28  29
ENDBRANCH  27  28
ENDBRANCH  25  27
ENDBRANCH  24  25
ENDBRANCH  23  24
ENDBRANCH  22  23
ENDBRANCH   4  22
TORSDOF 14
ENDMDL
MODEL 3
REMARK VINA RESULT:      -6.1      2.136      2.628
REMARK  Name = 
REMARK  16 active torsions:
REMARK  status: ('A' for Active; 'I' for Inactive)
REMARK    1  A    between atoms: C_1  and  C_2
REMARK    2  A    between atoms: C_2  and  N_3
REMARK    3  A    between atoms: N_3  and  C_4
REMARK    4  A    between atoms: N_3  and  C_12
REMARK    5  A    between atoms: C_4  and  C_5
REMARK    6  A    between atoms: C_13  and  N_14
REMARK    7  A    between atoms: N_18  and  C_19
REMARK    8  A    between atoms: C_19  and  C_20
REMARK    9  A    between atoms: C_20  and  C_21
REMARK   10  A    between atoms: C_21  and  C_22
REMARK   11  A    between atoms: C_22  and  O_24
REMARK   12  A    between atoms: O_24  and  C_25
REMARK   13  A    between atoms: C_25  and  C_26
REMARK   14  A    between atoms: C_26  and  C_27
REMARK   15  A    between atoms: C_27  and  O_28
REMARK   16  A    between atoms: N_30  and  C_31
REMARK                            x       y       z     vdW  Elec       q    Type
REMARK                         _______ _______ _______ _____ _____    ______ ____
ROOT
ATOM      1  C   UNL     1       2.833   5.251  18.923  0.00  0.00    +0.000 C 
ATOM      2  C   UNL     1       2.224   4.924  20.099  0.00  0.00    +0.000 C 
ATOM      3  C   UNL     1       1.530   5.809  21.076  0.00  0.00    +0.000 C 
ATOM      4  N   UNL     1       1.478   7.240  20.812  0.00  0.00    +0.000 NA
ATOM      5  C   UNL     1       2.281   7.622  19.667  0.00  0.00    +0.000 C 
ATOM      6  N   UNL     1       2.842   6.668  18.694  0.00  0.00    +0.000 N 
ATOM      7  C   UNL     1       3.560   7.403  17.656  0.00  0.00    +0.000 C 
ENDROOT
BRANCH   2   8
ATOM      8  N   UNL     1       2.220   3.592  20.636  0.00  0.00    +0.000 N 
ATOM      9  O   UNL     1       1.108   3.072  20.836  0.00  0.00    +0.000 OA
ATOM     10  O   UNL     1       3.306   3.112  20.978  0.00  0.00    +0.000 OA
ENDBRANCH   2   8
BRANCH   1  11
ATOM     11  N   UNL     1       3.379   4.290  17.994  0.00  0.00    +0.000 N 
BRANCH  11  13
ATOM     12  C   UNL     1       2.649   1.901  17.675  0.00  0.00    +0.000 C 
ATOM     13  C   UNL     1       2.597   3.341  17.168  0.00  0.00    +0.000 C 
ENDBRANCH  11  13
BRANCH  11  14
ATOM     14  C   UNL     1       4.839   3.977  17.891  0.00  0.00    +0.000 C 
BRANCH  14  15
ATOM     15  C   UNL     1       5.498   4.343  16.584  0.00  0.00    +0.000 A 
ATOM     16  C   UNL     1       5.256   3.728  15.348  0.00  0.00    +0.000 A 
ATOM     17  C   UNL     1       6.037   4.054  14.238  0.00  0.00    +0.000 A 
ATOM     18  C   UNL     1       7.027   5.006  14.395  0.00  0.00    +0.000 A 
ATOM     19 CL   UNL     1       8.098   5.385  13.111  0.00  0.00    +0.000 Cl
ATOM     20  N   UNL     1       7.270   5.664  15.544  0.00  0.00    +0.000 NA
ATOM     21  C   UNL     1       6.492   5.331  16.600  0.00  0.00    +0.000 A 
ENDBRANCH  14  15
ENDBRANCH  11  14
ENDBRANCH   1  11
BRANCH   4  22
ATOM     22  C   UNL     1       0.124   7.791  20.764  0.00  0.00    +0.000 C 
BRANCH  22  23
ATOM     23  C   UNL     1      -0.191   8.727  21.936  0.00  0.00    +0.000 C 
BRANCH  23  24
ATOM     24  C   UNL     1       0.824   9.861  22.055  0.00  0.00    +0.000 C 
BRANCH  24  25
ATOM     25  C   UNL     1       0.266  11.154  21.527  0.00  0.00    +0.000 C 
ATOM     26  O   UNL     1       0.878  12.206  21.413  0.00  0.00    +0.000 OA
BRANCH  25  27
ATOM     27  O   UNL     1      -1.074  10.996  21.336  0.00  0.00    +0.000 OA
BRANCH  27  28
ATOM     28  C   UNL     1      -1.742  12.183  20.909  0.00  0.00    +0.000 C 
BRANCH  28  29
ATOM     29  C   UNL     1      -2.875  12.594  21.831  0.00  0.00    +0.000 C 
BRANCH  29  30
ATOM     30  C   UNL     1      -2.601  12.242  23.285  0.00  0.00    +0.000 C 
BRANCH  30  31
ATOM     31  O   UNL     1      -3.822  11.908  23.934  0.00  0.00    +0.000 OA
ATOM     32  H   UNL     1      -4.458  11.636  23.251  0.00  0.00    +0.000 HD
ENDBRANCH  30  31
ENDBRANCH  29  30
ENDBRANCH  28  29
ENDBRANCH  27  28
ENDBRANCH  25  27
ENDBRANCH  24  25
ENDBRANCH  23  24
ENDBRANCH  22  23
ENDBRANCH   4  22
TORSDOF 14
ENDMDL
MODEL 4
REMARK VINA RESULT:      -6.1      2.534      3.147
REMARK  Name = 
REMARK  16 active torsions:
REMARK  status: ('A' for Active; 'I' for Inactive)
REMARK    1  A    between atoms: C_1  and  C_2
REMARK    2  A    between atoms: C_2  and  N_3
REMARK    3  A    between atoms: N_3  and  C_4
REMARK    4  A    between atoms: N_3  and  C_12
REMARK    5  A    between atoms: C_4  and  C_5
REMARK    6  A    between atoms: C_13  and  N_14
REMARK    7  A    between atoms: N_18  and  C_19
REMARK    8  A    between atoms: C_19  and  C_20
REMARK    9  A    between atoms: C_20  and  C_21
REMARK   10  A    between atoms: C_21  and  C_22
REMARK   11  A    between atoms: C_22  and  O_24
REMARK   12  A    between atoms: O_24  and  C_25
REMARK   13  A    between atoms: C_25  and  C_26
REMARK   14  A    between atoms: C_26  and  C_27
REMARK   15  A    between atoms: C_27  and  O_28
REMARK   16  A    between atoms: N_30  and  C_31
REMARK                            x       y       z     vdW  Elec       q    Type
REMARK                         _______ _______ _______ _____ _____    ______ ____
ROOT
ATOM      1  C   UNL     1       2.568   5.654  19.043  0.00  0.00    +0.000 C 
ATOM      2  C   UNL     1       1.960   5.436  20.244  0.00  0.00    +0.000 C 
ATOM      3  C   UNL     1       1.330   6.416  21.171  0.00  0.00    +0.000 C 
ATOM      4  N   UNL     1       1.352   7.829  20.819  0.00  0.00    +0.000 NA
ATOM      5  C   UNL     1       2.158   8.094  19.643  0.00  0.00    +0.000 C 
ATOM      6  N   UNL     1       2.651   7.052  18.725  0.00  0.00    +0.000 N 
ATOM      7  C   UNL     1       3.393   7.680  17.635  0.00  0.00    +0.000 C 
ENDROOT
BRANCH   2   8
ATOM      8  N   UNL     1       1.891   4.142  20.863  0.00  0.00    +0.000 N 
ATOM      9  O   UNL     1       2.918   3.742  21.442  0.00  0.00    +0.000 OA
ATOM     10  O   UNL     1       0.872   3.470  20.669  0.00  0.00    +0.000 OA
ENDBRANCH   2   8
BRANCH   1  11
ATOM     11  N   UNL     1       3.047   4.609  18.169  0.00  0.00    +0.000 N 
BRANCH  11  13
ATOM     12  C   UNL     1       2.388   2.216  17.740  0.00  0.00    +0.000 C 
ATOM     13  C   UNL     1       2.202   3.688  17.374  0.00  0.00    +0.000 C 
ENDBRANCH  11  13
BRANCH  11  14
ATOM     14  C   UNL     1       4.477   4.174  18.107  0.00  0.00    +0.000 C 
BRANCH  14  15
ATOM     15  C   UNL     1       5.188   4.439  16.802  0.00  0.00    +0.000 A 
ATOM     16  C   UNL     1       5.183   3.594  15.685  0.00  0.00    +0.000 A 
ATOM     17  C   UNL     1       6.000   3.876  14.589  0.00  0.00    +0.000 A 
ATOM     18  C   UNL     1       6.785   5.012  14.637  0.00  0.00    +0.000 A 
ATOM     19 CL   UNL     1       7.895   5.374  13.380  0.00  0.00    +0.000 Cl
ATOM     20  N   UNL     1       6.792   5.886  15.662  0.00  0.00    +0.000 NA
ATOM     21  C   UNL     1       5.985   5.589  16.707  0.00  0.00    +0.000 A 
ENDBRANCH  14  15
ENDBRANCH  11  14
ENDBRANCH   1  11
BRANCH   4  22
ATOM     22  C   UNL     1       0.029   8.450  20.752  0.00  0.00    +0.000 C 
BRANCH  22  23
ATOM     23  C   UNL     1       0.072   9.979  20.858  0.00  0.00    +0.000 C 
BRANCH  23  24
ATOM     24  C   UNL     1      -0.189  10.463  22.282  0.00  0.00    +0.000 C 
BRANCH  24  25
ATOM     25  C   UNL     1      -0.659  11.892  22.297  0.00  0.00    +0.000 C 
ATOM     26  O   UNL     1      -0.354  12.757  21.490  0.00  0.00    +0.000 OA
BRANCH  25  27
ATOM     27  O   UNL     1      -1.366  12.098  23.445  0.00  0.00    +0.000 OA
BRANCH  27  28
ATOM     28  C   UNL     1      -2.281  13.191  23.373  0.00  0.00    +0.000 C 
BRANCH  28  29
ATOM     29  C   UNL     1      -3.689  12.766  23.002  0.00  0.00    +0.000 C 
BRANCH  29  30
ATOM     30  C   UNL     1      -4.676  12.954  24.144  0.00  0.00    +0.000 C 
BRANCH  30  31
ATOM     31  O   UNL     1      -4.746  11.762  24.917  0.00  0.00    +0.000 OA
ATOM     32  H   UNL     1      -4.412  11.964  25.808  0.00  0.00    +0.000 HD
ENDBRANCH  30  31
ENDBRANCH  29  30
ENDBRANCH  28  29
ENDBRANCH  27  28
ENDBRANCH  25  27
ENDBRANCH  24  25
ENDBRANCH  23  24
ENDBRANCH  22  23
ENDBRANCH   4  22
TORSDOF 14
ENDMDL
MODEL 5
REMARK VINA RESULT:      -6.0      1.643      2.478
REMARK  Name = 
REMARK  16 active torsions:
REMARK  status: ('A' for Active; 'I' for Inactive)
REMARK    1  A    between atoms: C_1  and  C_2
REMARK    2  A    between atoms: C_2  and  N_3
REMARK    3  A    between atoms: N_3  and  C_4
REMARK    4  A    between atoms: N_3  and  C_12
REMARK    5  A    between atoms: C_4  and  C_5
REMARK    6  A    between atoms: C_13  and  N_14
REMARK    7  A    between atoms: N_18  and  C_19
REMARK    8  A    between atoms: C_19  and  C_20
REMARK    9  A    between atoms: C_20  and  C_21
REMARK   10  A    between atoms: C_21  and  C_22
REMARK   11  A    between atoms: C_22  and  O_24
REMARK   12  A    between atoms: O_24  and  C_25
REMARK   13  A    between atoms: C_25  and  C_26
REMARK   14  A    between atoms: C_26  and  C_27
REMARK   15  A    between atoms: C_27  and  O_28
REMARK   16  A    between atoms: N_30  and  C_31
REMARK                            x       y       z     vdW  Elec       q    Type
REMARK                         _______ _______ _______ _____ _____    ______ ____
ROOT
ATOM      1  C   UNL     1       2.834   5.667  18.665  0.00  0.00    +0.000 C 
ATOM      2  C   UNL     1       2.183   5.634  19.863  0.00  0.00    +0.000 C 
ATOM      3  C   UNL     1       1.604   6.757  20.651  0.00  0.00    +0.000 C 
ATOM      4  N   UNL     1       1.738   8.114  20.139  0.00  0.00    +0.000 NA
ATOM      5  C   UNL     1       2.589   8.183  18.966  0.00  0.00    +0.000 C 
ATOM      6  N   UNL     1       3.027   7.008  18.191  0.00  0.00    +0.000 N 
ATOM      7  C   UNL     1       3.838   7.451  17.061  0.00  0.00    +0.000 C 
ENDROOT
BRANCH   2   8
ATOM      8  N   UNL     1       2.005   4.429  20.625  0.00  0.00    +0.000 N 
ATOM      9  O   UNL     1       3.036   3.880  21.053  0.00  0.00    +0.000 OA
ATOM     10  O   UNL     1       0.864   3.960  20.691  0.00  0.00    +0.000 OA
ENDBRANCH   2   8
BRANCH   1  11
ATOM     11  N   UNL     1       3.256   4.496  17.933  0.00  0.00    +0.000 N 
BRANCH  11  13
ATOM     12  C   UNL     1       2.629   2.056  17.908  0.00  0.00    +0.000 C 
ATOM     13  C   UNL     1       2.362   3.459  17.365  0.00  0.00    +0.000 C 
ENDBRANCH  11  13
BRANCH  11  14
ATOM     14  C   UNL     1       4.682   4.056  17.828  0.00  0.00    +0.000 C 
BRANCH  14  15
ATOM     15  C   UNL     1       5.388   4.420  16.545  0.00  0.00    +0.000 A 
ATOM     16  C   UNL     1       5.027   3.983  15.263  0.00  0.00    +0.000 A 
ATOM     17  C   UNL     1       5.847   4.267  14.169  0.00  0.00    +0.000 A 
ATOM     18  C   UNL     1       6.996   5.002  14.390  0.00  0.00    +0.000 A 
ATOM     19 CL   UNL     1       8.109   5.302  13.120  0.00  0.00    +0.000 Cl
ATOM     20  N   UNL     1       7.365   5.490  15.589  0.00  0.00    +0.000 NA
ATOM     21  C   UNL     1       6.547   5.204  16.629  0.00  0.00    +0.000 A 
ENDBRANCH  14  15
ENDBRANCH  11  14
ENDBRANCH   1  11
BRANCH   4  22
ATOM     22  C   UNL     1       0.466   8.814  19.958  0.00  0.00    +0.000 C 
BRANCH  22  23
ATOM     23  C   UNL     1       0.154   9.804  21.086  0.00  0.00    +0.000 C 
BRANCH  23  24
ATOM     24  C   UNL     1       0.374  11.252  20.657  0.00  0.00    +0.000 C 
BRANCH  24  25
ATOM     25  C   UNL     1      -0.682  11.703  19.685  0.00  0.00    +0.000 C 
ATOM     26  O   UNL     1      -1.838  11.311  19.650  0.00  0.00    +0.000 OA
BRANCH  25  27
ATOM     27  O   UNL     1      -0.094  12.510  18.758  0.00  0.00    +0.000 OA
BRANCH  27  28
ATOM     28  C   UNL     1       0.575  13.642  19.316  0.00  0.00    +0.000 C 
BRANCH  28  29
ATOM     29  C   UNL     1       1.807  14.053  18.532  0.00  0.00    +0.000 C 
BRANCH  29  30
ATOM     30  C   UNL     1       2.809  12.918  18.383  0.00  0.00    +0.000 C 
BRANCH  30  31
ATOM     31  O   UNL     1       2.566  12.222  17.165  0.00  0.00    +0.000 OA
ATOM     32  H   UNL     1       2.330  11.305  17.389  0.00  0.00    +0.000 HD
ENDBRANCH  30  31
ENDBRANCH  29  30
ENDBRANCH  28  29
ENDBRANCH  27  28
ENDBRANCH  25  27
ENDBRANCH  24  25
ENDBRANCH  23  24
ENDBRANCH  22  23
ENDBRANCH   4  22
TORSDOF 14
ENDMDL
MODEL 6
REMARK VINA RESULT:      -5.9      2.392      2.984
REMARK  Name = 
REMARK  16 active torsions:
REMARK  status: ('A' for Active; 'I' for Inactive)
REMARK    1  A    between atoms: C_1  and  C_2
REMARK    2  A    between atoms: C_2  and  N_3
REMARK    3  A    between atoms: N_3  and  C_4
REMARK    4  A    between atoms: N_3  and  C_12
REMARK    5  A    between atoms: C_4  and  C_5
REMARK    6  A    between atoms: C_13  and  N_14
REMARK    7  A    between atoms: N_18  and  C_19
REMARK    8  A    between atoms: C_19  and  C_20
REMARK    9  A    between atoms: C_20  and  C_21
REMARK   10  A    between atoms: C_21  and  C_22
REMARK   11  A    between atoms: C_22  and  O_24
REMARK   12  A    between atoms: O_24  and  C_25
REMARK   13  A    between atoms: C_25  and  C_26
REMARK   14  A    between atoms: C_26  and  C_27
REMARK   15  A    between atoms: C_27  and  O_28
REMARK   16  A    between atoms: N_30  and  C_31
REMARK                            x       y       z     vdW  Elec       q    Type
REMARK                         _______ _______ _______ _____ _____    ______ ____
ROOT
ATOM      1  C   UNL     1       2.794   5.345  18.915  0.00  0.00    +0.000 C 
ATOM      2  C   UNL     1       2.143   5.066  20.081  0.00  0.00    +0.000 C 
ATOM      3  C   UNL     1       1.467   5.996  21.026  0.00  0.00    +0.000 C 
ATOM      4  N   UNL     1       1.485   7.423  20.739  0.00  0.00    +0.000 NA
ATOM      5  C   UNL     1       2.331   7.750  19.608  0.00  0.00    +0.000 C 
ATOM      6  N   UNL     1       2.872   6.756  18.664  0.00  0.00    +0.000 N 
ATOM      7  C   UNL     1       3.647   7.441  17.633  0.00  0.00    +0.000 C 
ENDROOT
BRANCH   2   8
ATOM      8  N   UNL     1       2.068   3.744  20.638  0.00  0.00    +0.000 N 
ATOM      9  O   UNL     1       0.946   3.205  20.650  0.00  0.00    +0.000 OA
ATOM     10  O   UNL     1       3.084   3.293  21.176  0.00  0.00    +0.000 OA
ENDBRANCH   2   8
BRANCH   1  11
ATOM     11  N   UNL     1       3.319   4.346  18.014  0.00  0.00    +0.000 N 
BRANCH  11  13
ATOM     12  C   UNL     1       2.690   1.929  17.685  0.00  0.00    +0.000 C 
ATOM     13  C   UNL     1       2.517   3.378  17.230  0.00  0.00    +0.000 C 
ENDBRANCH  11  13
BRANCH  11  14
ATOM     14  C   UNL     1       4.773   4.012  17.906  0.00  0.00    +0.000 C 
BRANCH  14  15
ATOM     15  C   UNL     1       5.440   4.392  16.607  0.00  0.00    +0.000 A 
ATOM     16  C   UNL     1       5.073   3.929  15.336  0.00  0.00    +0.000 A 
ATOM     17  C   UNL     1       5.860   4.236  14.224  0.00  0.00    +0.000 A 
ATOM     18  C   UNL     1       6.982   5.018  14.417  0.00  0.00    +0.000 A 
ATOM     19 CL   UNL     1       8.059   5.351  13.124  0.00  0.00    +0.000 Cl
ATOM     20  N   UNL     1       7.354   5.531  15.605  0.00  0.00    +0.000 NA
ATOM     21  C   UNL     1       6.568   5.223  16.662  0.00  0.00    +0.000 A 
ENDBRANCH  14  15
ENDBRANCH  11  14
ENDBRANCH   1  11
BRANCH   4  22
ATOM     22  C   UNL     1       0.158   8.032  20.650  0.00  0.00    +0.000 C 
BRANCH  22  23
ATOM     23  C   UNL     1      -0.375   8.525  22.000  0.00  0.00    +0.000 C 
BRANCH  23  24
ATOM     24  C   UNL     1       0.380   9.752  22.504  0.00  0.00    +0.000 C 
BRANCH  24  25
ATOM     25  C   UNL     1      -0.390  11.017  22.238  0.00  0.00    +0.000 C 
ATOM     26  O   UNL     1      -0.300  11.715  21.239  0.00  0.00    +0.000 OA
BRANCH  25  27
ATOM     27  O   UNL     1      -1.094  11.333  23.361  0.00  0.00    +0.000 OA
BRANCH  27  28
ATOM     28  C   UNL     1      -2.335  11.990  23.101  0.00  0.00    +0.000 C 
BRANCH  28  29
ATOM     29  C   UNL     1      -2.339  13.446  23.529  0.00  0.00    +0.000 C 
BRANCH  29  30
ATOM     30  C   UNL     1      -3.371  14.272  22.778  0.00  0.00    +0.000 C 
BRANCH  30  31
ATOM     31  O   UNL     1      -2.719  15.309  22.053  0.00  0.00    +0.000 OA
ATOM     32  H   UNL     1      -2.139  15.786  22.672  0.00  0.00    +0.000 HD
ENDBRANCH  30  31
ENDBRANCH  29  30
ENDBRANCH  28  29
ENDBRANCH  27  28
ENDBRANCH  25  27
ENDBRANCH  24  25
ENDBRANCH  23  24
ENDBRANCH  22  23
ENDBRANCH   4  22
TORSDOF 14
ENDMDL
MODEL 7
REMARK VINA RESULT:      -5.9      4.306      7.962
REMARK  Name = 
REMARK  16 active torsions:
REMARK  status: ('A' for Active; 'I' for Inactive)
REMARK    1  A    between atoms: C_1  and  C_2
REMARK    2  A    between atoms: C_2  and  N_3
REMARK    3  A    between atoms: N_3  and  C_4
REMARK    4  A    between atoms: N_3  and  C_12
REMARK    5  A    between atoms: C_4  and  C_5
REMARK    6  A    between atoms: C_13  and  N_14
REMARK    7  A    between atoms: N_18  and  C_19
REMARK    8  A    between atoms: C_19  and  C_20
REMARK    9  A    between atoms: C_20  and  C_21
REMARK   10  A    between atoms: C_21  and  C_22
REMARK   11  A    between atoms: C_22  and  O_24
REMARK   12  A    between atoms: O_24  and  C_25
REMARK   13  A    between atoms: C_25  and  C_26
REMARK   14  A    between atoms: C_26  and  C_27
REMARK   15  A    between atoms: C_27  and  O_28
REMARK   16  A    between atoms: N_30  and  C_31
REMARK                            x       y       z     vdW  Elec       q    Type
REMARK                         _______ _______ _______ _____ _____    ______ ____
ROOT
ATOM      1  C   UNL     1       3.483   5.084  17.892  0.00  0.00    +0.000 C 
ATOM      2  C   UNL     1       3.809   3.824  17.481  0.00  0.00    +0.000 C 
ATOM      3  C   UNL     1       4.760   3.398  16.418  0.00  0.00    +0.000 C 
ATOM      4  N   UNL     1       5.460   4.420  15.653  0.00  0.00    +0.000 NA
ATOM      5  C   UNL     1       4.984   5.758  15.949  0.00  0.00    +0.000 C 
ATOM      6  N   UNL     1       4.120   6.094  17.095  0.00  0.00    +0.000 N 
ATOM      7  C   UNL     1       3.870   7.533  17.105  0.00  0.00    +0.000 C 
ENDROOT
BRANCH   2   8
ATOM      8  N   UNL     1       3.186   2.643  18.010  0.00  0.00    +0.000 N 
ATOM      9  O   UNL     1       3.736   2.110  18.990  0.00  0.00    +0.000 OA
ATOM     10  O   UNL     1       2.232   2.172  17.382  0.00  0.00    +0.000 OA
ENDBRANCH   2   8
BRANCH   1  11
ATOM     11  N   UNL     1       2.627   5.379  19.016  0.00  0.00    +0.000 N 
BRANCH  11  13
ATOM     12  C   UNL     1       1.138   4.021  20.527  0.00  0.00    +0.000 C 
ATOM     13  C   UNL     1       1.268   4.832  19.238  0.00  0.00    +0.000 C 
ENDBRANCH  11  13
BRANCH  11  14
ATOM     14  C   UNL     1       2.916   6.454  20.016  0.00  0.00    +0.000 C 
BRANCH  14  15
ATOM     15  C   UNL     1       1.922   7.589  20.066  0.00  0.00    +0.000 A 
ATOM     16  C   UNL     1       1.685   8.510  19.038  0.00  0.00    +0.000 A 
ATOM     17  C   UNL     1       0.849   9.606  19.258  0.00  0.00    +0.000 A 
ATOM     18  C   UNL     1       0.257   9.734  20.500  0.00  0.00    +0.000 A 
ATOM     19 CL   UNL     1      -0.698  11.106  20.886  0.00  0.00    +0.000 Cl
ATOM     20  N   UNL     1       0.409   8.853  21.507  0.00  0.00    +0.000 NA
ATOM     21  C   UNL     1       1.220   7.799  21.261  0.00  0.00    +0.000 A 
ENDBRANCH  14  15
ENDBRANCH  11  14
ENDBRANCH   1  11
BRANCH   4  22
ATOM     22  C   UNL     1       6.918   4.313  15.703  0.00  0.00    +0.000 C 
BRANCH  22  23
ATOM     23  C   UNL     1       7.498   4.592  17.094  0.00  0.00    +0.000 C 
BRANCH  23  24
ATOM     24  C   UNL     1       7.605   6.088  17.383  0.00  0.00    +0.000 C 
BRANCH  24  25
ATOM     25  C   UNL     1       7.970   6.344  18.819  0.00  0.00    +0.000 C 
ATOM     26  O   UNL     1       7.690   5.629  19.770  0.00  0.00    +0.000 OA
BRANCH  25  27
ATOM     27  O   UNL     1       8.537   7.581  18.902  0.00  0.00    +0.000 OA
BRANCH  27  28
ATOM     28  C   UNL     1       8.006   8.525  17.973  0.00  0.00    +0.000 C 
BRANCH  28  29
ATOM     29  C   UNL     1       8.676   9.884  18.054  0.00  0.00    +0.000 C 
BRANCH  29  30
ATOM     30  C   UNL     1       9.257  10.166  19.431  0.00  0.00    +0.000 C 
BRANCH  30  31
ATOM     31  O   UNL     1      10.377  11.036  19.309  0.00  0.00    +0.000 OA
ATOM     32  H   UNL     1      11.076  10.557  18.833  0.00  0.00    +0.000 HD
ENDBRANCH  30  31
ENDBRANCH  29  30
ENDBRANCH  28  29
ENDBRANCH  27  28
ENDBRANCH  25  27
ENDBRANCH  24  25
ENDBRANCH  23  24
ENDBRANCH  22  23
ENDBRANCH   4  22
TORSDOF 14
ENDMDL
MODEL 8
REMARK VINA RESULT:      -5.9      4.094      9.077
REMARK  Name = 
REMARK  16 active torsions:
REMARK  status: ('A' for Active; 'I' for Inactive)
REMARK    1  A    between atoms: C_1  and  C_2
REMARK    2  A    between atoms: C_2  and  N_3
REMARK    3  A    between atoms: N_3  and  C_4
REMARK    4  A    between atoms: N_3  and  C_12
REMARK    5  A    between atoms: C_4  and  C_5
REMARK    6  A    between atoms: C_13  and  N_14
REMARK    7  A    between atoms: N_18  and  C_19
REMARK    8  A    between atoms: C_19  and  C_20
REMARK    9  A    between atoms: C_20  and  C_21
REMARK   10  A    between atoms: C_21  and  C_22
REMARK   11  A    between atoms: C_22  and  O_24
REMARK   12  A    between atoms: O_24  and  C_25
REMARK   13  A    between atoms: C_25  and  C_26
REMARK   14  A    between atoms: C_26  and  C_27
REMARK   15  A    between atoms: C_27  and  O_28
REMARK   16  A    between atoms: N_30  and  C_31
REMARK                            x       y       z     vdW  Elec       q    Type
REMARK                         _______ _______ _______ _____ _____    ______ ____
ROOT
ATOM      1  C   UNL     1      -0.119  11.215  20.572  0.00  0.00    +0.000 C 
ATOM      2  C   UNL     1       0.458  10.077  21.055  0.00  0.00    +0.000 C 
ATOM      3  C   UNL     1       1.071   8.943  20.308  0.00  0.00    +0.000 C 
ATOM      4  N   UNL     1       1.066   8.978  18.853  0.00  0.00    +0.000 NA
ATOM      5  C   UNL     1       0.292  10.086  18.327  0.00  0.00    +0.000 C 
ATOM      6  N   UNL     1      -0.185  11.221  19.138  0.00  0.00    +0.000 N 
ATOM      7  C   UNL     1      -0.896  12.164  18.279  0.00  0.00    +0.000 C 
ENDROOT
BRANCH   2   8
ATOM      8  N   UNL     1       0.503   9.754  22.454  0.00  0.00    +0.000 N 
ATOM      9  O   UNL     1       1.627   9.549  22.945  0.00  0.00    +0.000 OA
ATOM     10  O   UNL     1      -0.574   9.579  23.033  0.00  0.00    +0.000 OA
ENDBRANCH   2   8
BRANCH   1  11
ATOM     11  N   UNL     1      -0.583  12.306  21.395  0.00  0.00    +0.000 N 
BRANCH  11  13
ATOM     12  C   UNL     1      -2.253  12.659  23.248  0.00  0.00    +0.000 C 
ATOM     13  C   UNL     1      -1.994  12.591  21.744  0.00  0.00    +0.000 C 
ENDBRANCH  11  13
BRANCH  11  14
ATOM     14  C   UNL     1       0.293  13.433  21.844  0.00  0.00    +0.000 C 
BRANCH  14  15
ATOM     15  C   UNL     1       1.057  14.146  20.754  0.00  0.00    +0.000 A 
ATOM     16  C   UNL     1       0.547  15.158  19.930  0.00  0.00    +0.000 A 
ATOM     17  C   UNL     1       1.304  15.636  18.859  0.00  0.00    +0.000 A 
ATOM     18  C   UNL     1       2.561  15.099  18.658  0.00  0.00    +0.000 A 
ATOM     19 CL   UNL     1       3.509  15.554  17.303  0.00  0.00    +0.000 Cl
ATOM     20  N   UNL     1       3.120  14.162  19.447  0.00  0.00    +0.000 NA
ATOM     21  C   UNL     1       2.365  13.723  20.481  0.00  0.00    +0.000 A 
ENDBRANCH  14  15
ENDBRANCH  11  14
ENDBRANCH   1  11
BRANCH   4  22
ATOM     22  C   UNL     1       2.394   8.877  18.248  0.00  0.00    +0.000 C 
BRANCH  22  23
ATOM     23  C   UNL     1       2.711   7.476  17.713  0.00  0.00    +0.000 C 
BRANCH  23  24
ATOM     24  C   UNL     1       3.345   6.584  18.777  0.00  0.00    +0.000 C 
BRANCH  24  25
ATOM     25  C   UNL     1       4.146   5.473  18.155  0.00  0.00    +0.000 C 
ATOM     26  O   UNL     1       3.847   4.288  18.152  0.00  0.00    +0.000 OA
BRANCH  25  27
ATOM     27  O   UNL     1       5.332   5.989  17.725  0.00  0.00    +0.000 OA
BRANCH  27  28
ATOM     28  C   UNL     1       6.461   5.555  18.483  0.00  0.00    +0.000 C 
BRANCH  28  29
ATOM     29  C   UNL     1       7.431   4.711  17.678  0.00  0.00    +0.000 C 
BRANCH  29  30
ATOM     30  C   UNL     1       7.009   4.563  16.225  0.00  0.00    +0.000 C 
BRANCH  30  31
ATOM     31  O   UNL     1       6.064   3.505  16.107  0.00  0.00    +0.000 OA
ATOM     32  H   UNL     1       6.549   2.698  15.863  0.00  0.00    +0.000 HD
ENDBRANCH  30  31
ENDBRANCH  29  30
ENDBRANCH  28  29
ENDBRANCH  27  28
ENDBRANCH  25  27
ENDBRANCH  24  25
ENDBRANCH  23  24
ENDBRANCH  22  23
ENDBRANCH   4  22
TORSDOF 14
ENDMDL
MODEL 9
REMARK VINA RESULT:      -5.9      2.882      3.544
REMARK  Name = 
REMARK  16 active torsions:
REMARK  status: ('A' for Active; 'I' for Inactive)
REMARK    1  A    between atoms: C_1  and  C_2
REMARK    2  A    between atoms: C_2  and  N_3
REMARK    3  A    between atoms: N_3  and  C_4
REMARK    4  A    between atoms: N_3  and  C_12
REMARK    5  A    between atoms: C_4  and  C_5
REMARK    6  A    between atoms: C_13  and  N_14
REMARK    7  A    between atoms: N_18  and  C_19
REMARK    8  A    between atoms: C_19  and  C_20
REMARK    9  A    between atoms: C_20  and  C_21
REMARK   10  A    between atoms: C_21  and  C_22
REMARK   11  A    between atoms: C_22  and  O_24
REMARK   12  A    between atoms: O_24  and  C_25
REMARK   13  A    between atoms: C_25  and  C_26
REMARK   14  A    between atoms: C_26  and  C_27
REMARK   15  A    between atoms: C_27  and  O_28
REMARK   16  A    between atoms: N_30  and  C_31
REMARK                            x       y       z     vdW  Elec       q    Type
REMARK                         _______ _______ _______ _____ _____    ______ ____
ROOT
ATOM      1  C   UNL     1       2.788   5.248  18.886  0.00  0.00    +0.000 C 
ATOM      2  C   UNL     1       2.298   5.000  20.135  0.00  0.00    +0.000 C 
ATOM      3  C   UNL     1       1.751   5.956  21.137  0.00  0.00    +0.000 C 
ATOM      4  N   UNL     1       1.729   7.375  20.813  0.00  0.00    +0.000 NA
ATOM      5  C   UNL     1       2.417   7.672  19.571  0.00  0.00    +0.000 C 
ATOM      6  N   UNL     1       2.829   6.652  18.590  0.00  0.00    +0.000 N 
ATOM      7  C   UNL     1       3.459   7.308  17.448  0.00  0.00    +0.000 C 
ENDROOT
BRANCH   2   8
ATOM      8  N   UNL     1       2.299   3.694  20.732  0.00  0.00    +0.000 N 
ATOM      9  O   UNL     1       1.196   3.236  21.079  0.00  0.00    +0.000 OA
ATOM     10  O   UNL     1       3.396   3.178  20.972  0.00  0.00    +0.000 OA
ENDBRANCH   2   8
BRANCH   1  11
ATOM     11  N   UNL     1       3.190   4.225  17.950  0.00  0.00    +0.000 N 
BRANCH  11  13
ATOM     12  C   UNL     1       2.165   1.944  17.650  0.00  0.00    +0.000 C 
ATOM     13  C   UNL     1       2.278   3.381  17.143  0.00  0.00    +0.000 C 
ENDBRANCH  11  13
BRANCH  11  14
ATOM     14  C   UNL     1       4.596   3.730  17.820  0.00  0.00    +0.000 C 
BRANCH  14  15
ATOM     15  C   UNL     1       5.671   4.788  17.859  0.00  0.00    +0.000 A 
ATOM     16  C   UNL     1       6.393   5.176  18.996  0.00  0.00    +0.000 A 
ATOM     17  C   UNL     1       7.257   6.270  18.937  0.00  0.00    +0.000 A 
ATOM     18  C   UNL     1       7.389   6.933  17.732  0.00  0.00    +0.000 A 
ATOM     19 CL   UNL     1       8.347   8.349  17.603  0.00  0.00    +0.000 Cl
ATOM     20  N   UNL     1       6.760   6.573  16.597  0.00  0.00    +0.000 NA
ATOM     21  C   UNL     1       5.934   5.505  16.683  0.00  0.00    +0.000 A 
ENDBRANCH  14  15
ENDBRANCH  11  14
ENDBRANCH   1  11
BRANCH   4  22
ATOM     22  C   UNL     1       0.401   7.985  20.885  0.00  0.00    +0.000 C 
BRANCH  22  23
ATOM     23  C   UNL     1       0.428   9.513  20.764  0.00  0.00    +0.000 C 
BRANCH  23  24
ATOM     24  C   UNL     1      -0.808  10.160  21.383  0.00  0.00    +0.000 C 
BRANCH  24  25
ATOM     25  C   UNL     1      -0.617  10.412  22.854  0.00  0.00    +0.000 C 
ATOM     26  O   UNL     1       0.222   9.884  23.569  0.00  0.00    +0.000 OA
BRANCH  25  27
ATOM     27  O   UNL     1      -1.629  11.215  23.286  0.00  0.00    +0.000 OA
BRANCH  27  28
ATOM     28  C   UNL     1      -1.365  12.611  23.138  0.00  0.00    +0.000 C 
BRANCH  28  29
ATOM     29  C   UNL     1      -2.624  13.455  23.097  0.00  0.00    +0.000 C 
BRANCH  29  30
ATOM     30  C   UNL     1      -3.890  12.613  23.048  0.00  0.00    +0.000 C 
BRANCH  30  31
ATOM     31  O   UNL     1      -4.133  12.038  24.327  0.00  0.00    +0.000 OA
ATOM     32  H   UNL     1      -3.628  11.208  24.380  0.00  0.00    +0.000 HD
ENDBRANCH  30  31
ENDBRANCH  29  30
ENDBRANCH  28  29
ENDBRANCH  27  28
ENDBRANCH  25  27
ENDBRANCH  24  25
ENDBRANCH  23  24
ENDBRANCH  22  23
ENDBRANCH   4  22
TORSDOF 14
ENDMDL
