MODEL 1
REMARK VINA RESULT:      -6.7      0.000      0.000
REMARK  Name = 
REMARK  24 active torsions:
REMARK  status: ('A' for Active; 'I' for Inactive)
REMARK    1  A    between atoms: C_1  and  C_2
REMARK    2  A    between atoms: C_2  and  C_3
REMARK    3  A    between atoms: C_3  and  C_4
REMARK    4  A    between atoms: C_4  and  C_5
REMARK    5  A    between atoms: C_5  and  C_6
REMARK    6  A    between atoms: C_6  and  C_7
REMARK    7  A    between atoms: C_7  and  C_8
REMARK    8  A    between atoms: C_8  and  C_9
REMARK    9  A    between atoms: N_11  and  C_12
REMARK   10  A    between atoms: C_12  and  C_13
REMARK   11  A    between atoms: C_16  and  O_17
REMARK   12  A    between atoms: O_17  and  C_18
REMARK   13  A    between atoms: C_18  and  C_19
REMARK   14  A    between atoms: C_19  and  O_20
REMARK   15  A    between atoms: C_19  and  C_21
REMARK   16  A    between atoms: C_21  and  N_22
REMARK   17  A    between atoms: N_22  and  C_23
REMARK   18  A    between atoms: C_23  and  C_24
REMARK   19  A    between atoms: C_24  and  C_25
REMARK   20  A    between atoms: C_25  and  C_26
REMARK   21  A    between atoms: C_26  and  C_27
REMARK   22  A    between atoms: C_27  and  C_28
REMARK   23  A    between atoms: C_29  and  O_30
REMARK   24  A    between atoms: O_30  and  C_31
REMARK                            x       y       z     vdW  Elec       q    Type
REMARK                         _______ _______ _______ _____ _____    ______ ____
ROOT
ATOM      1  C   UNL     1       1.716   6.775  20.294  0.00  0.00    +0.000 A 
ATOM      2  C   UNL     1       2.279   6.996  19.047  0.00  0.00    +0.000 A 
ATOM      3  C   UNL     1       2.512   5.919  18.200  0.00  0.00    +0.000 A 
ATOM      4  C   UNL     1       2.231   4.596  18.576  0.00  0.00    +0.000 A 
ATOM      5  C   UNL     1       1.666   4.360  19.854  0.00  0.00    +0.000 A 
ATOM      6  C   UNL     1       1.429   5.460  20.691  0.00  0.00    +0.000 A 
ENDROOT
BRANCH   5   7
ATOM      7  O   UNL     1       1.359   3.067  20.211  0.00  0.00    +0.000 OA
ATOM      8  C   UNL     1       1.560   2.717  21.587  0.00  0.00    +0.000 C 
ENDBRANCH   5   7
BRANCH   4   9
ATOM      9  O   UNL     1       2.502   3.534  17.736  0.00  0.00    +0.000 OA
BRANCH   9  10
ATOM     10  C   UNL     1       3.888   3.129  17.735  0.00  0.00    +0.000 C 
BRANCH  10  11
ATOM     11  C   UNL     1       4.594   3.503  19.034  0.00  0.00    +0.000 C 
BRANCH  11  12
ATOM     12  O   UNL     1       4.985   2.327  19.745  0.00  0.00    +0.000 OA
ATOM     13  H   UNL     1       5.772   2.577  20.264  0.00  0.00    +0.000 HD
ENDBRANCH  11  12
BRANCH  11  14
ATOM     14  C   UNL     1       5.819   4.379  18.758  0.00  0.00    +0.000 C 
BRANCH  14  15
ATOM     15  N   UNL     1       6.291   4.206  17.384  0.00  0.00    +0.000 NA
ATOM     16  H   UNL     1       5.809   3.428  16.937  0.00  0.00    +0.000 HD
BRANCH  15  17
ATOM     17  C   UNL     1       6.084   5.426  16.620  0.00  0.00    +0.000 C 
BRANCH  17  18
ATOM     18  C   UNL     1       6.927   5.361  15.354  0.00  0.00    +0.000 C 
BRANCH  18  19
ATOM     19  C   UNL     1       6.622   4.076  14.595  0.00  0.00    +0.000 C 
BRANCH  19  20
ATOM     20  C   UNL     1       5.305   4.197  13.843  0.00  0.00    +0.000 C 
BRANCH  20  21
ATOM     21  C   UNL     1       5.389   3.490  12.495  0.00  0.00    +0.000 C 
ATOM     22  C   UNL     1       6.810   3.515  11.966  0.00  0.00    +0.000 C 
ENDBRANCH  20  21
ENDBRANCH  19  20
ENDBRANCH  18  19
ENDBRANCH  17  18
ENDBRANCH  15  17
ENDBRANCH  14  15
ENDBRANCH  11  14
ENDBRANCH  10  11
ENDBRANCH   9  10
ENDBRANCH   4   9
BRANCH   1  23
ATOM     23  C   UNL     1       1.349   7.936  21.171  0.00  0.00    +0.000 C 
BRANCH  23  26
ATOM     24  C   UNL     1       0.917  10.335  21.018  0.00  0.00    +0.000 C 
ATOM     25  O   UNL     1       0.720  10.416  22.236  0.00  0.00    +0.000 OA
ATOM     26  N   UNL     1       1.254   9.156  20.402  0.00  0.00    +0.000 N 
ATOM     27  H   UNL     1       1.448   9.129  19.411  0.00  0.00    +0.000 HD
BRANCH  24  28
ATOM     28  C   UNL     1       0.809  11.536  20.108  0.00  0.00    +0.000 C 
BRANCH  28  29
ATOM     29  C   UNL     1       0.189  11.153  18.772  0.00  0.00    +0.000 C 
BRANCH  29  30
ATOM     30  C   UNL     1      -0.927  12.106  18.368  0.00  0.00    +0.000 C 
BRANCH  30  31
ATOM     31  C   UNL     1      -2.285  11.448  18.598  0.00  0.00    +0.000 C 
BRANCH  31  32
ATOM     32  C   UNL     1      -2.376  10.122  17.855  0.00  0.00    +0.000 C 
BRANCH  32  33
ATOM     33  C   UNL     1      -3.538  10.137  16.870  0.00  0.00    +0.000 C 
BRANCH  33  35
ATOM     34  C   UNL     1      -2.978  10.001  14.434  0.00  0.00    +0.000 C 
ATOM     35  C   UNL     1      -3.178  10.928  15.618  0.00  0.00    +0.000 C 
ENDBRANCH  33  35
ENDBRANCH  32  33
ENDBRANCH  31  32
ENDBRANCH  30  31
ENDBRANCH  29  30
ENDBRANCH  28  29
ENDBRANCH  24  28
ENDBRANCH  23  26
ENDBRANCH   1  23
TORSDOF 21
ENDMDL
MODEL 2
REMARK VINA RESULT:      -6.6      2.918      4.087
REMARK  Name = 
REMARK  24 active torsions:
REMARK  status: ('A' for Active; 'I' for Inactive)
REMARK    1  A    between atoms: C_1  and  C_2
REMARK    2  A    between atoms: C_2  and  C_3
REMARK    3  A    between atoms: C_3  and  C_4
REMARK    4  A    between atoms: C_4  and  C_5
REMARK    5  A    between atoms: C_5  and  C_6
REMARK    6  A    between atoms: C_6  and  C_7
REMARK    7  A    between atoms: C_7  and  C_8
REMARK    8  A    between atoms: C_8  and  C_9
REMARK    9  A    between atoms: N_11  and  C_12
REMARK   10  A    between atoms: C_12  and  C_13
REMARK   11  A    between atoms: C_16  and  O_17
REMARK   12  A    between atoms: O_17  and  C_18
REMARK   13  A    between atoms: C_18  and  C_19
REMARK   14  A    between atoms: C_19  and  O_20
REMARK   15  A    between atoms: C_19  and  C_21
REMARK   16  A    between atoms: C_21  and  N_22
REMARK   17  A    between atoms: N_22  and  C_23
REMARK   18  A    between atoms: C_23  and  C_24
REMARK   19  A    between atoms: C_24  and  C_25
REMARK   20  A    between atoms: C_25  and  C_26
REMARK   21  A    between atoms: C_26  and  C_27
REMARK   22  A    between atoms: C_27  and  C_28
REMARK   23  A    between atoms: C_29  and  O_30
REMARK   24  A    between atoms: O_30  and  C_31
REMARK                            x       y       z     vdW  Elec       q    Type
REMARK                         _______ _______ _______ _____ _____    ______ ____
ROOT
ATOM      1  C   UNL     1       2.209   6.980  19.839  0.00  0.00    +0.000 A 
ATOM      2  C   UNL     1       2.793   7.431  18.665  0.00  0.00    +0.000 A 
ATOM      3  C   UNL     1       3.245   6.510  17.728  0.00  0.00    +0.000 A 
ATOM      4  C   UNL     1       3.169   5.125  17.942  0.00  0.00    +0.000 A 
ATOM      5  C   UNL     1       2.586   4.656  19.144  0.00  0.00    +0.000 A 
ATOM      6  C   UNL     1       2.124   5.600  20.074  0.00  0.00    +0.000 A 
ENDROOT
BRANCH   5   7
ATOM      7  O   UNL     1       2.479   3.298  19.341  0.00  0.00    +0.000 OA
ATOM      8  C   UNL     1       3.218   2.749  20.441  0.00  0.00    +0.000 C 
ENDBRANCH   5   7
BRANCH   4   9
ATOM      9  O   UNL     1       3.658   4.224  17.016  0.00  0.00    +0.000 OA
BRANCH   9  10
ATOM     10  C   UNL     1       5.018   3.810  17.265  0.00  0.00    +0.000 C 
BRANCH  10  11
ATOM     11  C   UNL     1       5.929   4.091  16.075  0.00  0.00    +0.000 C 
BRANCH  11  12
ATOM     12  O   UNL     1       5.317   5.030  15.189  0.00  0.00    +0.000 OA
ATOM     13  H   UNL     1       4.414   5.169  15.529  0.00  0.00    +0.000 HD
ENDBRANCH  11  12
BRANCH  11  14
ATOM     14  C   UNL     1       7.289   4.619  16.540  0.00  0.00    +0.000 C 
BRANCH  14  15
ATOM     15  N   UNL     1       7.369   6.072  16.388  0.00  0.00    +0.000 NA
ATOM     16  H   UNL     1       6.563   6.422  15.871  0.00  0.00    +0.000 HD
BRANCH  15  17
ATOM     17  C   UNL     1       7.443   6.714  17.690  0.00  0.00    +0.000 C 
BRANCH  17  18
ATOM     18  C   UNL     1       7.647   8.209  17.491  0.00  0.00    +0.000 C 
BRANCH  18  19
ATOM     19  C   UNL     1       8.523   8.764  18.607  0.00  0.00    +0.000 C 
BRANCH  19  20
ATOM     20  C   UNL     1       8.949  10.191  18.295  0.00  0.00    +0.000 C 
BRANCH  20  21
ATOM     21  C   UNL     1       9.647  10.818  19.496  0.00  0.00    +0.000 C 
ATOM     22  C   UNL     1      10.360  12.095  19.093  0.00  0.00    +0.000 C 
ENDBRANCH  20  21
ENDBRANCH  19  20
ENDBRANCH  18  19
ENDBRANCH  17  18
ENDBRANCH  15  17
ENDBRANCH  14  15
ENDBRANCH  11  14
ENDBRANCH  10  11
ENDBRANCH   9  10
ENDBRANCH   4   9
BRANCH   1  23
ATOM     23  C   UNL     1       1.609   7.959  20.804  0.00  0.00    +0.000 C 
BRANCH  23  26
ATOM     24  C   UNL     1      -0.217   9.573  20.635  0.00  0.00    +0.000 C 
ATOM     25  O   UNL     1      -0.681   9.222  21.725  0.00  0.00    +0.000 OA
ATOM     26  N   UNL     1       0.924   9.022  20.106  0.00  0.00    +0.000 N 
ATOM     27  H   UNL     1       1.301   9.359  19.231  0.00  0.00    +0.000 HD
BRANCH  24  28
ATOM     28  C   UNL     1      -0.868  10.650  19.798  0.00  0.00    +0.000 C 
BRANCH  28  29
ATOM     29  C   UNL     1      -0.378  10.591  18.358  0.00  0.00    +0.000 C 
BRANCH  29  30
ATOM     30  C   UNL     1      -1.410   9.966  17.430  0.00  0.00    +0.000 C 
BRANCH  30  31
ATOM     31  C   UNL     1      -2.812  10.159  18.003  0.00  0.00    +0.000 C 
BRANCH  31  32
ATOM     32  C   UNL     1      -3.738  10.781  16.968  0.00  0.00    +0.000 C 
BRANCH  32  33
ATOM     33  C   UNL     1      -4.713  11.746  17.631  0.00  0.00    +0.000 C 
BRANCH  33  35
ATOM     34  C   UNL     1      -6.641  11.761  19.227  0.00  0.00    +0.000 C 
ATOM     35  C   UNL     1      -5.973  11.019  18.085  0.00  0.00    +0.000 C 
ENDBRANCH  33  35
ENDBRANCH  32  33
ENDBRANCH  31  32
ENDBRANCH  30  31
ENDBRANCH  29  30
ENDBRANCH  28  29
ENDBRANCH  24  28
ENDBRANCH  23  26
ENDBRANCH   1  23
TORSDOF 21
ENDMDL
MODEL 3
REMARK VINA RESULT:      -6.5      1.942      3.052
REMARK  Name = 
REMARK  24 active torsions:
REMARK  status: ('A' for Active; 'I' for Inactive)
REMARK    1  A    between atoms: C_1  and  C_2
REMARK    2  A    between atoms: C_2  and  C_3
REMARK    3  A    between atoms: C_3  and  C_4
REMARK    4  A    between atoms: C_4  and  C_5
REMARK    5  A    between atoms: C_5  and  C_6
REMARK    6  A    between atoms: C_6  and  C_7
REMARK    7  A    between atoms: C_7  and  C_8
REMARK    8  A    between atoms: C_8  and  C_9
REMARK    9  A    between atoms: N_11  and  C_12
REMARK   10  A    between atoms: C_12  and  C_13
REMARK   11  A    between atoms: C_16  and  O_17
REMARK   12  A    between atoms: O_17  and  C_18
REMARK   13  A    between atoms: C_18  and  C_19
REMARK   14  A    between atoms: C_19  and  O_20
REMARK   15  A    between atoms: C_19  and  C_21
REMARK   16  A    between atoms: C_21  and  N_22
REMARK   17  A    between atoms: N_22  and  C_23
REMARK   18  A    between atoms: C_23  and  C_24
REMARK   19  A    between atoms: C_24  and  C_25
REMARK   20  A    between atoms: C_25  and  C_26
REMARK   21  A    between atoms: C_26  and  C_27
REMARK   22  A    between atoms: C_27  and  C_28
REMARK   23  A    between atoms: C_29  and  O_30
REMARK   24  A    between atoms: O_30  and  C_31
REMARK                            x       y       z     vdW  Elec       q    Type
REMARK                         _______ _______ _______ _____ _____    ______ ____
ROOT
ATOM      1  C   UNL     1       1.933   6.715  20.106  0.00  0.00    +0.000 A 
ATOM      2  C   UNL     1       2.373   6.739  18.792  0.00  0.00    +0.000 A 
ATOM      3  C   UNL     1       2.286   5.588  18.019  0.00  0.00    +0.000 A 
ATOM      4  C   UNL     1       1.800   4.376  18.533  0.00  0.00    +0.000 A 
ATOM      5  C   UNL     1       1.359   4.339  19.879  0.00  0.00    +0.000 A 
ATOM      6  C   UNL     1       1.444   5.514  20.641  0.00  0.00    +0.000 A 
ENDROOT
BRANCH   5   7
ATOM      7  O   UNL     1       0.850   3.160  20.375  0.00  0.00    +0.000 OA
ATOM      8  C   UNL     1       1.446   2.661  21.581  0.00  0.00    +0.000 C 
ENDBRANCH   5   7
BRANCH   4   9
ATOM      9  O   UNL     1       1.755   3.231  17.762  0.00  0.00    +0.000 OA
BRANCH   9  10
ATOM     10  C   UNL     1       3.050   2.646  17.508  0.00  0.00    +0.000 C 
BRANCH  10  11
ATOM     11  C   UNL     1       3.551   1.828  18.694  0.00  0.00    +0.000 C 
BRANCH  11  12
ATOM     12  O   UNL     1       4.139   0.606  18.244  0.00  0.00    +0.000 OA
ATOM     13  H   UNL     1       3.444  -0.072  18.328  0.00  0.00    +0.000 HD
ENDBRANCH  11  12
BRANCH  11  14
ATOM     14  C   UNL     1       4.564   2.626  19.518  0.00  0.00    +0.000 C 
BRANCH  14  15
ATOM     15  N   UNL     1       5.328   3.543  18.671  0.00  0.00    +0.000 NA
ATOM     16  H   UNL     1       4.800   3.773  17.830  0.00  0.00    +0.000 HD
BRANCH  15  17
ATOM     17  C   UNL     1       5.654   4.756  19.403  0.00  0.00    +0.000 C 
BRANCH  17  18
ATOM     18  C   UNL     1       5.879   5.885  18.408  0.00  0.00    +0.000 C 
BRANCH  18  19
ATOM     19  C   UNL     1       6.315   5.311  17.065  0.00  0.00    +0.000 C 
BRANCH  19  20
ATOM     20  C   UNL     1       5.509   5.927  15.932  0.00  0.00    +0.000 C 
BRANCH  20  21
ATOM     21  C   UNL     1       5.297   4.915  14.811  0.00  0.00    +0.000 C 
ATOM     22  C   UNL     1       6.219   3.723  14.986  0.00  0.00    +0.000 C 
ENDBRANCH  20  21
ENDBRANCH  19  20
ENDBRANCH  18  19
ENDBRANCH  17  18
ENDBRANCH  15  17
ENDBRANCH  14  15
ENDBRANCH  11  14
ENDBRANCH  10  11
ENDBRANCH   9  10
ENDBRANCH   4   9
BRANCH   1  23
ATOM     23  C   UNL     1       1.909   7.978  20.915  0.00  0.00    +0.000 C 
BRANCH  23  26
ATOM     24  C   UNL     1      -0.059   9.417  20.774  0.00  0.00    +0.000 C 
ATOM     25  O   UNL     1      -0.511   8.969  21.834  0.00  0.00    +0.000 OA
ATOM     26  N   UNL     1       1.141   9.005  20.251  0.00  0.00    +0.000 N 
ATOM     27  H   UNL     1       1.504   9.420  19.404  0.00  0.00    +0.000 HD
BRANCH  24  28
ATOM     28  C   UNL     1      -0.792  10.468  19.973  0.00  0.00    +0.000 C 
BRANCH  28  29
ATOM     29  C   UNL     1      -0.006  10.848  18.726  0.00  0.00    +0.000 C 
BRANCH  29  30
ATOM     30  C   UNL     1      -0.046  12.347  18.464  0.00  0.00    +0.000 C 
BRANCH  30  31
ATOM     31  C   UNL     1       1.295  12.977  18.830  0.00  0.00    +0.000 C 
BRANCH  31  32
ATOM     32  C   UNL     1       1.122  14.446  19.189  0.00  0.00    +0.000 C 
BRANCH  32  33
ATOM     33  C   UNL     1      -0.261  14.939  18.784  0.00  0.00    +0.000 C 
BRANCH  33  35
ATOM     34  C   UNL     1       0.867  17.124  18.318  0.00  0.00    +0.000 C 
ATOM     35  C   UNL     1      -0.358  16.455  18.913  0.00  0.00    +0.000 C 
ENDBRANCH  33  35
ENDBRANCH  32  33
ENDBRANCH  31  32
ENDBRANCH  30  31
ENDBRANCH  29  30
ENDBRANCH  28  29
ENDBRANCH  24  28
ENDBRANCH  23  26
ENDBRANCH   1  23
TORSDOF 21
ENDMDL
MODEL 4
REMARK VINA RESULT:      -6.5      3.445      8.753
REMARK  Name = 
REMARK  24 active torsions:
REMARK  status: ('A' for Active; 'I' for Inactive)
REMARK    1  A    between atoms: C_1  and  C_2
REMARK    2  A    between atoms: C_2  and  C_3
REMARK    3  A    between atoms: C_3  and  C_4
REMARK    4  A    between atoms: C_4  and  C_5
REMARK    5  A    between atoms: C_5  and  C_6
REMARK    6  A    between atoms: C_6  and  C_7
REMARK    7  A    between atoms: C_7  and  C_8
REMARK    8  A    between atoms: C_8  and  C_9
REMARK    9  A    between atoms: N_11  and  C_12
REMARK   10  A    between atoms: C_12  and  C_13
REMARK   11  A    between atoms: C_16  and  O_17
REMARK   12  A    between atoms: O_17  and  C_18
REMARK   13  A    between atoms: C_18  and  C_19
REMARK   14  A    between atoms: C_19  and  O_20
REMARK   15  A    between atoms: C_19  and  C_21
REMARK   16  A    between atoms: C_21  and  N_22
REMARK   17  A    between atoms: N_22  and  C_23
REMARK   18  A    between atoms: C_23  and  C_24
REMARK   19  A    between atoms: C_24  and  C_25
REMARK   20  A    between atoms: C_25  and  C_26
REMARK   21  A    between atoms: C_26  and  C_27
REMARK   22  A    between atoms: C_27  and  C_28
REMARK   23  A    between atoms: C_29  and  O_30
REMARK   24  A    between atoms: O_30  and  C_31
REMARK                            x       y       z     vdW  Elec       q    Type
REMARK                         _______ _______ _______ _____ _____    ______ ____
ROOT
ATOM      1  C   UNL     1       4.262   5.114  18.595  0.00  0.00    +0.000 A 
ATOM      2  C   UNL     1       3.695   6.330  18.243  0.00  0.00    +0.000 A 
ATOM      3  C   UNL     1       2.642   6.838  18.993  0.00  0.00    +0.000 A 
ATOM      4  C   UNL     1       2.097   6.143  20.084  0.00  0.00    +0.000 A 
ATOM      5  C   UNL     1       2.661   4.894  20.444  0.00  0.00    +0.000 A 
ATOM      6  C   UNL     1       3.731   4.402  19.681  0.00  0.00    +0.000 A 
ENDROOT
BRANCH   5   7
ATOM      7  O   UNL     1       2.150   4.228  21.534  0.00  0.00    +0.000 OA
ATOM      8  C   UNL     1       1.428   3.018  21.266  0.00  0.00    +0.000 C 
ENDBRANCH   5   7
BRANCH   4   9
ATOM      9  O   UNL     1       1.025   6.645  20.797  0.00  0.00    +0.000 OA
BRANCH   9  10
ATOM     10  C   UNL     1       1.251   7.965  21.338  0.00  0.00    +0.000 C 
BRANCH  10  11
ATOM     11  C   UNL     1      -0.038   8.777  21.423  0.00  0.00    +0.000 C 
BRANCH  11  12
ATOM     12  O   UNL     1      -0.765   8.435  22.604  0.00  0.00    +0.000 OA
ATOM     13  H   UNL     1      -1.102   7.532  22.459  0.00  0.00    +0.000 HD
ENDBRANCH  11  12
BRANCH  11  14
ATOM     14  C   UNL     1       0.260  10.278  21.405  0.00  0.00    +0.000 C 
BRANCH  14  15
ATOM     15  N   UNL     1      -0.873  11.033  20.868  0.00  0.00    +0.000 NA
ATOM     16  H   UNL     1      -1.568  11.198  21.595  0.00  0.00    +0.000 HD
BRANCH  15  17
ATOM     17  C   UNL     1      -0.421  12.300  20.315  0.00  0.00    +0.000 C 
BRANCH  17  18
ATOM     18  C   UNL     1      -1.463  12.804  19.327  0.00  0.00    +0.000 C 
BRANCH  18  19
ATOM     19  C   UNL     1      -1.740  11.736  18.278  0.00  0.00    +0.000 C 
BRANCH  19  20
ATOM     20  C   UNL     1      -3.222  11.395  18.237  0.00  0.00    +0.000 C 
BRANCH  20  21
ATOM     21  C   UNL     1      -3.453  10.081  17.500  0.00  0.00    +0.000 C 
ATOM     22  C   UNL     1      -2.441   9.911  16.382  0.00  0.00    +0.000 C 
ENDBRANCH  20  21
ENDBRANCH  19  20
ENDBRANCH  18  19
ENDBRANCH  17  18
ENDBRANCH  15  17
ENDBRANCH  14  15
ENDBRANCH  11  14
ENDBRANCH  10  11
ENDBRANCH   9  10
ENDBRANCH   4   9
BRANCH   1  23
ATOM     23  C   UNL     1       5.474   4.610  17.869  0.00  0.00    +0.000 C 
BRANCH  23  26
ATOM     24  C   UNL     1       7.269   5.954  18.839  0.00  0.00    +0.000 C 
ATOM     25  O   UNL     1       7.187   5.355  19.918  0.00  0.00    +0.000 OA
ATOM     26  N   UNL     1       6.479   5.643  17.760  0.00  0.00    +0.000 N 
ATOM     27  H   UNL     1       6.598   6.123  16.879  0.00  0.00    +0.000 HD
BRANCH  24  28
ATOM     28  C   UNL     1       8.257   7.076  18.620  0.00  0.00    +0.000 C 
BRANCH  28  29
ATOM     29  C   UNL     1       7.782   8.012  17.518  0.00  0.00    +0.000 C 
BRANCH  29  30
ATOM     30  C   UNL     1       8.123   9.465  17.819  0.00  0.00    +0.000 C 
BRANCH  30  31
ATOM     31  C   UNL     1       8.978   9.550  19.081  0.00  0.00    +0.000 C 
BRANCH  31  32
ATOM     32  C   UNL     1       9.874  10.780  19.045  0.00  0.00    +0.000 C 
BRANCH  32  33
ATOM     33  C   UNL     1       9.391  11.766  17.988  0.00  0.00    +0.000 C 
BRANCH  33  35
ATOM     34  C   UNL     1       7.870  13.736  17.723  0.00  0.00    +0.000 C 
ATOM     35  C   UNL     1       8.862  13.040  18.636  0.00  0.00    +0.000 C 
ENDBRANCH  33  35
ENDBRANCH  32  33
ENDBRANCH  31  32
ENDBRANCH  30  31
ENDBRANCH  29  30
ENDBRANCH  28  29
ENDBRANCH  24  28
ENDBRANCH  23  26
ENDBRANCH   1  23
TORSDOF 21
ENDMDL
MODEL 5
REMARK VINA RESULT:      -6.4      1.368      1.824
REMARK  Name = 
REMARK  24 active torsions:
REMARK  status: ('A' for Active; 'I' for Inactive)
REMARK    1  A    between atoms: C_1  and  C_2
REMARK    2  A    between atoms: C_2  and  C_3
REMARK    3  A    between atoms: C_3  and  C_4
REMARK    4  A    between atoms: C_4  and  C_5
REMARK    5  A    between atoms: C_5  and  C_6
REMARK    6  A    between atoms: C_6  and  C_7
REMARK    7  A    between atoms: C_7  and  C_8
REMARK    8  A    between atoms: C_8  and  C_9
REMARK    9  A    between atoms: N_11  and  C_12
REMARK   10  A    between atoms: C_12  and  C_13
REMARK   11  A    between atoms: C_16  and  O_17
REMARK   12  A    between atoms: O_17  and  C_18
REMARK   13  A    between atoms: C_18  and  C_19
REMARK   14  A    between atoms: C_19  and  O_20
REMARK   15  A    between atoms: C_19  and  C_21
REMARK   16  A    between atoms: C_21  and  N_22
REMARK   17  A    between atoms: N_22  and  C_23
REMARK   18  A    between atoms: C_23  and  C_24
REMARK   19  A    between atoms: C_24  and  C_25
REMARK   20  A    between atoms: C_25  and  C_26
REMARK   21  A    between atoms: C_26  and  C_27
REMARK   22  A    between atoms: C_27  and  C_28
REMARK   23  A    between atoms: C_29  and  O_30
REMARK   24  A    between atoms: O_30  and  C_31
REMARK                            x       y       z     vdW  Elec       q    Type
REMARK                         _______ _______ _______ _____ _____    ______ ____
ROOT
ATOM      1  C   UNL     1       1.688   7.572  20.342  0.00  0.00    +0.000 A 
ATOM      2  C   UNL     1       2.058   8.051  19.095  0.00  0.00    +0.000 A 
ATOM      3  C   UNL     1       2.638   7.188  18.173  0.00  0.00    +0.000 A 
ATOM      4  C   UNL     1       2.902   5.842  18.472  0.00  0.00    +0.000 A 
ATOM      5  C   UNL     1       2.538   5.346  19.748  0.00  0.00    +0.000 A 
ATOM      6  C   UNL     1       1.944   6.230  20.662  0.00  0.00    +0.000 A 
ENDROOT
BRANCH   5   7
ATOM      7  O   UNL     1       2.765   4.019  20.031  0.00  0.00    +0.000 OA
ATOM      8  C   UNL     1       2.380   3.565  21.336  0.00  0.00    +0.000 C 
ENDBRANCH   5   7
BRANCH   4   9
ATOM      9  O   UNL     1       3.513   5.006  17.557  0.00  0.00    +0.000 OA
BRANCH   9  10
ATOM     10  C   UNL     1       4.730   5.544  16.997  0.00  0.00    +0.000 C 
BRANCH  10  11
ATOM     11  C   UNL     1       5.973   4.944  17.645  0.00  0.00    +0.000 C 
BRANCH  11  12
ATOM     12  O   UNL     1       5.614   3.854  18.497  0.00  0.00    +0.000 OA
ATOM     13  H   UNL     1       5.616   4.212  19.404  0.00  0.00    +0.000 HD
ENDBRANCH  11  12
BRANCH  11  14
ATOM     14  C   UNL     1       6.970   4.473  16.584  0.00  0.00    +0.000 C 
BRANCH  14  15
ATOM     15  N   UNL     1       6.585   4.946  15.253  0.00  0.00    +0.000 NA
ATOM     16  H   UNL     1       7.352   5.460  14.822  0.00  0.00    +0.000 HD
BRANCH  15  17
ATOM     17  C   UNL     1       6.199   3.826  14.410  0.00  0.00    +0.000 C 
BRANCH  17  18
ATOM     18  C   UNL     1       6.706   4.078  12.997  0.00  0.00    +0.000 C 
BRANCH  18  19
ATOM     19  C   UNL     1       5.583   3.838  11.995  0.00  0.00    +0.000 C 
BRANCH  19  20
ATOM     20  C   UNL     1       5.272   2.353  11.882  0.00  0.00    +0.000 C 
BRANCH  20  21
ATOM     21  C   UNL     1       6.441   1.606  11.251  0.00  0.00    +0.000 C 
ATOM     22  C   UNL     1       6.122   0.129  11.119  0.00  0.00    +0.000 C 
ENDBRANCH  20  21
ENDBRANCH  19  20
ENDBRANCH  18  19
ENDBRANCH  17  18
ENDBRANCH  15  17
ENDBRANCH  14  15
ENDBRANCH  11  14
ENDBRANCH  10  11
ENDBRANCH   9  10
ENDBRANCH   4   9
BRANCH   1  23
ATOM     23  C   UNL     1       0.953   8.460  21.302  0.00  0.00    +0.000 C 
BRANCH  23  26
ATOM     24  C   UNL     1       0.200  10.783  21.334  0.00  0.00    +0.000 C 
ATOM     25  O   UNL     1      -0.807  10.488  21.989  0.00  0.00    +0.000 OA
ATOM     26  N   UNL     1       1.139   9.853  20.966  0.00  0.00    +0.000 N 
ATOM     27  H   UNL     1       1.973  10.131  20.467  0.00  0.00    +0.000 HD
BRANCH  24  28
ATOM     28  C   UNL     1       0.481  12.201  20.894  0.00  0.00    +0.000 C 
BRANCH  28  29
ATOM     29  C   UNL     1       0.221  12.370  19.404  0.00  0.00    +0.000 C 
BRANCH  29  30
ATOM     30  C   UNL     1      -1.244  12.661  19.112  0.00  0.00    +0.000 C 
BRANCH  30  31
ATOM     31  C   UNL     1      -1.689  11.902  17.864  0.00  0.00    +0.000 C 
BRANCH  31  32
ATOM     32  C   UNL     1      -1.472  10.405  18.035  0.00  0.00    +0.000 C 
BRANCH  32  33
ATOM     33  C   UNL     1      -2.083   9.638  16.869  0.00  0.00    +0.000 C 
BRANCH  33  35
ATOM     34  C   UNL     1      -3.138  10.265  14.688  0.00  0.00    +0.000 C 
ATOM     35  C   UNL     1      -3.175  10.457  16.192  0.00  0.00    +0.000 C 
ENDBRANCH  33  35
ENDBRANCH  32  33
ENDBRANCH  31  32
ENDBRANCH  30  31
ENDBRANCH  29  30
ENDBRANCH  28  29
ENDBRANCH  24  28
ENDBRANCH  23  26
ENDBRANCH   1  23
TORSDOF 21
ENDMDL
MODEL 6
REMARK VINA RESULT:      -6.4      3.341      9.033
REMARK  Name = 
REMARK  24 active torsions:
REMARK  status: ('A' for Active; 'I' for Inactive)
REMARK    1  A    between atoms: C_1  and  C_2
REMARK    2  A    between atoms: C_2  and  C_3
REMARK    3  A    between atoms: C_3  and  C_4
REMARK    4  A    between atoms: C_4  and  C_5
REMARK    5  A    between atoms: C_5  and  C_6
REMARK    6  A    between atoms: C_6  and  C_7
REMARK    7  A    between atoms: C_7  and  C_8
REMARK    8  A    between atoms: C_8  and  C_9
REMARK    9  A    between atoms: N_11  and  C_12
REMARK   10  A    between atoms: C_12  and  C_13
REMARK   11  A    between atoms: C_16  and  O_17
REMARK   12  A    between atoms: O_17  and  C_18
REMARK   13  A    between atoms: C_18  and  C_19
REMARK   14  A    between atoms: C_19  and  O_20
REMARK   15  A    between atoms: C_19  and  C_21
REMARK   16  A    between atoms: C_21  and  N_22
REMARK   17  A    between atoms: N_22  and  C_23
REMARK   18  A    between atoms: C_23  and  C_24
REMARK   19  A    between atoms: C_24  and  C_25
REMARK   20  A    between atoms: C_25  and  C_26
REMARK   21  A    between atoms: C_26  and  C_27
REMARK   22  A    between atoms: C_27  and  C_28
REMARK   23  A    between atoms: C_29  and  O_30
REMARK   24  A    between atoms: O_30  and  C_31
REMARK                            x       y       z     vdW  Elec       q    Type
REMARK                         _______ _______ _______ _____ _____    ______ ____
ROOT
ATOM      1  C   UNL     1       3.378   5.346  18.098  0.00  0.00    +0.000 A 
ATOM      2  C   UNL     1       3.177   6.717  18.103  0.00  0.00    +0.000 A 
ATOM      3  C   UNL     1       2.453   7.300  19.136  0.00  0.00    +0.000 A 
ATOM      4  C   UNL     1       1.879   6.541  20.168  0.00  0.00    +0.000 A 
ATOM      5  C   UNL     1       2.069   5.138  20.165  0.00  0.00    +0.000 A 
ATOM      6  C   UNL     1       2.812   4.568  19.119  0.00  0.00    +0.000 A 
ENDROOT
BRANCH   5   7
ATOM      7  O   UNL     1       1.536   4.396  21.194  0.00  0.00    +0.000 OA
ATOM      8  C   UNL     1       2.258   3.217  21.577  0.00  0.00    +0.000 C 
ENDBRANCH   5   7
BRANCH   4   9
ATOM      9  O   UNL     1       1.131   7.132  21.168  0.00  0.00    +0.000 OA
BRANCH   9  10
ATOM     10  C   UNL     1       1.359   8.551  21.307  0.00  0.00    +0.000 C 
BRANCH  10  11
ATOM     11  C   UNL     1       0.213   9.247  22.033  0.00  0.00    +0.000 C 
BRANCH  11  12
ATOM     12  O   UNL     1       0.638   9.698  23.320  0.00  0.00    +0.000 OA
ATOM     13  H   UNL     1       0.004   9.320  23.958  0.00  0.00    +0.000 HD
ENDBRANCH  11  12
BRANCH  11  14
ATOM     14  C   UNL     1      -0.317  10.426  21.213  0.00  0.00    +0.000 C 
BRANCH  14  15
ATOM     15  N   UNL     1      -0.115  10.204  19.780  0.00  0.00    +0.000 NA
ATOM     16  H   UNL     1       0.091   9.223  19.597  0.00  0.00    +0.000 HD
BRANCH  15  17
ATOM     17  C   UNL     1      -1.295  10.612  19.033  0.00  0.00    +0.000 C 
BRANCH  17  18
ATOM     18  C   UNL     1      -1.202  10.048  17.623  0.00  0.00    +0.000 C 
BRANCH  18  19
ATOM     19  C   UNL     1      -2.595   9.951  17.014  0.00  0.00    +0.000 C 
BRANCH  19  20
ATOM     20  C   UNL     1      -3.309  11.292  17.089  0.00  0.00    +0.000 C 
BRANCH  20  21
ATOM     21  C   UNL     1      -4.733  11.116  17.605  0.00  0.00    +0.000 C 
ATOM     22  C   UNL     1      -4.952  11.939  18.860  0.00  0.00    +0.000 C 
ENDBRANCH  20  21
ENDBRANCH  19  20
ENDBRANCH  18  19
ENDBRANCH  17  18
ENDBRANCH  15  17
ENDBRANCH  14  15
ENDBRANCH  11  14
ENDBRANCH  10  11
ENDBRANCH   9  10
ENDBRANCH   4   9
BRANCH   1  23
ATOM     23  C   UNL     1       4.256   4.718  17.056  0.00  0.00    +0.000 C 
BRANCH  23  26
ATOM     24  C   UNL     1       6.568   5.397  17.458  0.00  0.00    +0.000 C 
ATOM     25  O   UNL     1       6.716   4.523  18.320  0.00  0.00    +0.000 OA
ATOM     26  N   UNL     1       5.395   5.558  16.764  0.00  0.00    +0.000 N 
ATOM     27  H   UNL     1       5.318   6.255  16.036  0.00  0.00    +0.000 HD
BRANCH  24  28
ATOM     28  C   UNL     1       7.677   6.357  17.094  0.00  0.00    +0.000 C 
BRANCH  28  29
ATOM     29  C   UNL     1       7.967   7.314  18.241  0.00  0.00    +0.000 C 
BRANCH  29  30
ATOM     30  C   UNL     1       7.622   8.753  17.883  0.00  0.00    +0.000 C 
BRANCH  30  31
ATOM     31  C   UNL     1       8.886   9.609  17.881  0.00  0.00    +0.000 C 
BRANCH  31  32
ATOM     32  C   UNL     1       9.160  10.172  19.269  0.00  0.00    +0.000 C 
BRANCH  32  33
ATOM     33  C   UNL     1      10.285  11.198  19.219  0.00  0.00    +0.000 C 
BRANCH  33  35
ATOM     34  C   UNL     1      10.213  12.997  17.481  0.00  0.00    +0.000 C 
ATOM     35  C   UNL     1       9.746  12.578  18.862  0.00  0.00    +0.000 C 
ENDBRANCH  33  35
ENDBRANCH  32  33
ENDBRANCH  31  32
ENDBRANCH  30  31
ENDBRANCH  29  30
ENDBRANCH  28  29
ENDBRANCH  24  28
ENDBRANCH  23  26
ENDBRANCH   1  23
TORSDOF 21
ENDMDL
MODEL 7
REMARK VINA RESULT:      -6.2      3.028      9.617
REMARK  Name = 
REMARK  24 active torsions:
REMARK  status: ('A' for Active; 'I' for Inactive)
REMARK    1  A    between atoms: C_1  and  C_2
REMARK    2  A    between atoms: C_2  and  C_3
REMARK    3  A    between atoms: C_3  and  C_4
REMARK    4  A    between atoms: C_4  and  C_5
REMARK    5  A    between atoms: C_5  and  C_6
REMARK    6  A    between atoms: C_6  and  C_7
REMARK    7  A    between atoms: C_7  and  C_8
REMARK    8  A    between atoms: C_8  and  C_9
REMARK    9  A    between atoms: N_11  and  C_12
REMARK   10  A    between atoms: C_12  and  C_13
REMARK   11  A    between atoms: C_16  and  O_17
REMARK   12  A    between atoms: O_17  and  C_18
REMARK   13  A    between atoms: C_18  and  C_19
REMARK   14  A    between atoms: C_19  and  O_20
REMARK   15  A    between atoms: C_19  and  C_21
REMARK   16  A    between atoms: C_21  and  N_22
REMARK   17  A    between atoms: N_22  and  C_23
REMARK   18  A    between atoms: C_23  and  C_24
REMARK   19  A    between atoms: C_24  and  C_25
REMARK   20  A    between atoms: C_25  and  C_26
REMARK   21  A    between atoms: C_26  and  C_27
REMARK   22  A    between atoms: C_27  and  C_28
REMARK   23  A    between atoms: C_29  and  O_30
REMARK   24  A    between atoms: O_30  and  C_31
REMARK                            x       y       z     vdW  Elec       q    Type
REMARK                         _______ _______ _______ _____ _____    ______ ____
ROOT
ATOM      1  C   UNL     1       1.493   9.140  18.557  0.00  0.00    +0.000 A 
ATOM      2  C   UNL     1       1.427   8.836  19.908  0.00  0.00    +0.000 A 
ATOM      3  C   UNL     1       0.501   9.488  20.713  0.00  0.00    +0.000 A 
ATOM      4  C   UNL     1      -0.355  10.483  20.214  0.00  0.00    +0.000 A 
ATOM      5  C   UNL     1      -0.285  10.809  18.837  0.00  0.00    +0.000 A 
ATOM      6  C   UNL     1       0.648  10.132  18.038  0.00  0.00    +0.000 A 
ENDROOT
BRANCH   5   7
ATOM      7  O   UNL     1      -1.147  11.760  18.339  0.00  0.00    +0.000 OA
ATOM      8  C   UNL     1      -2.108  11.312  17.373  0.00  0.00    +0.000 C 
ENDBRANCH   5   7
BRANCH   4   9
ATOM      9  O   UNL     1      -1.244  11.148  21.035  0.00  0.00    +0.000 OA
BRANCH   9  10
ATOM     10  C   UNL     1      -0.659  11.625  22.266  0.00  0.00    +0.000 C 
BRANCH  10  11
ATOM     11  C   UNL     1      -0.403  13.128  22.233  0.00  0.00    +0.000 C 
BRANCH  11  12
ATOM     12  O   UNL     1       0.907  13.400  21.731  0.00  0.00    +0.000 OA
ATOM     13  H   UNL     1       1.205  14.209  22.187  0.00  0.00    +0.000 HD
ENDBRANCH  11  12
BRANCH  11  14
ATOM     14  C   UNL     1      -1.451  13.843  21.377  0.00  0.00    +0.000 C 
BRANCH  14  15
ATOM     15  N   UNL     1      -0.908  14.196  20.065  0.00  0.00    +0.000 NA
ATOM     16  H   UNL     1      -1.424  13.721  19.326  0.00  0.00    +0.000 HD
BRANCH  15  17
ATOM     17  C   UNL     1      -0.962  15.635  19.865  0.00  0.00    +0.000 C 
BRANCH  17  18
ATOM     18  C   UNL     1      -0.094  15.999  18.670  0.00  0.00    +0.000 C 
BRANCH  18  19
ATOM     19  C   UNL     1       1.366  15.693  18.980  0.00  0.00    +0.000 C 
BRANCH  19  20
ATOM     20  C   UNL     1       2.284  16.657  18.243  0.00  0.00    +0.000 C 
BRANCH  20  21
ATOM     21  C   UNL     1       3.320  15.894  17.425  0.00  0.00    +0.000 C 
ATOM     22  C   UNL     1       3.723  14.614  18.133  0.00  0.00    +0.000 C 
ENDBRANCH  20  21
ENDBRANCH  19  20
ENDBRANCH  18  19
ENDBRANCH  17  18
ENDBRANCH  15  17
ENDBRANCH  14  15
ENDBRANCH  11  14
ENDBRANCH  10  11
ENDBRANCH   9  10
ENDBRANCH   4   9
BRANCH   1  23
ATOM     23  C   UNL     1       2.403   8.361  17.654  0.00  0.00    +0.000 C 
BRANCH  23  26
ATOM     24  C   UNL     1       3.953   6.477  17.784  0.00  0.00    +0.000 C 
ATOM     25  O   UNL     1       4.546   6.845  16.763  0.00  0.00    +0.000 OA
ATOM     26  N   UNL     1       2.895   7.173  18.313  0.00  0.00    +0.000 N 
ATOM     27  H   UNL     1       2.456   6.869  19.172  0.00  0.00    +0.000 HD
BRANCH  24  28
ATOM     28  C   UNL     1       4.354   5.230  18.537  0.00  0.00    +0.000 C 
BRANCH  28  29
ATOM     29  C   UNL     1       4.197   3.993  17.664  0.00  0.00    +0.000 C 
BRANCH  29  30
ATOM     30  C   UNL     1       2.734   3.663  17.405  0.00  0.00    +0.000 C 
BRANCH  30  31
ATOM     31  C   UNL     1       2.479   2.180  17.664  0.00  0.00    +0.000 C 
BRANCH  31  32
ATOM     32  C   UNL     1       1.853   1.971  19.036  0.00  0.00    +0.000 C 
BRANCH  32  33
ATOM     33  C   UNL     1       0.970   3.154  19.410  0.00  0.00    +0.000 C 
BRANCH  33  35
ATOM     34  C   UNL     1       1.512   5.148  20.822  0.00  0.00    +0.000 C 
ATOM     35  C   UNL     1       1.288   3.648  20.816  0.00  0.00    +0.000 C 
ENDBRANCH  33  35
ENDBRANCH  32  33
ENDBRANCH  31  32
ENDBRANCH  30  31
ENDBRANCH  29  30
ENDBRANCH  28  29
ENDBRANCH  24  28
ENDBRANCH  23  26
ENDBRANCH   1  23
TORSDOF 21
ENDMDL
MODEL 8
REMARK VINA RESULT:      -6.2      2.632      9.952
REMARK  Name = 
REMARK  24 active torsions:
REMARK  status: ('A' for Active; 'I' for Inactive)
REMARK    1  A    between atoms: C_1  and  C_2
REMARK    2  A    between atoms: C_2  and  C_3
REMARK    3  A    between atoms: C_3  and  C_4
REMARK    4  A    between atoms: C_4  and  C_5
REMARK    5  A    between atoms: C_5  and  C_6
REMARK    6  A    between atoms: C_6  and  C_7
REMARK    7  A    between atoms: C_7  and  C_8
REMARK    8  A    between atoms: C_8  and  C_9
REMARK    9  A    between atoms: N_11  and  C_12
REMARK   10  A    between atoms: C_12  and  C_13
REMARK   11  A    between atoms: C_16  and  O_17
REMARK   12  A    between atoms: O_17  and  C_18
REMARK   13  A    between atoms: C_18  and  C_19
REMARK   14  A    between atoms: C_19  and  O_20
REMARK   15  A    between atoms: C_19  and  C_21
REMARK   16  A    between atoms: C_21  and  N_22
REMARK   17  A    between atoms: N_22  and  C_23
REMARK   18  A    between atoms: C_23  and  C_24
REMARK   19  A    between atoms: C_24  and  C_25
REMARK   20  A    between atoms: C_25  and  C_26
REMARK   21  A    between atoms: C_26  and  C_27
REMARK   22  A    between atoms: C_27  and  C_28
REMARK   23  A    between atoms: C_29  and  O_30
REMARK   24  A    between atoms: O_30  and  C_31
REMARK                            x       y       z     vdW  Elec       q    Type
REMARK                         _______ _______ _______ _____ _____    ______ ____
ROOT
ATOM      1  C   UNL     1       1.382   9.576  18.627  0.00  0.00    +0.000 A 
ATOM      2  C   UNL     1       0.692   9.225  19.777  0.00  0.00    +0.000 A 
ATOM      3  C   UNL     1       0.058  10.211  20.523  0.00  0.00    +0.000 A 
ATOM      4  C   UNL     1       0.120  11.569  20.175  0.00  0.00    +0.000 A 
ATOM      5  C   UNL     1       0.832  11.938  19.008  0.00  0.00    +0.000 A 
ATOM      6  C   UNL     1       1.457  10.928  18.261  0.00  0.00    +0.000 A 
ENDROOT
BRANCH   5   7
ATOM      7  O   UNL     1       0.866  13.266  18.647  0.00  0.00    +0.000 OA
ATOM      8  C   UNL     1       2.114  13.949  18.826  0.00  0.00    +0.000 C 
ENDBRANCH   5   7
BRANCH   4   9
ATOM      9  O   UNL     1      -0.486  12.540  20.949  0.00  0.00    +0.000 OA
BRANCH   9  10
ATOM     10  C   UNL     1      -1.140  12.024  22.128  0.00  0.00    +0.000 C 
BRANCH  10  11
ATOM     11  C   UNL     1      -2.559  12.560  22.277  0.00  0.00    +0.000 C 
BRANCH  11  12
ATOM     12  O   UNL     1      -2.827  12.894  23.640  0.00  0.00    +0.000 OA
ATOM     13  H   UNL     1      -1.957  12.936  24.080  0.00  0.00    +0.000 HD
ENDBRANCH  11  12
BRANCH  11  14
ATOM     14  C   UNL     1      -2.777  13.786  21.385  0.00  0.00    +0.000 C 
BRANCH  14  15
ATOM     15  N   UNL     1      -3.129  13.388  20.021  0.00  0.00    +0.000 NA
ATOM     16  H   UNL     1      -2.373  12.847  19.602  0.00  0.00    +0.000 HD
BRANCH  15  17
ATOM     17  C   UNL     1      -4.358  12.611  20.021  0.00  0.00    +0.000 C 
BRANCH  17  18
ATOM     18  C   UNL     1      -4.435  11.814  18.727  0.00  0.00    +0.000 C 
BRANCH  18  19
ATOM     19  C   UNL     1      -3.038  11.637  18.144  0.00  0.00    +0.000 C 
BRANCH  19  20
ATOM     20  C   UNL     1      -2.657  10.165  18.103  0.00  0.00    +0.000 C 
BRANCH  20  21
ATOM     21  C   UNL     1      -1.993   9.819  16.775  0.00  0.00    +0.000 C 
ATOM     22  C   UNL     1      -2.639  10.587  15.638  0.00  0.00    +0.000 C 
ENDBRANCH  20  21
ENDBRANCH  19  20
ENDBRANCH  18  19
ENDBRANCH  17  18
ENDBRANCH  15  17
ENDBRANCH  14  15
ENDBRANCH  11  14
ENDBRANCH  10  11
ENDBRANCH   9  10
ENDBRANCH   4   9
BRANCH   1  23
ATOM     23  C   UNL     1       1.970   8.512  17.747  0.00  0.00    +0.000 C 
BRANCH  23  26
ATOM     24  C   UNL     1       3.637   6.798  18.242  0.00  0.00    +0.000 C 
ATOM     25  O   UNL     1       4.383   7.209  17.345  0.00  0.00    +0.000 OA
ATOM     26  N   UNL     1       2.434   7.390  18.530  0.00  0.00    +0.000 N 
ATOM     27  H   UNL     1       1.865   7.057  19.296  0.00  0.00    +0.000 HD
BRANCH  24  28
ATOM     28  C   UNL     1       4.000   5.609  19.102  0.00  0.00    +0.000 C 
BRANCH  28  29
ATOM     29  C   UNL     1       3.246   4.365  18.656  0.00  0.00    +0.000 C 
BRANCH  29  30
ATOM     30  C   UNL     1       3.436   4.085  17.172  0.00  0.00    +0.000 C 
BRANCH  30  31
ATOM     31  C   UNL     1       4.859   3.602  16.908  0.00  0.00    +0.000 C 
BRANCH  31  32
ATOM     32  C   UNL     1       5.442   4.281  15.677  0.00  0.00    +0.000 C 
BRANCH  32  33
ATOM     33  C   UNL     1       6.669   5.105  16.048  0.00  0.00    +0.000 C 
BRANCH  33  35
ATOM     34  C   UNL     1       7.593   5.779  18.274  0.00  0.00    +0.000 C 
ATOM     35  C   UNL     1       7.278   4.613  17.356  0.00  0.00    +0.000 C 
ENDBRANCH  33  35
ENDBRANCH  32  33
ENDBRANCH  31  32
ENDBRANCH  30  31
ENDBRANCH  29  30
ENDBRANCH  28  29
ENDBRANCH  24  28
ENDBRANCH  23  26
ENDBRANCH   1  23
TORSDOF 21
ENDMDL
MODEL 9
REMARK VINA RESULT:      -6.2      1.923      2.518
REMARK  Name = 
REMARK  24 active torsions:
REMARK  status: ('A' for Active; 'I' for Inactive)
REMARK    1  A    between atoms: C_1  and  C_2
REMARK    2  A    between atoms: C_2  and  C_3
REMARK    3  A    between atoms: C_3  and  C_4
REMARK    4  A    between atoms: C_4  and  C_5
REMARK    5  A    between atoms: C_5  and  C_6
REMARK    6  A    between atoms: C_6  and  C_7
REMARK    7  A    between atoms: C_7  and  C_8
REMARK    8  A    between atoms: C_8  and  C_9
REMARK    9  A    between atoms: N_11  and  C_12
REMARK   10  A    between atoms: C_12  and  C_13
REMARK   11  A    between atoms: C_16  and  O_17
REMARK   12  A    between atoms: O_17  and  C_18
REMARK   13  A    between atoms: C_18  and  C_19
REMARK   14  A    between atoms: C_19  and  O_20
REMARK   15  A    between atoms: C_19  and  C_21
REMARK   16  A    between atoms: C_21  and  N_22
REMARK   17  A    between atoms: N_22  and  C_23
REMARK   18  A    between atoms: C_23  and  C_24
REMARK   19  A    between atoms: C_24  and  C_25
REMARK   20  A    between atoms: C_25  and  C_26
REMARK   21  A    between atoms: C_26  and  C_27
REMARK   22  A    between atoms: C_27  and  C_28
REMARK   23  A    between atoms: C_29  and  O_30
REMARK   24  A    between atoms: O_30  and  C_31
REMARK                            x       y       z     vdW  Elec       q    Type
REMARK                         _______ _______ _______ _____ _____    ______ ____
ROOT
ATOM      1  C   UNL     1       1.245   8.050  20.575  0.00  0.00    +0.000 A 
ATOM      2  C   UNL     1       1.552   8.820  19.463  0.00  0.00    +0.000 A 
ATOM      3  C   UNL     1       2.279   8.257  18.421  0.00  0.00    +0.000 A 
ATOM      4  C   UNL     1       2.753   6.937  18.466  0.00  0.00    +0.000 A 
ATOM      5  C   UNL     1       2.455   6.148  19.603  0.00  0.00    +0.000 A 
ATOM      6  C   UNL     1       1.711   6.729  20.641  0.00  0.00    +0.000 A 
ENDROOT
BRANCH   5   7
ATOM      7  O   UNL     1       2.890   4.842  19.634  0.00  0.00    +0.000 OA
ATOM      8  C   UNL     1       1.920   3.835  19.314  0.00  0.00    +0.000 C 
ENDBRANCH   5   7
BRANCH   4   9
ATOM      9  O   UNL     1       3.506   6.405  17.436  0.00  0.00    +0.000 OA
BRANCH   9  10
ATOM     10  C   UNL     1       4.859   6.073  17.813  0.00  0.00    +0.000 C 
BRANCH  10  11
ATOM     11  C   UNL     1       5.752   5.844  16.598  0.00  0.00    +0.000 C 
BRANCH  11  12
ATOM     12  O   UNL     1       6.614   6.964  16.394  0.00  0.00    +0.000 OA
ATOM     13  H   UNL     1       7.523   6.620  16.471  0.00  0.00    +0.000 HD
ENDBRANCH  11  12
BRANCH  11  14
ATOM     14  C   UNL     1       6.580   4.567  16.761  0.00  0.00    +0.000 C 
BRANCH  14  15
ATOM     15  N   UNL     1       6.991   4.037  15.460  0.00  0.00    +0.000 NA
ATOM     16  H   UNL     1       7.171   3.036  15.525  0.00  0.00    +0.000 HD
BRANCH  15  17
ATOM     17  C   UNL     1       5.967   4.296  14.461  0.00  0.00    +0.000 C 
BRANCH  17  18
ATOM     18  C   UNL     1       6.497   3.884  13.096  0.00  0.00    +0.000 C 
BRANCH  18  19
ATOM     19  C   UNL     1       5.481   2.991  12.395  0.00  0.00    +0.000 C 
BRANCH  19  20
ATOM     20  C   UNL     1       4.921   3.682  11.161  0.00  0.00    +0.000 C 
BRANCH  20  21
ATOM     21  C   UNL     1       3.494   3.221  10.887  0.00  0.00    +0.000 C 
ATOM     22  C   UNL     1       2.891   4.004   9.736  0.00  0.00    +0.000 C 
ENDBRANCH  20  21
ENDBRANCH  19  20
ENDBRANCH  18  19
ENDBRANCH  17  18
ENDBRANCH  15  17
ENDBRANCH  14  15
ENDBRANCH  11  14
ENDBRANCH  10  11
ENDBRANCH   9  10
ENDBRANCH   4   9
BRANCH   1  23
ATOM     23  C   UNL     1       0.362   8.605  21.653  0.00  0.00    +0.000 C 
BRANCH  23  26
ATOM     24  C   UNL     1      -0.339  10.829  22.380  0.00  0.00    +0.000 C 
ATOM     25  O   UNL     1      -0.279  10.501  23.571  0.00  0.00    +0.000 OA
ATOM     26  N   UNL     1      -0.020   9.967  21.361  0.00  0.00    +0.000 N 
ATOM     27  H   UNL     1      -0.040  10.277  20.399  0.00  0.00    +0.000 HD
BRANCH  24  28
ATOM     28  C   UNL     1      -0.761  12.215  21.953  0.00  0.00    +0.000 C 
BRANCH  28  29
ATOM     29  C   UNL     1      -2.007  12.160  21.081  0.00  0.00    +0.000 C 
BRANCH  29  30
ATOM     30  C   UNL     1      -1.718  12.585  19.648  0.00  0.00    +0.000 C 
BRANCH  30  31
ATOM     31  C   UNL     1      -1.649  11.358  18.742  0.00  0.00    +0.000 C 
BRANCH  31  32
ATOM     32  C   UNL     1      -2.304  11.641  17.397  0.00  0.00    +0.000 C 
BRANCH  32  33
ATOM     33  C   UNL     1      -3.265  10.520  17.022  0.00  0.00    +0.000 C 
BRANCH  33  35
ATOM     34  C   UNL     1      -3.273  10.102  14.554  0.00  0.00    +0.000 C 
ATOM     35  C   UNL     1      -2.696   9.673  15.889  0.00  0.00    +0.000 C 
ENDBRANCH  33  35
ENDBRANCH  32  33
ENDBRANCH  31  32
ENDBRANCH  30  31
ENDBRANCH  29  30
ENDBRANCH  28  29
ENDBRANCH  24  28
ENDBRANCH  23  26
ENDBRANCH   1  23
TORSDOF 21
ENDMDL
