MODEL 1
REMARK VINA RESULT:      -7.5      0.000      0.000
REMARK  Name = 
REMARK  11 active torsions:
REMARK  status: ('A' for Active; 'I' for Inactive)
REMARK    1  A    between atoms: C_1  and  O_2
REMARK    2  A    between atoms: O_2  and  C_3
REMARK    3  A    between atoms: C_6  and  C_7
REMARK    4  A    between atoms: C_17  and  C_18
REMARK    5  A    between atoms: N_21  and  C_22
REMARK    6  A    between atoms: C_22  and  C_23
REMARK    7  A    between atoms: C_23  and  N_24
REMARK    8  A    between atoms: N_24  and  C_25
REMARK    9  A    between atoms: N_24  and  C_26
REMARK   10  A    between atoms: C_31  and  C_32
REMARK   11  A    between atoms: C_32  and  O_33
REMARK                            x       y       z     vdW  Elec       q    Type
REMARK                         _______ _______ _______ _____ _____    ______ ____
ROOT
ATOM      1  C   UNL     1       1.287   8.794  19.196  0.00  0.00    +0.000 A 
ATOM      2  C   UNL     1       0.957   9.234  20.463  0.00  0.00    +0.000 A 
ATOM      3  C   UNL     1      -0.141  10.059  20.600  0.00  0.00    +0.000 A 
ATOM      4  C   UNL     1      -0.791  10.576  19.465  0.00  0.00    +0.000 A 
ATOM      5  C   UNL     1      -1.762  11.584  19.429  0.00  0.00    +0.000 A 
ATOM      6  N   UNL     1      -2.000  12.507  20.447  0.00  0.00    +0.000 N 
ATOM      7  C   UNL     1      -3.445  12.798  20.642  0.00  0.00    +0.000 C 
ATOM      8  C   UNL     1      -3.646  14.194  21.236  0.00  0.00    +0.000 C 
ATOM      9  O   UNL     1      -2.952  14.313  22.483  0.00  0.00    +0.000 OA
ATOM     10  C   UNL     1      -1.552  14.196  22.241  0.00  0.00    +0.000 C 
ATOM     11  C   UNL     1      -1.143  12.825  21.630  0.00  0.00    +0.000 C 
ATOM     12  C   UNL     1       0.359  12.997  21.344  0.00  0.00    +0.000 C 
ATOM     13  N   UNL     1      -2.483  11.754  18.299  0.00  0.00    +0.000 NA
ATOM     14  C   UNL     1      -2.162  11.059  17.205  0.00  0.00    +0.000 A 
ATOM     15  N   UNL     1      -2.979  11.201  16.090  0.00  0.00    +0.000 N 
ATOM     16  N   UNL     1      -1.117  10.253  17.140  0.00  0.00    +0.000 NA
ATOM     17  C   UNL     1      -0.442  10.014  18.242  0.00  0.00    +0.000 A 
ATOM     18  N   UNL     1       0.569   9.166  18.117  0.00  0.00    +0.000 NA
ATOM     19  H   UNL     1      -3.897  11.504  16.407  0.00  0.00    +0.000 HD
ENDROOT
BRANCH   1  23
ATOM     20  C   UNL     1       4.046   5.634  18.356  0.00  0.00    +0.000 A 
ATOM     21  C   UNL     1       3.332   5.651  19.554  0.00  0.00    +0.000 A 
ATOM     22  C   UNL     1       2.471   6.700  19.840  0.00  0.00    +0.000 A 
ATOM     23  C   UNL     1       2.325   7.781  18.960  0.00  0.00    +0.000 A 
ATOM     24  C   UNL     1       3.145   7.811  17.820  0.00  0.00    +0.000 A 
ATOM     25  C   UNL     1       4.020   6.752  17.509  0.00  0.00    +0.000 A 
BRANCH  20  27
ATOM     26  C   UNL     1       4.074   3.297  18.082  0.00  0.00    +0.000 C 
ATOM     27  O   UNL     1       4.771   4.542  17.962  0.00  0.00    +0.000 OA
ENDBRANCH  20  27
BRANCH  25  28
ATOM     28  C   UNL     1       4.884   6.863  16.280  0.00  0.00    +0.000 C 
BRANCH  28  29
ATOM     29  O   UNL     1       6.264   6.866  16.624  0.00  0.00    +0.000 OA
ATOM     30  H   UNL     1       6.310   7.053  17.576  0.00  0.00    +0.000 HD
ENDBRANCH  28  29
ENDBRANCH  25  28
ENDBRANCH   1  23
BRANCH  15  31
ATOM     31  C   UNL     1      -3.026  10.044  15.193  0.00  0.00    +0.000 C 
BRANCH  31  32
ATOM     32  C   UNL     1      -4.171  10.165  14.161  0.00  0.00    +0.000 C 
BRANCH  32  33
ATOM     33  N   UNL     1      -3.731  10.173  12.745  0.00  0.00    +0.000 NA
ATOM     34  C   UNL     1      -2.530   9.352  12.549  0.00  0.00    +0.000 C 
ATOM     35  C   UNL     1      -4.808   9.660  11.890  0.00  0.00    +0.000 C 
ENDBRANCH  32  33
ENDBRANCH  31  32
ENDBRANCH  15  31
TORSDOF 7
ENDMDL
MODEL 2
REMARK VINA RESULT:      -7.2      2.684      3.866
REMARK  Name = 
REMARK  11 active torsions:
REMARK  status: ('A' for Active; 'I' for Inactive)
REMARK    1  A    between atoms: C_1  and  O_2
REMARK    2  A    between atoms: O_2  and  C_3
REMARK    3  A    between atoms: C_6  and  C_7
REMARK    4  A    between atoms: C_17  and  C_18
REMARK    5  A    between atoms: N_21  and  C_22
REMARK    6  A    between atoms: C_22  and  C_23
REMARK    7  A    between atoms: C_23  and  N_24
REMARK    8  A    between atoms: N_24  and  C_25
REMARK    9  A    between atoms: N_24  and  C_26
REMARK   10  A    between atoms: C_31  and  C_32
REMARK   11  A    between atoms: C_32  and  O_33
REMARK                            x       y       z     vdW  Elec       q    Type
REMARK                         _______ _______ _______ _____ _____    ______ ____
ROOT
ATOM      1  C   UNL     1       0.403  10.072  19.931  0.00  0.00    +0.000 A 
ATOM      2  C   UNL     1       0.659  10.613  21.175  0.00  0.00    +0.000 A 
ATOM      3  C   UNL     1      -0.260  11.500  21.701  0.00  0.00    +0.000 A 
ATOM      4  C   UNL     1      -1.328  11.969  20.915  0.00  0.00    +0.000 A 
ATOM      5  C   UNL     1      -2.204  13.020  21.214  0.00  0.00    +0.000 A 
ATOM      6  N   UNL     1      -1.965  14.021  22.156  0.00  0.00    +0.000 N 
ATOM      7  C   UNL     1      -3.179  14.398  22.926  0.00  0.00    +0.000 C 
ATOM      8  C   UNL     1      -3.083  15.839  23.430  0.00  0.00    +0.000 C 
ATOM      9  O   UNL     1      -1.917  16.008  24.244  0.00  0.00    +0.000 OA
ATOM     10  C   UNL     1      -0.760  15.805  23.437  0.00  0.00    +0.000 C 
ATOM     11  C   UNL     1      -0.676  14.377  22.826  0.00  0.00    +0.000 C 
ATOM     12  C   UNL     1       0.558  14.453  21.911  0.00  0.00    +0.000 C 
ATOM     13  N   UNL     1      -3.339  13.149  20.493  0.00  0.00    +0.000 NA
ATOM     14  C   UNL     1      -3.532  12.365  19.429  0.00  0.00    +0.000 A 
ATOM     15  N   UNL     1      -4.747  12.470  18.764  0.00  0.00    +0.000 N 
ATOM     16  N   UNL     1      -2.629  11.505  18.990  0.00  0.00    +0.000 NA
ATOM     17  C   UNL     1      -1.549  11.309  19.712  0.00  0.00    +0.000 A 
ATOM     18  N   UNL     1      -0.703  10.404  19.237  0.00  0.00    +0.000 NA
ATOM     19  H   UNL     1      -5.434  12.840  19.417  0.00  0.00    +0.000 HD
ENDROOT
BRANCH   1  23
ATOM     20  C   UNL     1       3.085   7.111  18.401  0.00  0.00    +0.000 A 
ATOM     21  C   UNL     1       2.767   8.237  17.642  0.00  0.00    +0.000 A 
ATOM     22  C   UNL     1       1.864   9.173  18.126  0.00  0.00    +0.000 A 
ATOM     23  C   UNL     1       1.222   8.995  19.359  0.00  0.00    +0.000 A 
ATOM     24  C   UNL     1       1.457   7.795  20.050  0.00  0.00    +0.000 A 
ATOM     25  C   UNL     1       2.375   6.836  19.579  0.00  0.00    +0.000 A 
BRANCH  20  27
ATOM     26  C   UNL     1       4.742   6.598  16.811  0.00  0.00    +0.000 C 
ATOM     27  O   UNL     1       4.092   6.257  18.039  0.00  0.00    +0.000 OA
ENDBRANCH  20  27
BRANCH  25  28
ATOM     28  C   UNL     1       2.560   5.564  20.364  0.00  0.00    +0.000 C 
BRANCH  28  29
ATOM     29  O   UNL     1       1.330   4.862  20.495  0.00  0.00    +0.000 OA
ATOM     30  H   UNL     1       0.945   5.138  21.343  0.00  0.00    +0.000 HD
ENDBRANCH  28  29
ENDBRANCH  25  28
ENDBRANCH   1  23
BRANCH  15  31
ATOM     31  C   UNL     1      -5.194  11.259  18.074  0.00  0.00    +0.000 C 
BRANCH  31  32
ATOM     32  C   UNL     1      -6.626  10.854  18.497  0.00  0.00    +0.000 C 
BRANCH  32  33
ATOM     33  N   UNL     1      -6.745  10.367  19.893  0.00  0.00    +0.000 NA
ATOM     34  C   UNL     1      -7.603  11.243  20.698  0.00  0.00    +0.000 C 
ATOM     35  C   UNL     1      -7.307   9.011  19.895  0.00  0.00    +0.000 C 
ENDBRANCH  32  33
ENDBRANCH  31  32
ENDBRANCH  15  31
TORSDOF 7
ENDMDL
MODEL 3
REMARK VINA RESULT:      -7.0      2.571      3.662
REMARK  Name = 
REMARK  11 active torsions:
REMARK  status: ('A' for Active; 'I' for Inactive)
REMARK    1  A    between atoms: C_1  and  O_2
REMARK    2  A    between atoms: O_2  and  C_3
REMARK    3  A    between atoms: C_6  and  C_7
REMARK    4  A    between atoms: C_17  and  C_18
REMARK    5  A    between atoms: N_21  and  C_22
REMARK    6  A    between atoms: C_22  and  C_23
REMARK    7  A    between atoms: C_23  and  N_24
REMARK    8  A    between atoms: N_24  and  C_25
REMARK    9  A    between atoms: N_24  and  C_26
REMARK   10  A    between atoms: C_31  and  C_32
REMARK   11  A    between atoms: C_32  and  O_33
REMARK                            x       y       z     vdW  Elec       q    Type
REMARK                         _______ _______ _______ _____ _____    ______ ____
ROOT
ATOM      1  C   UNL     1       0.755   9.521  20.002  0.00  0.00    +0.000 A 
ATOM      2  C   UNL     1       1.068  10.209  21.158  0.00  0.00    +0.000 A 
ATOM      3  C   UNL     1       0.245  11.250  21.539  0.00  0.00    +0.000 A 
ATOM      4  C   UNL     1      -0.773  11.705  20.681  0.00  0.00    +0.000 A 
ATOM      5  C   UNL     1      -1.537  12.870  20.815  0.00  0.00    +0.000 A 
ATOM      6  N   UNL     1      -1.196  13.968  21.604  0.00  0.00    +0.000 N 
ATOM      7  C   UNL     1      -2.364  14.572  22.297  0.00  0.00    +0.000 C 
ATOM      8  C   UNL     1      -2.122  16.054  22.589  0.00  0.00    +0.000 C 
ATOM      9  O   UNL     1      -0.943  16.222  23.384  0.00  0.00    +0.000 OA
ATOM     10  C   UNL     1       0.185  15.789  22.628  0.00  0.00    +0.000 C 
ATOM     11  C   UNL     1       0.123  14.287  22.231  0.00  0.00    +0.000 C 
ATOM     12  C   UNL     1       1.356  14.105  21.329  0.00  0.00    +0.000 C 
ATOM     13  N   UNL     1      -2.656  13.005  20.069  0.00  0.00    +0.000 NA
ATOM     14  C   UNL     1      -2.930  12.099  19.127  0.00  0.00    +0.000 A 
ATOM     15  N   UNL     1      -4.130  12.228  18.439  0.00  0.00    +0.000 N 
ATOM     16  N   UNL     1      -2.119  11.098  18.828  0.00  0.00    +0.000 NA
ATOM     17  C   UNL     1      -1.062  10.902  19.583  0.00  0.00    +0.000 A 
ATOM     18  N   UNL     1      -0.314   9.858  19.254  0.00  0.00    +0.000 NA
ATOM     19  H   UNL     1      -4.774  12.755  19.023  0.00  0.00    +0.000 HD
ENDROOT
BRANCH   1  23
ATOM     20  C   UNL     1       3.115   6.101  18.981  0.00  0.00    +0.000 A 
ATOM     21  C   UNL     1       3.014   7.179  18.102  0.00  0.00    +0.000 A 
ATOM     22  C   UNL     1       2.214   8.267  18.419  0.00  0.00    +0.000 A 
ATOM     23  C   UNL     1       1.460   8.295  19.601  0.00  0.00    +0.000 A 
ATOM     24  C   UNL     1       1.474   7.149  20.413  0.00  0.00    +0.000 A 
ATOM     25  C   UNL     1       2.286   6.038  20.111  0.00  0.00    +0.000 A 
BRANCH  20  27
ATOM     26  C   UNL     1       5.380   5.466  19.030  0.00  0.00    +0.000 C 
ATOM     27  O   UNL     1       4.020   5.092  18.787  0.00  0.00    +0.000 OA
ENDBRANCH  20  27
BRANCH  25  28
ATOM     28  C   UNL     1       2.233   4.836  21.018  0.00  0.00    +0.000 C 
BRANCH  28  29
ATOM     29  O   UNL     1       1.857   3.669  20.296  0.00  0.00    +0.000 OA
ATOM     30  H   UNL     1       1.134   3.257  20.798  0.00  0.00    +0.000 HD
ENDBRANCH  28  29
ENDBRANCH  25  28
ENDBRANCH   1  23
BRANCH  15  31
ATOM     31  C   UNL     1      -4.699  10.980  17.926  0.00  0.00    +0.000 C 
BRANCH  31  32
ATOM     32  C   UNL     1      -6.202  10.853  18.267  0.00  0.00    +0.000 C 
BRANCH  32  33
ATOM     33  N   UNL     1      -6.657  11.707  19.392  0.00  0.00    +0.000 NA
ATOM     34  C   UNL     1      -7.574  12.756  18.935  0.00  0.00    +0.000 C 
ATOM     35  C   UNL     1      -7.336  10.879  20.396  0.00  0.00    +0.000 C 
ENDBRANCH  32  33
ENDBRANCH  31  32
ENDBRANCH  15  31
TORSDOF 7
ENDMDL
MODEL 4
REMARK VINA RESULT:      -7.0      1.518      2.525
REMARK  Name = 
REMARK  11 active torsions:
REMARK  status: ('A' for Active; 'I' for Inactive)
REMARK    1  A    between atoms: C_1  and  O_2
REMARK    2  A    between atoms: O_2  and  C_3
REMARK    3  A    between atoms: C_6  and  C_7
REMARK    4  A    between atoms: C_17  and  C_18
REMARK    5  A    between atoms: N_21  and  C_22
REMARK    6  A    between atoms: C_22  and  C_23
REMARK    7  A    between atoms: C_23  and  N_24
REMARK    8  A    between atoms: N_24  and  C_25
REMARK    9  A    between atoms: N_24  and  C_26
REMARK   10  A    between atoms: C_31  and  C_32
REMARK   11  A    between atoms: C_32  and  O_33
REMARK                            x       y       z     vdW  Elec       q    Type
REMARK                         _______ _______ _______ _____ _____    ______ ____
ROOT
ATOM      1  C   UNL     1       0.678   9.781  19.740  0.00  0.00    +0.000 A 
ATOM      2  C   UNL     1       0.845  10.272  21.020  0.00  0.00    +0.000 A 
ATOM      3  C   UNL     1      -0.100  11.152  21.509  0.00  0.00    +0.000 A 
ATOM      4  C   UNL     1      -1.100  11.666  20.664  0.00  0.00    +0.000 A 
ATOM      5  C   UNL     1      -1.983  12.717  20.937  0.00  0.00    +0.000 A 
ATOM      6  N   UNL     1      -1.805  13.679  21.932  0.00  0.00    +0.000 N 
ATOM      7  C   UNL     1      -3.070  14.044  22.622  0.00  0.00    +0.000 C 
ATOM      8  C   UNL     1      -2.995  15.464  23.187  0.00  0.00    +0.000 C 
ATOM      9  O   UNL     1      -1.892  15.584  24.093  0.00  0.00    +0.000 OA
ATOM     10  C   UNL     1      -0.680  15.395  23.367  0.00  0.00    +0.000 C 
ATOM     11  C   UNL     1      -0.567  13.990  22.710  0.00  0.00    +0.000 C 
ATOM     12  C   UNL     1       0.734  14.082  21.894  0.00  0.00    +0.000 C 
ATOM     13  N   UNL     1      -3.059  12.889  20.138  0.00  0.00    +0.000 NA
ATOM     14  C   UNL     1      -3.180  12.149  19.032  0.00  0.00    +0.000 A 
ATOM     15  N   UNL     1      -4.340  12.297  18.283  0.00  0.00    +0.000 N 
ATOM     16  N   UNL     1      -2.256  11.293  18.630  0.00  0.00    +0.000 NA
ATOM     17  C   UNL     1      -1.237  11.054  19.423  0.00  0.00    +0.000 A 
ATOM     18  N   UNL     1      -0.369  10.156  18.978  0.00  0.00    +0.000 NA
ATOM     19  H   UNL     1      -5.070  12.653  18.895  0.00  0.00    +0.000 HD
ENDROOT
BRANCH   1  23
ATOM     20  C   UNL     1       3.436   6.855  18.281  0.00  0.00    +0.000 A 
ATOM     21  C   UNL     1       3.120   7.975  17.512  0.00  0.00    +0.000 A 
ATOM     22  C   UNL     1       2.194   8.899  17.972  0.00  0.00    +0.000 A 
ATOM     23  C   UNL     1       1.525   8.715  19.190  0.00  0.00    +0.000 A 
ATOM     24  C   UNL     1       1.760   7.519  19.890  0.00  0.00    +0.000 A 
ATOM     25  C   UNL     1       2.703   6.573  19.443  0.00  0.00    +0.000 A 
BRANCH  20  27
ATOM     26  C   UNL     1       4.888   6.117  16.582  0.00  0.00    +0.000 C 
ATOM     27  O   UNL     1       4.463   6.014  17.946  0.00  0.00    +0.000 OA
ENDBRANCH  20  27
BRANCH  25  28
ATOM     28  C   UNL     1       2.887   5.305  20.236  0.00  0.00    +0.000 C 
BRANCH  28  29
ATOM     29  O   UNL     1       2.802   4.161  19.395  0.00  0.00    +0.000 OA
ATOM     30  H   UNL     1       3.715   3.882  19.216  0.00  0.00    +0.000 HD
ENDBRANCH  28  29
ENDBRANCH  25  28
ENDBRANCH   1  23
BRANCH  15  31
ATOM     31  C   UNL     1      -4.748  11.119  17.515  0.00  0.00    +0.000 C 
BRANCH  31  32
ATOM     32  C   UNL     1      -4.377  11.254  16.019  0.00  0.00    +0.000 C 
BRANCH  32  33
ATOM     33  N   UNL     1      -3.852  10.013  15.397  0.00  0.00    +0.000 NA
ATOM     34  C   UNL     1      -3.946  10.062  13.934  0.00  0.00    +0.000 C 
ATOM     35  C   UNL     1      -2.449   9.823  15.783  0.00  0.00    +0.000 C 
ENDBRANCH  32  33
ENDBRANCH  31  32
ENDBRANCH  15  31
TORSDOF 7
ENDMDL
MODEL 5
REMARK VINA RESULT:      -7.0      0.738      1.649
REMARK  Name = 
REMARK  11 active torsions:
REMARK  status: ('A' for Active; 'I' for Inactive)
REMARK    1  A    between atoms: C_1  and  O_2
REMARK    2  A    between atoms: O_2  and  C_3
REMARK    3  A    between atoms: C_6  and  C_7
REMARK    4  A    between atoms: C_17  and  C_18
REMARK    5  A    between atoms: N_21  and  C_22
REMARK    6  A    between atoms: C_22  and  C_23
REMARK    7  A    between atoms: C_23  and  N_24
REMARK    8  A    between atoms: N_24  and  C_25
REMARK    9  A    between atoms: N_24  and  C_26
REMARK   10  A    between atoms: C_31  and  C_32
REMARK   11  A    between atoms: C_32  and  O_33
REMARK                            x       y       z     vdW  Elec       q    Type
REMARK                         _______ _______ _______ _____ _____    ______ ____
ROOT
ATOM      1  C   UNL     1       1.361   8.709  18.987  0.00  0.00    +0.000 A 
ATOM      2  C   UNL     1       1.120   9.142  20.275  0.00  0.00    +0.000 A 
ATOM      3  C   UNL     1       0.053   9.993  20.487  0.00  0.00    +0.000 A 
ATOM      4  C   UNL     1      -0.650  10.539  19.398  0.00  0.00    +0.000 A 
ATOM      5  C   UNL     1      -1.595  11.572  19.430  0.00  0.00    +0.000 A 
ATOM      6  N   UNL     1      -1.748  12.489  20.470  0.00  0.00    +0.000 N 
ATOM      7  C   UNL     1      -3.170  12.815  20.754  0.00  0.00    +0.000 C 
ATOM      8  C   UNL     1      -3.299  14.209  21.373  0.00  0.00    +0.000 C 
ATOM      9  O   UNL     1      -2.529  14.295  22.577  0.00  0.00    +0.000 OA
ATOM     10  C   UNL     1      -1.149  14.146  22.250  0.00  0.00    +0.000 C 
ATOM     11  C   UNL     1      -0.813  12.772  21.602  0.00  0.00    +0.000 C 
ATOM     12  C   UNL     1       0.673  12.908  21.228  0.00  0.00    +0.000 C 
ATOM     13  N   UNL     1      -2.377  11.774  18.347  0.00  0.00    +0.000 NA
ATOM     14  C   UNL     1      -2.140  11.083  17.228  0.00  0.00    +0.000 A 
ATOM     15  N   UNL     1      -3.018  11.258  16.166  0.00  0.00    +0.000 N 
ATOM     16  N   UNL     1      -1.122  10.251  17.094  0.00  0.00    +0.000 NA
ATOM     17  C   UNL     1      -0.389   9.983  18.151  0.00  0.00    +0.000 A 
ATOM     18  N   UNL     1       0.591   9.111  17.957  0.00  0.00    +0.000 NA
ATOM     19  H   UNL     1      -3.907  11.581  16.540  0.00  0.00    +0.000 HD
ENDROOT
BRANCH   1  23
ATOM     20  C   UNL     1       4.499   5.882  18.302  0.00  0.00    +0.000 A 
ATOM     21  C   UNL     1       4.352   6.991  17.470  0.00  0.00    +0.000 A 
ATOM     22  C   UNL     1       3.308   7.882  17.671  0.00  0.00    +0.000 A 
ATOM     23  C   UNL     1       2.357   7.673  18.679  0.00  0.00    +0.000 A 
ATOM     24  C   UNL     1       2.446   6.485  19.425  0.00  0.00    +0.000 A 
ATOM     25  C   UNL     1       3.503   5.573  19.241  0.00  0.00    +0.000 A 
BRANCH  20  27
ATOM     26  C   UNL     1       6.710   5.541  19.031  0.00  0.00    +0.000 C 
ATOM     27  O   UNL     1       5.606   5.078  18.247  0.00  0.00    +0.000 OA
ENDBRANCH  20  27
BRANCH  25  28
ATOM     28  C   UNL     1       3.522   4.311  20.064  0.00  0.00    +0.000 C 
BRANCH  28  29
ATOM     29  O   UNL     1       3.538   3.159  19.230  0.00  0.00    +0.000 OA
ATOM     30  H   UNL     1       3.716   2.401  19.811  0.00  0.00    +0.000 HD
ENDBRANCH  28  29
ENDBRANCH  25  28
ENDBRANCH   1  23
BRANCH  15  31
ATOM     31  C   UNL     1      -3.149  10.113  15.263  0.00  0.00    +0.000 C 
BRANCH  31  32
ATOM     32  C   UNL     1      -4.237  10.351  14.190  0.00  0.00    +0.000 C 
BRANCH  32  33
ATOM     33  N   UNL     1      -3.769  10.208  12.790  0.00  0.00    +0.000 NA
ATOM     34  C   UNL     1      -2.585   9.346  12.702  0.00  0.00    +0.000 C 
ATOM     35  C   UNL     1      -4.842   9.635  11.967  0.00  0.00    +0.000 C 
ENDBRANCH  32  33
ENDBRANCH  31  32
ENDBRANCH  15  31
TORSDOF 7
ENDMDL
MODEL 6
REMARK VINA RESULT:      -6.9      2.072      2.665
REMARK  Name = 
REMARK  11 active torsions:
REMARK  status: ('A' for Active; 'I' for Inactive)
REMARK    1  A    between atoms: C_1  and  O_2
REMARK    2  A    between atoms: O_2  and  C_3
REMARK    3  A    between atoms: C_6  and  C_7
REMARK    4  A    between atoms: C_17  and  C_18
REMARK    5  A    between atoms: N_21  and  C_22
REMARK    6  A    between atoms: C_22  and  C_23
REMARK    7  A    between atoms: C_23  and  N_24
REMARK    8  A    between atoms: N_24  and  C_25
REMARK    9  A    between atoms: N_24  and  C_26
REMARK   10  A    between atoms: C_31  and  C_32
REMARK   11  A    between atoms: C_32  and  O_33
REMARK                            x       y       z     vdW  Elec       q    Type
REMARK                         _______ _______ _______ _____ _____    ______ ____
ROOT
ATOM      1  C   UNL     1       1.381   8.771  19.955  0.00  0.00    +0.000 A 
ATOM      2  C   UNL     1       1.485   9.539  21.098  0.00  0.00    +0.000 A 
ATOM      3  C   UNL     1       0.796  10.735  21.144  0.00  0.00    +0.000 A 
ATOM      4  C   UNL     1       0.157  11.233  19.995  0.00  0.00    +0.000 A 
ATOM      5  C   UNL     1      -0.386  12.511  19.812  0.00  0.00    +0.000 A 
ATOM      6  N   UNL     1      -0.079  13.631  20.584  0.00  0.00    +0.000 N 
ATOM      7  C   UNL     1      -1.260  14.491  20.859  0.00  0.00    +0.000 C 
ATOM      8  C   UNL     1      -0.838  15.942  21.098  0.00  0.00    +0.000 C 
ATOM      9  O   UNL     1       0.086  16.020  22.189  0.00  0.00    +0.000 OA
ATOM     10  C   UNL     1       1.279  15.327  21.830  0.00  0.00    +0.000 C 
ATOM     11  C   UNL     1       1.052  13.815  21.545  0.00  0.00    +0.000 C 
ATOM     12  C   UNL     1       2.430  13.333  21.059  0.00  0.00    +0.000 C 
ATOM     13  N   UNL     1      -1.211  12.726  18.764  0.00  0.00    +0.000 NA
ATOM     14  C   UNL     1      -1.378  11.763  17.852  0.00  0.00    +0.000 A 
ATOM     15  N   UNL     1      -2.297  11.992  16.836  0.00  0.00    +0.000 N 
ATOM     16  N   UNL     1      -0.715  10.619  17.878  0.00  0.00    +0.000 NA
ATOM     17  C   UNL     1       0.037  10.356  18.923  0.00  0.00    +0.000 A 
ATOM     18  N   UNL     1       0.641   9.175  18.905  0.00  0.00    +0.000 NA
ATOM     19  H   UNL     1      -2.968  12.682  17.166  0.00  0.00    +0.000 HD
ENDROOT
BRANCH   1  23
ATOM     20  C   UNL     1       2.661   4.709  19.545  0.00  0.00    +0.000 A 
ATOM     21  C   UNL     1       1.955   5.117  20.676  0.00  0.00    +0.000 A 
ATOM     22  C   UNL     1       1.579   6.445  20.823  0.00  0.00    +0.000 A 
ATOM     23  C   UNL     1       1.930   7.410  19.870  0.00  0.00    +0.000 A 
ATOM     24  C   UNL     1       2.750   7.007  18.803  0.00  0.00    +0.000 A 
ATOM     25  C   UNL     1       3.135   5.663  18.632  0.00  0.00    +0.000 A 
BRANCH  20  27
ATOM     26  C   UNL     1       1.723   2.618  19.011  0.00  0.00    +0.000 C 
ATOM     27  O   UNL     1       2.900   3.387  19.280  0.00  0.00    +0.000 OA
ENDBRANCH  20  27
BRANCH  25  28
ATOM     28  C   UNL     1       4.031   5.308  17.474  0.00  0.00    +0.000 C 
BRANCH  28  29
ATOM     29  O   UNL     1       5.147   4.541  17.909  0.00  0.00    +0.000 OA
ATOM     30  H   UNL     1       5.384   3.957  17.170  0.00  0.00    +0.000 HD
ENDBRANCH  28  29
ENDBRANCH  25  28
ENDBRANCH   1  23
BRANCH  15  31
ATOM     31  C   UNL     1      -2.923  10.795  16.273  0.00  0.00    +0.000 C 
BRANCH  31  32
ATOM     32  C   UNL     1      -4.466  10.863  16.352  0.00  0.00    +0.000 C 
BRANCH  32  33
ATOM     33  N   UNL     1      -4.993  11.670  17.480  0.00  0.00    +0.000 NA
ATOM     34  C   UNL     1      -5.948  12.683  17.017  0.00  0.00    +0.000 C 
ATOM     35  C   UNL     1      -5.658  10.790  18.448  0.00  0.00    +0.000 C 
ENDBRANCH  32  33
ENDBRANCH  31  32
ENDBRANCH  15  31
TORSDOF 7
ENDMDL
MODEL 7
REMARK VINA RESULT:      -6.8      2.272      3.343
REMARK  Name = 
REMARK  11 active torsions:
REMARK  status: ('A' for Active; 'I' for Inactive)
REMARK    1  A    between atoms: C_1  and  O_2
REMARK    2  A    between atoms: O_2  and  C_3
REMARK    3  A    between atoms: C_6  and  C_7
REMARK    4  A    between atoms: C_17  and  C_18
REMARK    5  A    between atoms: N_21  and  C_22
REMARK    6  A    between atoms: C_22  and  C_23
REMARK    7  A    between atoms: C_23  and  N_24
REMARK    8  A    between atoms: N_24  and  C_25
REMARK    9  A    between atoms: N_24  and  C_26
REMARK   10  A    between atoms: C_31  and  C_32
REMARK   11  A    between atoms: C_32  and  O_33
REMARK                            x       y       z     vdW  Elec       q    Type
REMARK                         _______ _______ _______ _____ _____    ______ ____
ROOT
ATOM      1  C   UNL     1       1.323   8.891  19.783  0.00  0.00    +0.000 A 
ATOM      2  C   UNL     1       1.588   9.627  20.922  0.00  0.00    +0.000 A 
ATOM      3  C   UNL     1       0.878  10.794  21.122  0.00  0.00    +0.000 A 
ATOM      4  C   UNL     1       0.044  11.304  20.111  0.00  0.00    +0.000 A 
ATOM      5  C   UNL     1      -0.561  12.566  20.066  0.00  0.00    +0.000 A 
ATOM      6  N   UNL     1      -0.168  13.673  20.818  0.00  0.00    +0.000 N 
ATOM      7  C   UNL     1      -1.315  14.478  21.312  0.00  0.00    +0.000 C 
ATOM      8  C   UNL     1      -0.905  15.937  21.533  0.00  0.00    +0.000 C 
ATOM      9  O   UNL     1       0.182  16.015  22.461  0.00  0.00    +0.000 OA
ATOM     10  C   UNL     1       1.322  15.379  21.888  0.00  0.00    +0.000 C 
ATOM     11  C   UNL     1       1.099  13.869  21.588  0.00  0.00    +0.000 C 
ATOM     12  C   UNL     1       2.394  13.453  20.868  0.00  0.00    +0.000 C 
ATOM     13  N   UNL     1      -1.553  12.782  19.174  0.00  0.00    +0.000 NA
ATOM     14  C   UNL     1      -1.836  11.843  18.267  0.00  0.00    +0.000 A 
ATOM     15  N   UNL     1      -2.915  12.069  17.422  0.00  0.00    +0.000 N 
ATOM     16  N   UNL     1      -1.142  10.724  18.143  0.00  0.00    +0.000 NA
ATOM     17  C   UNL     1      -0.221  10.457  19.041  0.00  0.00    +0.000 A 
ATOM     18  N   UNL     1       0.409   9.301  18.882  0.00  0.00    +0.000 NA
ATOM     19  H   UNL     1      -3.545  12.722  17.881  0.00  0.00    +0.000 HD
ENDROOT
BRANCH   1  23
ATOM     20  C   UNL     1       3.290   5.122  19.305  0.00  0.00    +0.000 A 
ATOM     21  C   UNL     1       3.436   6.123  18.346  0.00  0.00    +0.000 A 
ATOM     22  C   UNL     1       2.763   7.328  18.485  0.00  0.00    +0.000 A 
ATOM     23  C   UNL     1       1.893   7.556  19.560  0.00  0.00    +0.000 A 
ATOM     24  C   UNL     1       1.659   6.492  20.447  0.00  0.00    +0.000 A 
ATOM     25  C   UNL     1       2.339   5.264  20.327  0.00  0.00    +0.000 A 
BRANCH  20  27
ATOM     26  C   UNL     1       3.880   3.162  18.145  0.00  0.00    +0.000 C 
ATOM     27  O   UNL     1       4.064   3.993  19.296  0.00  0.00    +0.000 OA
ENDBRANCH  20  27
BRANCH  25  28
ATOM     28  C   UNL     1       2.021   4.162  21.304  0.00  0.00    +0.000 C 
BRANCH  28  29
ATOM     29  O   UNL     1       0.895   3.408  20.874  0.00  0.00    +0.000 OA
ATOM     30  H   UNL     1       0.709   3.686  19.962  0.00  0.00    +0.000 HD
ENDBRANCH  28  29
ENDBRANCH  25  28
ENDBRANCH   1  23
BRANCH  15  31
ATOM     31  C   UNL     1      -3.587  10.867  16.925  0.00  0.00    +0.000 C 
BRANCH  31  32
ATOM     32  C   UNL     1      -5.052  10.785  17.413  0.00  0.00    +0.000 C 
BRANCH  32  33
ATOM     33  N   UNL     1      -5.547  12.007  18.093  0.00  0.00    +0.000 NA
ATOM     34  C   UNL     1      -6.555  12.702  17.286  0.00  0.00    +0.000 C 
ATOM     35  C   UNL     1      -6.135  11.646  19.389  0.00  0.00    +0.000 C 
ENDBRANCH  32  33
ENDBRANCH  31  32
ENDBRANCH  15  31
TORSDOF 7
ENDMDL
MODEL 8
REMARK VINA RESULT:      -6.8      0.983      1.800
REMARK  Name = 
REMARK  11 active torsions:
REMARK  status: ('A' for Active; 'I' for Inactive)
REMARK    1  A    between atoms: C_1  and  O_2
REMARK    2  A    between atoms: O_2  and  C_3
REMARK    3  A    between atoms: C_6  and  C_7
REMARK    4  A    between atoms: C_17  and  C_18
REMARK    5  A    between atoms: N_21  and  C_22
REMARK    6  A    between atoms: C_22  and  C_23
REMARK    7  A    between atoms: C_23  and  N_24
REMARK    8  A    between atoms: N_24  and  C_25
REMARK    9  A    between atoms: N_24  and  C_26
REMARK   10  A    between atoms: C_31  and  C_32
REMARK   11  A    between atoms: C_32  and  O_33
REMARK                            x       y       z     vdW  Elec       q    Type
REMARK                         _______ _______ _______ _____ _____    ______ ____
ROOT
ATOM      1  C   UNL     1       1.600   8.476  18.723  0.00  0.00    +0.000 A 
ATOM      2  C   UNL     1       1.525   8.920  20.029  0.00  0.00    +0.000 A 
ATOM      3  C   UNL     1       0.521   9.809  20.358  0.00  0.00    +0.000 A 
ATOM      4  C   UNL     1      -0.284  10.377  19.355  0.00  0.00    +0.000 A 
ATOM      5  C   UNL     1      -1.182  11.443  19.490  0.00  0.00    +0.000 A 
ATOM      6  N   UNL     1      -1.180  12.367  20.536  0.00  0.00    +0.000 N 
ATOM      7  C   UNL     1      -2.547  12.744  20.981  0.00  0.00    +0.000 C 
ATOM      8  C   UNL     1      -2.555  14.142  21.603  0.00  0.00    +0.000 C 
ATOM      9  O   UNL     1      -1.647  14.203  22.709  0.00  0.00    +0.000 OA
ATOM     10  C   UNL     1      -0.321  14.004  22.225  0.00  0.00    +0.000 C 
ATOM     11  C   UNL     1      -0.111  12.618  21.551  0.00  0.00    +0.000 C 
ATOM     12  C   UNL     1       1.325  12.701  21.005  0.00  0.00    +0.000 C 
ATOM     13  N   UNL     1      -2.077  11.671  18.505  0.00  0.00    +0.000 NA
ATOM     14  C   UNL     1      -1.997  10.971  17.370  0.00  0.00    +0.000 A 
ATOM     15  N   UNL     1      -2.985  11.175  16.416  0.00  0.00    +0.000 N 
ATOM     16  N   UNL     1      -1.030  10.103  17.122  0.00  0.00    +0.000 NA
ATOM     17  C   UNL     1      -0.190   9.811  18.089  0.00  0.00    +0.000 A 
ATOM     18  N   UNL     1       0.730   8.904  17.787  0.00  0.00    +0.000 NA
ATOM     19  H   UNL     1      -3.813  11.530  16.889  0.00  0.00    +0.000 HD
ENDROOT
BRANCH   1  23
ATOM     20  C   UNL     1       4.490   5.463  17.791  0.00  0.00    +0.000 A 
ATOM     21  C   UNL     1       4.586   6.734  17.226  0.00  0.00    +0.000 A 
ATOM     22  C   UNL     1       3.623   7.694  17.498  0.00  0.00    +0.000 A 
ATOM     23  C   UNL     1       2.516   7.405  18.308  0.00  0.00    +0.000 A 
ATOM     24  C   UNL     1       2.368   6.084  18.764  0.00  0.00    +0.000 A 
ATOM     25  C   UNL     1       3.339   5.098  18.504  0.00  0.00    +0.000 A 
BRANCH  20  27
ATOM     26  C   UNL     1       6.000   4.368  16.356  0.00  0.00    +0.000 C 
ATOM     27  O   UNL     1       5.503   4.547  17.686  0.00  0.00    +0.000 OA
ENDBRANCH  20  27
BRANCH  25  28
ATOM     28  C   UNL     1       3.103   3.698  19.010  0.00  0.00    +0.000 C 
BRANCH  28  29
ATOM     29  O   UNL     1       3.190   2.752  17.951  0.00  0.00    +0.000 OA
ATOM     30  H   UNL     1       2.498   2.989  17.313  0.00  0.00    +0.000 HD
ENDBRANCH  28  29
ENDBRANCH  25  28
ENDBRANCH   1  23
BRANCH  15  31
ATOM     31  C   UNL     1      -3.260  10.035  15.540  0.00  0.00    +0.000 C 
BRANCH  31  32
ATOM     32  C   UNL     1      -4.041  10.459  14.275  0.00  0.00    +0.000 C 
BRANCH  32  33
ATOM     33  N   UNL     1      -3.890   9.544  13.117  0.00  0.00    +0.000 NA
ATOM     34  C   UNL     1      -4.643  10.020  11.951  0.00  0.00    +0.000 C 
ATOM     35  C   UNL     1      -2.471   9.433  12.759  0.00  0.00    +0.000 C 
ENDBRANCH  32  33
ENDBRANCH  31  32
ENDBRANCH  15  31
TORSDOF 7
ENDMDL
MODEL 9
REMARK VINA RESULT:      -6.8      1.620      2.604
REMARK  Name = 
REMARK  11 active torsions:
REMARK  status: ('A' for Active; 'I' for Inactive)
REMARK    1  A    between atoms: C_1  and  O_2
REMARK    2  A    between atoms: O_2  and  C_3
REMARK    3  A    between atoms: C_6  and  C_7
REMARK    4  A    between atoms: C_17  and  C_18
REMARK    5  A    between atoms: N_21  and  C_22
REMARK    6  A    between atoms: C_22  and  C_23
REMARK    7  A    between atoms: C_23  and  N_24
REMARK    8  A    between atoms: N_24  and  C_25
REMARK    9  A    between atoms: N_24  and  C_26
REMARK   10  A    between atoms: C_31  and  C_32
REMARK   11  A    between atoms: C_32  and  O_33
REMARK                            x       y       z     vdW  Elec       q    Type
REMARK                         _______ _______ _______ _____ _____    ______ ____
ROOT
ATOM      1  C   UNL     1       1.040   9.279  19.895  0.00  0.00    +0.000 A 
ATOM      2  C   UNL     1       1.304   9.972  21.060  0.00  0.00    +0.000 A 
ATOM      3  C   UNL     1       0.509  11.059  21.365  0.00  0.00    +0.000 A 
ATOM      4  C   UNL     1      -0.420  11.547  20.429  0.00  0.00    +0.000 A 
ATOM      5  C   UNL     1      -1.133  12.751  20.490  0.00  0.00    +0.000 A 
ATOM      6  N   UNL     1      -0.794  13.846  21.286  0.00  0.00    +0.000 N 
ATOM      7  C   UNL     1      -1.977  14.519  21.883  0.00  0.00    +0.000 C 
ATOM      8  C   UNL     1      -1.682  15.993  22.169  0.00  0.00    +0.000 C 
ATOM      9  O   UNL     1      -0.555  16.117  23.044  0.00  0.00    +0.000 OA
ATOM     10  C   UNL     1       0.601  15.616  22.378  0.00  0.00    +0.000 C 
ATOM     11  C   UNL     1       0.492  14.111  22.001  0.00  0.00    +0.000 C 
ATOM     12  C   UNL     1       1.775  13.851  21.193  0.00  0.00    +0.000 C 
ATOM     13  N   UNL     1      -2.187  12.927  19.664  0.00  0.00    +0.000 NA
ATOM     14  C   UNL     1      -2.439  12.017  18.718  0.00  0.00    +0.000 A 
ATOM     15  N   UNL     1      -3.579  12.193  17.944  0.00  0.00    +0.000 N 
ATOM     16  N   UNL     1      -1.660  10.973  18.494  0.00  0.00    +0.000 NA
ATOM     17  C   UNL     1      -0.671  10.739  19.326  0.00  0.00    +0.000 A 
ATOM     18  N   UNL     1       0.045   9.654  19.068  0.00  0.00    +0.000 NA
ATOM     19  H   UNL     1      -4.236  12.762  18.473  0.00  0.00    +0.000 HD
ENDROOT
BRANCH   1  23
ATOM     20  C   UNL     1       3.294   5.732  19.090  0.00  0.00    +0.000 A 
ATOM     21  C   UNL     1       3.282   6.786  18.177  0.00  0.00    +0.000 A 
ATOM     22  C   UNL     1       2.516   7.916  18.423  0.00  0.00    +0.000 A 
ATOM     23  C   UNL     1       1.709   8.013  19.565  0.00  0.00    +0.000 A 
ATOM     24  C   UNL     1       1.634   6.892  20.409  0.00  0.00    +0.000 A 
ATOM     25  C   UNL     1       2.410   5.739  20.179  0.00  0.00    +0.000 A 
BRANCH  20  27
ATOM     26  C   UNL     1       5.537   5.027  19.165  0.00  0.00    +0.000 C 
ATOM     27  O   UNL     1       4.162   4.681  18.970  0.00  0.00    +0.000 OA
ENDBRANCH  20  27
BRANCH  25  28
ATOM     28  C   UNL     1       2.262   4.569  21.116  0.00  0.00    +0.000 C 
BRANCH  28  29
ATOM     29  O   UNL     1       1.178   3.735  20.724  0.00  0.00    +0.000 OA
ATOM     30  H   UNL     1       0.553   3.728  21.468  0.00  0.00    +0.000 HD
ENDBRANCH  28  29
ENDBRANCH  25  28
ENDBRANCH   1  23
BRANCH  15  31
ATOM     31  C   UNL     1      -4.172  10.965  17.411  0.00  0.00    +0.000 C 
BRANCH  31  32
ATOM     32  C   UNL     1      -4.438  11.070  15.891  0.00  0.00    +0.000 C 
BRANCH  32  33
ATOM     33  N   UNL     1      -3.315  10.621  15.032  0.00  0.00    +0.000 NA
ATOM     34  C   UNL     1      -2.517   9.580  15.690  0.00  0.00    +0.000 C 
ATOM     35  C   UNL     1      -3.842  10.095  13.767  0.00  0.00    +0.000 C 
ENDBRANCH  32  33
ENDBRANCH  31  32
ENDBRANCH  15  31
TORSDOF 7
ENDMDL
