MODEL 1
REMARK VINA RESULT:      -8.1      0.000      0.000
REMARK  Name = 
REMARK  5 active torsions:
REMARK  status: ('A' for Active; 'I' for Inactive)
REMARK    1  A    between atoms: N_3  and  C_4
REMARK    2  A    between atoms: N_11  and  C_12
REMARK    3  A    between atoms: N_11  and  C_18
REMARK    4  A    between atoms: C_12  and  C_13
REMARK    5  A    between atoms: C_18  and  C_19
REMARK                            x       y       z     vdW  Elec       q    Type
REMARK                         _______ _______ _______ _____ _____    ______ ____
ROOT
ATOM      1  O   UNL     1       5.082   6.964  17.446  0.00  0.00    +0.000 OA
ATOM      2  C   UNL     1       4.580   6.084  18.143  0.00  0.00    +0.000 C 
ATOM      3  N   UNL     1       3.452   6.276  18.906  0.00  0.00    +0.000 N 
ATOM      4  N   UNL     1       5.180   4.824  18.274  0.00  0.00    +0.000 N 
ATOM      5  H   UNL     1       3.369   5.679  19.712  0.00  0.00    +0.000 HD
ENDROOT
BRANCH   3   6
ATOM      6  C   UNL     1       2.610   7.418  18.916  0.00  0.00    +0.000 A 
ATOM      7  C   UNL     1       2.350   8.213  17.796  0.00  0.00    +0.000 A 
ATOM      8  C   UNL     1       1.464   9.303  17.878  0.00  0.00    +0.000 A 
ATOM      9  C   UNL     1       0.839   9.610  19.083  0.00  0.00    +0.000 A 
ATOM     10  C   UNL     1       1.100   8.824  20.194  0.00  0.00    +0.000 A 
ATOM     11  F   UNL     1       0.521   9.123  21.368  0.00  0.00    +0.000 F 
ATOM     12  C   UNL     1       1.964   7.732  20.121  0.00  0.00    +0.000 A 
ENDBRANCH   3   6
BRANCH   4  13
ATOM     13  C   UNL     1       6.526   4.672  17.714  0.00  0.00    +0.000 C 
BRANCH  13  14
ATOM     14  C   UNL     1       6.549   4.426  16.246  0.00  0.00    +0.000 A 
ATOM     15  C   UNL     1       5.715   3.734  15.388  0.00  0.00    +0.000 A 
ATOM     16  C   UNL     1       6.117   4.076  14.073  0.00  0.00    +0.000 A 
ATOM     17  C   UNL     1       7.202   4.910  14.208  0.00  0.00    +0.000 A 
ATOM     18  O   UNL     1       7.477   5.121  15.522  0.00  0.00    +0.000 OA
ENDBRANCH  13  14
ENDBRANCH   4  13
BRANCH   4  19
ATOM     19  C   UNL     1       4.550   3.615  18.843  0.00  0.00    +0.000 C 
BRANCH  19  20
ATOM     20  C   UNL     1       3.540   2.897  17.913  0.00  0.00    +0.000 C 
ATOM     21  C   UNL     1       3.020   1.573  18.460  0.00  0.00    +0.000 C 
ATOM     22  C   UNL     1       1.852   2.023  19.304  0.00  0.00    +0.000 C 
ATOM     23  C   UNL     1       1.255   3.092  18.417  0.00  0.00    +0.000 C 
ATOM     24  O   UNL     1       2.368   3.737  17.773  0.00  0.00    +0.000 OA
ENDBRANCH  19  20
ENDBRANCH   4  19
TORSDOF 5
ENDMDL
MODEL 2
REMARK VINA RESULT:      -7.8      0.819      1.018
REMARK  Name = 
REMARK  5 active torsions:
REMARK  status: ('A' for Active; 'I' for Inactive)
REMARK    1  A    between atoms: N_3  and  C_4
REMARK    2  A    between atoms: N_11  and  C_12
REMARK    3  A    between atoms: N_11  and  C_18
REMARK    4  A    between atoms: C_12  and  C_13
REMARK    5  A    between atoms: C_18  and  C_19
REMARK                            x       y       z     vdW  Elec       q    Type
REMARK                         _______ _______ _______ _____ _____    ______ ____
ROOT
ATOM      1  O   UNL     1       5.192   6.979  17.587  0.00  0.00    +0.000 OA
ATOM      2  C   UNL     1       4.387   6.053  17.669  0.00  0.00    +0.000 C 
ATOM      3  N   UNL     1       3.116   6.199  18.176  0.00  0.00    +0.000 N 
ATOM      4  N   UNL     1       4.741   4.743  17.320  0.00  0.00    +0.000 N 
ATOM      5  H   UNL     1       2.711   5.367  18.572  0.00  0.00    +0.000 HD
ENDROOT
BRANCH   3   6
ATOM      6  C   UNL     1       2.475   7.411  18.539  0.00  0.00    +0.000 A 
ATOM      7  C   UNL     1       2.206   8.456  17.650  0.00  0.00    +0.000 A 
ATOM      8  C   UNL     1       1.521   9.608  18.080  0.00  0.00    +0.000 A 
ATOM      9  C   UNL     1       1.109   9.726  19.404  0.00  0.00    +0.000 A 
ATOM     10  C   UNL     1       1.379   8.692  20.286  0.00  0.00    +0.000 A 
ATOM     11  F   UNL     1       1.007   8.804  21.571  0.00  0.00    +0.000 F 
ATOM     12  C   UNL     1       2.043   7.540  19.867  0.00  0.00    +0.000 A 
ENDBRANCH   3   6
BRANCH   4  13
ATOM     13  C   UNL     1       6.161   4.491  17.053  0.00  0.00    +0.000 C 
BRANCH  13  14
ATOM     14  C   UNL     1       6.498   4.400  15.606  0.00  0.00    +0.000 A 
ATOM     15  C   UNL     1       5.951   3.701  14.547  0.00  0.00    +0.000 A 
ATOM     16  C   UNL     1       6.544   4.222  13.371  0.00  0.00    +0.000 A 
ATOM     17  C   UNL     1       7.453   5.166  13.786  0.00  0.00    +0.000 A 
ATOM     18  O   UNL     1       7.439   5.276  15.140  0.00  0.00    +0.000 OA
ENDBRANCH  13  14
ENDBRANCH   4  13
BRANCH   4  19
ATOM     19  C   UNL     1       3.810   3.615  17.113  0.00  0.00    +0.000 C 
BRANCH  19  20
ATOM     20  C   UNL     1       3.859   2.509  18.198  0.00  0.00    +0.000 C 
ATOM     21  C   UNL     1       4.063   3.033  19.614  0.00  0.00    +0.000 C 
ATOM     22  C   UNL     1       2.646   3.326  20.044  0.00  0.00    +0.000 C 
ATOM     23  C   UNL     1       1.920   2.131  19.468  0.00  0.00    +0.000 C 
ATOM     24  O   UNL     1       2.577   1.834  18.223  0.00  0.00    +0.000 OA
ENDBRANCH  19  20
ENDBRANCH   4  19
TORSDOF 5
ENDMDL
MODEL 3
REMARK VINA RESULT:      -7.6      2.040      2.723
REMARK  Name = 
REMARK  5 active torsions:
REMARK  status: ('A' for Active; 'I' for Inactive)
REMARK    1  A    between atoms: N_3  and  C_4
REMARK    2  A    between atoms: N_11  and  C_12
REMARK    3  A    between atoms: N_11  and  C_18
REMARK    4  A    between atoms: C_12  and  C_13
REMARK    5  A    between atoms: C_18  and  C_19
REMARK                            x       y       z     vdW  Elec       q    Type
REMARK                         _______ _______ _______ _____ _____    ______ ____
ROOT
ATOM      1  O   UNL     1       2.117   7.864  17.910  0.00  0.00    +0.000 OA
ATOM      2  C   UNL     1       2.473   7.210  18.889  0.00  0.00    +0.000 C 
ATOM      3  N   UNL     1       2.172   7.566  20.184  0.00  0.00    +0.000 N 
ATOM      4  N   UNL     1       3.293   6.082  18.757  0.00  0.00    +0.000 N 
ATOM      5  H   UNL     1       2.817   7.236  20.883  0.00  0.00    +0.000 HD
ENDROOT
BRANCH   3   6
ATOM      6  C   UNL     1       1.312   8.611  20.606  0.00  0.00    +0.000 A 
ATOM      7  C   UNL     1       0.756   9.566  19.750  0.00  0.00    +0.000 A 
ATOM      8  C   UNL     1      -0.128  10.545  20.241  0.00  0.00    +0.000 A 
ATOM      9  C   UNL     1      -0.455  10.580  21.594  0.00  0.00    +0.000 A 
ATOM     10  C   UNL     1       0.099   9.636  22.443  0.00  0.00    +0.000 A 
ATOM     11  F   UNL     1      -0.190   9.673  23.754  0.00  0.00    +0.000 F 
ATOM     12  C   UNL     1       0.964   8.652  21.964  0.00  0.00    +0.000 A 
ENDBRANCH   3   6
BRANCH   4  13
ATOM     13  C   UNL     1       3.872   5.838  17.432  0.00  0.00    +0.000 C 
BRANCH  13  14
ATOM     14  C   UNL     1       5.360   5.881  17.404  0.00  0.00    +0.000 A 
ATOM     15  C   UNL     1       6.281   6.907  17.494  0.00  0.00    +0.000 A 
ATOM     16  C   UNL     1       7.548   6.297  17.663  0.00  0.00    +0.000 A 
ATOM     17  C   UNL     1       7.331   4.940  17.612  0.00  0.00    +0.000 A 
ATOM     18  O   UNL     1       6.008   4.677  17.447  0.00  0.00    +0.000 OA
ENDBRANCH  13  14
ENDBRANCH   4  13
BRANCH   4  19
ATOM     19  C   UNL     1       3.558   5.071  19.801  0.00  0.00    +0.000 C 
BRANCH  19  20
ATOM     20  C   UNL     1       2.961   3.667  19.526  0.00  0.00    +0.000 C 
ATOM     21  C   UNL     1       3.155   2.673  20.663  0.00  0.00    +0.000 C 
ATOM     22  C   UNL     1       1.958   2.960  21.536  0.00  0.00    +0.000 C 
ATOM     23  C   UNL     1       0.883   3.151  20.490  0.00  0.00    +0.000 C 
ATOM     24  O   UNL     1       1.526   3.800  19.379  0.00  0.00    +0.000 OA
ENDBRANCH  19  20
ENDBRANCH   4  19
TORSDOF 5
ENDMDL
MODEL 4
REMARK VINA RESULT:      -7.5      0.950      1.379
REMARK  Name = 
REMARK  5 active torsions:
REMARK  status: ('A' for Active; 'I' for Inactive)
REMARK    1  A    between atoms: N_3  and  C_4
REMARK    2  A    between atoms: N_11  and  C_12
REMARK    3  A    between atoms: N_11  and  C_18
REMARK    4  A    between atoms: C_12  and  C_13
REMARK    5  A    between atoms: C_18  and  C_19
REMARK                            x       y       z     vdW  Elec       q    Type
REMARK                         _______ _______ _______ _____ _____    ______ ____
ROOT
ATOM      1  O   UNL     1       4.931   6.888  17.790  0.00  0.00    +0.000 OA
ATOM      2  C   UNL     1       4.496   5.938  18.439  0.00  0.00    +0.000 C 
ATOM      3  N   UNL     1       3.410   6.030  19.279  0.00  0.00    +0.000 N 
ATOM      4  N   UNL     1       5.137   4.692  18.429  0.00  0.00    +0.000 N 
ATOM      5  H   UNL     1       3.393   5.366  20.036  0.00  0.00    +0.000 HD
ENDROOT
BRANCH   3   6
ATOM      6  C   UNL     1       2.540   7.139  19.433  0.00  0.00    +0.000 A 
ATOM      7  C   UNL     1       1.865   7.452  20.616  0.00  0.00    +0.000 A 
ATOM      8  C   UNL     1       1.055   8.600  20.701  0.00  0.00    +0.000 A 
ATOM      9  C   UNL     1       0.908   9.437  19.599  0.00  0.00    +0.000 A 
ATOM     10  C   UNL     1       1.574   9.125  18.425  0.00  0.00    +0.000 A 
ATOM     11  F   UNL     1       1.422   9.913  17.348  0.00  0.00    +0.000 F 
ATOM     12  C   UNL     1       2.391   7.999  18.335  0.00  0.00    +0.000 A 
ENDBRANCH   3   6
BRANCH   4  13
ATOM     13  C   UNL     1       6.451   4.630  17.782  0.00  0.00    +0.000 C 
BRANCH  13  14
ATOM     14  C   UNL     1       6.392   4.447  16.306  0.00  0.00    +0.000 A 
ATOM     15  C   UNL     1       5.379   4.096  15.434  0.00  0.00    +0.000 A 
ATOM     16  C   UNL     1       5.870   4.340  14.127  0.00  0.00    +0.000 A 
ATOM     17  C   UNL     1       7.166   4.772  14.279  0.00  0.00    +0.000 A 
ATOM     18  O   UNL     1       7.496   4.832  15.596  0.00  0.00    +0.000 OA
ENDBRANCH  13  14
ENDBRANCH   4  13
BRANCH   4  19
ATOM     19  C   UNL     1       4.576   3.420  18.930  0.00  0.00    +0.000 C 
BRANCH  19  20
ATOM     20  C   UNL     1       3.551   2.735  17.992  0.00  0.00    +0.000 C 
ATOM     21  C   UNL     1       2.900   1.490  18.581  0.00  0.00    +0.000 C 
ATOM     22  C   UNL     1       1.738   2.078  19.344  0.00  0.00    +0.000 C 
ATOM     23  C   UNL     1       1.270   3.141  18.376  0.00  0.00    +0.000 C 
ATOM     24  O   UNL     1       2.459   3.658  17.753  0.00  0.00    +0.000 OA
ENDBRANCH  19  20
ENDBRANCH   4  19
TORSDOF 5
ENDMDL
MODEL 5
REMARK VINA RESULT:      -7.5      2.326      3.028
REMARK  Name = 
REMARK  5 active torsions:
REMARK  status: ('A' for Active; 'I' for Inactive)
REMARK    1  A    between atoms: N_3  and  C_4
REMARK    2  A    between atoms: N_11  and  C_12
REMARK    3  A    between atoms: N_11  and  C_18
REMARK    4  A    between atoms: C_12  and  C_13
REMARK    5  A    between atoms: C_18  and  C_19
REMARK                            x       y       z     vdW  Elec       q    Type
REMARK                         _______ _______ _______ _____ _____    ______ ____
ROOT
ATOM      1  O   UNL     1       2.242   7.686  18.001  0.00  0.00    +0.000 OA
ATOM      2  C   UNL     1       2.475   7.053  19.030  0.00  0.00    +0.000 C 
ATOM      3  N   UNL     1       2.115   7.493  20.284  0.00  0.00    +0.000 N 
ATOM      4  N   UNL     1       3.206   5.859  19.005  0.00  0.00    +0.000 N 
ATOM      5  H   UNL     1       2.682   7.147  21.041  0.00  0.00    +0.000 HD
ENDROOT
BRANCH   3   6
ATOM      6  C   UNL     1       1.317   8.622  20.599  0.00  0.00    +0.000 A 
ATOM      7  C   UNL     1       0.913   9.583  19.668  0.00  0.00    +0.000 A 
ATOM      8  C   UNL     1       0.080  10.651  20.052  0.00  0.00    +0.000 A 
ATOM      9  C   UNL     1      -0.347  10.768  21.371  0.00  0.00    +0.000 A 
ATOM     10  C   UNL     1       0.057   9.817  22.295  0.00  0.00    +0.000 A 
ATOM     11  F   UNL     1      -0.330   9.931  23.576  0.00  0.00    +0.000 F 
ATOM     12  C   UNL     1       0.870   8.747  21.922  0.00  0.00    +0.000 A 
ENDBRANCH   3   6
BRANCH   4  13
ATOM     13  C   UNL     1       3.853   5.507  17.737  0.00  0.00    +0.000 C 
BRANCH  13  14
ATOM     14  C   UNL     1       5.296   5.868  17.671  0.00  0.00    +0.000 A 
ATOM     15  C   UNL     1       5.975   6.985  17.225  0.00  0.00    +0.000 A 
ATOM     16  C   UNL     1       7.315   6.843  17.660  0.00  0.00    +0.000 A 
ATOM     17  C   UNL     1       7.385   5.627  18.297  0.00  0.00    +0.000 A 
ATOM     18  O   UNL     1       6.167   5.023  18.302  0.00  0.00    +0.000 OA
ENDBRANCH  13  14
ENDBRANCH   4  13
BRANCH   4  19
ATOM     19  C   UNL     1       3.315   4.880  20.106  0.00  0.00    +0.000 C 
BRANCH  19  20
ATOM     20  C   UNL     1       1.993   4.584  20.859  0.00  0.00    +0.000 C 
ATOM     21  C   UNL     1       0.948   3.856  20.023  0.00  0.00    +0.000 C 
ATOM     22  C   UNL     1       1.335   2.411  20.230  0.00  0.00    +0.000 C 
ATOM     23  C   UNL     1       1.674   2.416  21.704  0.00  0.00    +0.000 C 
ATOM     24  O   UNL     1       2.284   3.692  21.963  0.00  0.00    +0.000 OA
ENDBRANCH  19  20
ENDBRANCH   4  19
TORSDOF 5
ENDMDL
MODEL 6
REMARK VINA RESULT:      -7.5      1.691      2.604
REMARK  Name = 
REMARK  5 active torsions:
REMARK  status: ('A' for Active; 'I' for Inactive)
REMARK    1  A    between atoms: N_3  and  C_4
REMARK    2  A    between atoms: N_11  and  C_12
REMARK    3  A    between atoms: N_11  and  C_18
REMARK    4  A    between atoms: C_12  and  C_13
REMARK    5  A    between atoms: C_18  and  C_19
REMARK                            x       y       z     vdW  Elec       q    Type
REMARK                         _______ _______ _______ _____ _____    ______ ____
ROOT
ATOM      1  O   UNL     1       2.712   8.686  18.025  0.00  0.00    +0.000 OA
ATOM      2  C   UNL     1       2.642   7.668  18.712  0.00  0.00    +0.000 C 
ATOM      3  N   UNL     1       1.998   7.621  19.927  0.00  0.00    +0.000 N 
ATOM      4  N   UNL     1       3.293   6.486  18.337  0.00  0.00    +0.000 N 
ATOM      5  H   UNL     1       2.334   6.919  20.566  0.00  0.00    +0.000 HD
ENDROOT
BRANCH   3   6
ATOM      6  C   UNL     1       1.205   8.639  20.515  0.00  0.00    +0.000 A 
ATOM      7  C   UNL     1       0.537   9.632  19.793  0.00  0.00    +0.000 A 
ATOM      8  C   UNL     1      -0.270  10.580  20.449  0.00  0.00    +0.000 A 
ATOM      9  C   UNL     1      -0.407  10.546  21.834  0.00  0.00    +0.000 A 
ATOM     10  C   UNL     1       0.259   9.564  22.551  0.00  0.00    +0.000 A 
ATOM     11  F   UNL     1       0.153   9.534  23.889  0.00  0.00    +0.000 F 
ATOM     12  C   UNL     1       1.048   8.611  21.909  0.00  0.00    +0.000 A 
ENDBRANCH   3   6
BRANCH   4  13
ATOM     13  C   UNL     1       4.223   6.574  17.207  0.00  0.00    +0.000 C 
BRANCH  13  14
ATOM     14  C   UNL     1       5.460   5.764  17.375  0.00  0.00    +0.000 A 
ATOM     15  C   UNL     1       6.010   4.714  16.664  0.00  0.00    +0.000 A 
ATOM     16  C   UNL     1       7.325   4.536  17.161  0.00  0.00    +0.000 A 
ATOM     17  C   UNL     1       7.478   5.449  18.177  0.00  0.00    +0.000 A 
ATOM     18  O   UNL     1       6.350   6.194  18.321  0.00  0.00    +0.000 OA
ENDBRANCH  13  14
ENDBRANCH   4  13
BRANCH   4  19
ATOM     19  C   UNL     1       3.066   5.146  18.915  0.00  0.00    +0.000 C 
BRANCH  19  20
ATOM     20  C   UNL     1       2.003   4.285  18.188  0.00  0.00    +0.000 C 
ATOM     21  C   UNL     1       2.582   3.279  17.200  0.00  0.00    +0.000 C 
ATOM     22  C   UNL     1       2.864   2.094  18.092  0.00  0.00    +0.000 C 
ATOM     23  C   UNL     1       1.635   2.102  18.973  0.00  0.00    +0.000 C 
ATOM     24  O   UNL     1       1.305   3.487  19.176  0.00  0.00    +0.000 OA
ENDBRANCH  19  20
ENDBRANCH   4  19
TORSDOF 5
ENDMDL
MODEL 7
REMARK VINA RESULT:      -7.4      1.898      2.521
REMARK  Name = 
REMARK  5 active torsions:
REMARK  status: ('A' for Active; 'I' for Inactive)
REMARK    1  A    between atoms: N_3  and  C_4
REMARK    2  A    between atoms: N_11  and  C_12
REMARK    3  A    between atoms: N_11  and  C_18
REMARK    4  A    between atoms: C_12  and  C_13
REMARK    5  A    between atoms: C_18  and  C_19
REMARK                            x       y       z     vdW  Elec       q    Type
REMARK                         _______ _______ _______ _____ _____    ______ ____
ROOT
ATOM      1  O   UNL     1       3.143   8.228  17.694  0.00  0.00    +0.000 OA
ATOM      2  C   UNL     1       2.972   7.246  18.415  0.00  0.00    +0.000 C 
ATOM      3  N   UNL     1       2.266   7.290  19.596  0.00  0.00    +0.000 N 
ATOM      4  N   UNL     1       3.561   6.010  18.120  0.00  0.00    +0.000 N 
ATOM      5  H   UNL     1       2.523   6.596  20.278  0.00  0.00    +0.000 HD
ENDROOT
BRANCH   3   6
ATOM      6  C   UNL     1       1.514   8.381  20.103  0.00  0.00    +0.000 A 
ATOM      7  C   UNL     1       1.008   9.420  19.317  0.00  0.00    +0.000 A 
ATOM      8  C   UNL     1       0.229  10.443  19.890  0.00  0.00    +0.000 A 
ATOM      9  C   UNL     1      -0.041  10.436  21.256  0.00  0.00    +0.000 A 
ATOM     10  C   UNL     1       0.464   9.408  22.035  0.00  0.00    +0.000 A 
ATOM     11  F   UNL     1       0.229   9.403  23.358  0.00  0.00    +0.000 F 
ATOM     12  C   UNL     1       1.224   8.382  21.475  0.00  0.00    +0.000 A 
ENDBRANCH   3   6
BRANCH   4  13
ATOM     13  C   UNL     1       4.550   5.992  17.037  0.00  0.00    +0.000 C 
BRANCH  13  14
ATOM     14  C   UNL     1       5.949   6.224  17.490  0.00  0.00    +0.000 A 
ATOM     15  C   UNL     1       6.816   7.295  17.378  0.00  0.00    +0.000 A 
ATOM     16  C   UNL     1       7.912   7.015  18.230  0.00  0.00    +0.000 A 
ATOM     17  C   UNL     1       7.675   5.772  18.767  0.00  0.00    +0.000 A 
ATOM     18  O   UNL     1       6.490   5.280  18.317  0.00  0.00    +0.000 OA
ENDBRANCH  13  14
ENDBRANCH   4  13
BRANCH   4  19
ATOM     19  C   UNL     1       3.218   4.712  18.736  0.00  0.00    +0.000 C 
BRANCH  19  20
ATOM     20  C   UNL     1       2.546   3.688  17.787  0.00  0.00    +0.000 C 
ATOM     21  C   UNL     1       2.995   2.248  18.003  0.00  0.00    +0.000 C 
ATOM     22  C   UNL     1       2.053   1.788  19.089  0.00  0.00    +0.000 C 
ATOM     23  C   UNL     1       0.758   2.420  18.630  0.00  0.00    +0.000 C 
ATOM     24  O   UNL     1       1.121   3.685  18.050  0.00  0.00    +0.000 OA
ENDBRANCH  19  20
ENDBRANCH   4  19
TORSDOF 5
ENDMDL
MODEL 8
REMARK VINA RESULT:      -7.4      2.030      2.512
REMARK  Name = 
REMARK  5 active torsions:
REMARK  status: ('A' for Active; 'I' for Inactive)
REMARK    1  A    between atoms: N_3  and  C_4
REMARK    2  A    between atoms: N_11  and  C_12
REMARK    3  A    between atoms: N_11  and  C_18
REMARK    4  A    between atoms: C_12  and  C_13
REMARK    5  A    between atoms: C_18  and  C_19
REMARK                            x       y       z     vdW  Elec       q    Type
REMARK                         _______ _______ _______ _____ _____    ______ ____
ROOT
ATOM      1  O   UNL     1       3.104   7.000  17.902  0.00  0.00    +0.000 OA
ATOM      2  C   UNL     1       3.134   6.363  18.955  0.00  0.00    +0.000 C 
ATOM      3  N   UNL     1       2.500   6.775  20.105  0.00  0.00    +0.000 N 
ATOM      4  N   UNL     1       3.896   5.195  19.081  0.00  0.00    +0.000 N 
ATOM      5  H   UNL     1       2.903   6.440  20.964  0.00  0.00    +0.000 HD
ENDROOT
BRANCH   3   6
ATOM      6  C   UNL     1       1.613   7.873  20.246  0.00  0.00    +0.000 A 
ATOM      7  C   UNL     1       1.470   8.894  19.303  0.00  0.00    +0.000 A 
ATOM      8  C   UNL     1       0.531   9.926  19.496  0.00  0.00    +0.000 A 
ATOM      9  C   UNL     1      -0.264   9.945  20.638  0.00  0.00    +0.000 A 
ATOM     10  C   UNL     1      -0.119   8.934  21.575  0.00  0.00    +0.000 A 
ATOM     11  F   UNL     1      -0.864   8.955  22.692  0.00  0.00    +0.000 F 
ATOM     12  C   UNL     1       0.797   7.900  21.386  0.00  0.00    +0.000 A 
ENDBRANCH   3   6
BRANCH   4  13
ATOM     13  C   UNL     1       4.811   4.880  17.979  0.00  0.00    +0.000 C 
BRANCH  13  14
ATOM     14  C   UNL     1       6.139   5.544  18.085  0.00  0.00    +0.000 A 
ATOM     15  C   UNL     1       6.699   6.648  17.471  0.00  0.00    +0.000 A 
ATOM     16  C   UNL     1       7.895   6.936  18.173  0.00  0.00    +0.000 A 
ATOM     17  C   UNL     1       8.019   5.962  19.135  0.00  0.00    +0.000 A 
ATOM     18  O   UNL     1       6.964   5.108  19.085  0.00  0.00    +0.000 OA
ENDBRANCH  13  14
ENDBRANCH   4  13
BRANCH   4  19
ATOM     19  C   UNL     1       3.801   4.207  20.176  0.00  0.00    +0.000 C 
BRANCH  19  20
ATOM     20  C   UNL     1       2.992   2.928  19.843  0.00  0.00    +0.000 C 
ATOM     21  C   UNL     1       1.865   2.629  20.823  0.00  0.00    +0.000 C 
ATOM     22  C   UNL     1       0.729   3.441  20.249  0.00  0.00    +0.000 C 
ATOM     23  C   UNL     1       0.920   3.189  18.770  0.00  0.00    +0.000 C 
ATOM     24  O   UNL     1       2.341   3.118  18.562  0.00  0.00    +0.000 OA
ENDBRANCH  19  20
ENDBRANCH   4  19
TORSDOF 5
ENDMDL
MODEL 9
REMARK VINA RESULT:      -7.3      1.532      1.968
REMARK  Name = 
REMARK  5 active torsions:
REMARK  status: ('A' for Active; 'I' for Inactive)
REMARK    1  A    between atoms: N_3  and  C_4
REMARK    2  A    between atoms: N_11  and  C_12
REMARK    3  A    between atoms: N_11  and  C_18
REMARK    4  A    between atoms: C_12  and  C_13
REMARK    5  A    between atoms: C_18  and  C_19
REMARK                            x       y       z     vdW  Elec       q    Type
REMARK                         _______ _______ _______ _____ _____    ______ ____
ROOT
ATOM      1  O   UNL     1       2.104   6.190  17.517  0.00  0.00    +0.000 OA
ATOM      2  C   UNL     1       2.694   5.835  18.536  0.00  0.00    +0.000 C 
ATOM      3  N   UNL     1       2.671   6.552  19.711  0.00  0.00    +0.000 N 
ATOM      4  N   UNL     1       3.510   4.697  18.549  0.00  0.00    +0.000 N 
ATOM      5  H   UNL     1       3.467   6.420  20.312  0.00  0.00    +0.000 HD
ENDROOT
BRANCH   3   6
ATOM      6  C   UNL     1       1.883   7.695  19.999  0.00  0.00    +0.000 A 
ATOM      7  C   UNL     1       1.766   8.803  19.156  0.00  0.00    +0.000 A 
ATOM      8  C   UNL     1       0.923   9.879  19.494  0.00  0.00    +0.000 A 
ATOM      9  C   UNL     1       0.199   9.856  20.683  0.00  0.00    +0.000 A 
ATOM     10  C   UNL     1       0.318   8.758  21.520  0.00  0.00    +0.000 A 
ATOM     11  F   UNL     1      -0.359   8.734  22.680  0.00  0.00    +0.000 F 
ATOM     12  C   UNL     1       1.137   7.681  21.188  0.00  0.00    +0.000 A 
ENDBRANCH   3   6
BRANCH   4  13
ATOM     13  C   UNL     1       3.793   4.071  17.254  0.00  0.00    +0.000 C 
BRANCH  13  14
ATOM     14  C   UNL     1       5.147   4.376  16.716  0.00  0.00    +0.000 A 
ATOM     15  C   UNL     1       5.899   3.845  15.685  0.00  0.00    +0.000 A 
ATOM     16  C   UNL     1       6.995   4.721  15.493  0.00  0.00    +0.000 A 
ATOM     17  C   UNL     1       6.875   5.701  16.450  0.00  0.00    +0.000 A 
ATOM     18  O   UNL     1       5.762   5.496  17.202  0.00  0.00    +0.000 OA
ENDBRANCH  13  14
ENDBRANCH   4  13
BRANCH   4  19
ATOM     19  C   UNL     1       4.040   4.019  19.750  0.00  0.00    +0.000 C 
BRANCH  19  20
ATOM     20  C   UNL     1       3.253   2.763  20.201  0.00  0.00    +0.000 C 
ATOM     21  C   UNL     1       2.446   2.956  21.478  0.00  0.00    +0.000 C 
ATOM     22  C   UNL     1       1.150   3.519  20.946  0.00  0.00    +0.000 C 
ATOM     23  C   UNL     1       0.958   2.671  19.709  0.00  0.00    +0.000 C 
ATOM     24  O   UNL     1       2.276   2.443  19.179  0.00  0.00    +0.000 OA
ENDBRANCH  19  20
ENDBRANCH   4  19
TORSDOF 5
ENDMDL
