MODEL 1
REMARK VINA RESULT:      -7.4      0.000      0.000
REMARK  Name = 
REMARK  4 active torsions:
REMARK  status: ('A' for Active; 'I' for Inactive)
REMARK    1  A    between atoms: C_1  and  C_2
REMARK    2  A    between atoms: C_2  and  C_3
REMARK    3  A    between atoms: C_2  and  N_15
REMARK    4  A    between atoms: N_8  and  C_9
REMARK                            x       y       z     vdW  Elec       q    Type
REMARK                         _______ _______ _______ _____ _____    ______ ____
ROOT
ATOM      1  C   UNL     1       2.665   4.064  19.195  0.00  0.00    +0.000 C 
ATOM      2  C   UNL     1       3.272   5.245  18.418  0.00  0.00    +0.000 C 
ENDROOT
BRANCH   2   3
ATOM      3  N   UNL     1       4.756   5.273  18.513  0.00  0.00    +0.000 NA
ATOM      4  C   UNL     1       5.331   3.992  17.993  0.00  0.00    +0.000 C 
ATOM      5  C   UNL     1       5.245   3.823  16.457  0.00  0.00    +0.000 C 
ATOM      6  N   UNL     1       6.021   4.897  15.836  0.00  0.00    +0.000 N 
ATOM      7  C   UNL     1       6.235   4.677  14.464  0.00  0.00    +0.000 A 
ATOM      8  C   UNL     1       7.409   5.154  13.883  0.00  0.00    +0.000 A 
ATOM      9  C   UNL     1       7.761   4.747  12.596  0.00  0.00    +0.000 A 
ATOM     10  C   UNL     1       6.915   3.894  11.901  0.00  0.00    +0.000 A 
ATOM     11  C   UNL     1       5.744   3.504  12.521  0.00  0.00    +0.000 A 
ATOM     12  N   UNL     1       5.396   3.867  13.778  0.00  0.00    +0.000 NA
ATOM     13  C   UNL     1       5.502   6.234  16.182  0.00  0.00    +0.000 C 
ATOM     14  C   UNL     1       5.410   6.376  17.736  0.00  0.00    +0.000 C 
ENDBRANCH   2   3
BRANCH   2  15
ATOM     15  C   UNL     1       2.614   6.520  18.954  0.00  0.00    +0.000 C 
ATOM     16  O   UNL     1       2.264   6.580  20.138  0.00  0.00    +0.000 OA
ATOM     17  N   UNL     1       2.519   7.587  18.074  0.00  0.00    +0.000 N 
ATOM     18  C   UNL     1       1.928   8.806  18.307  0.00  0.00    +0.000 C 
ATOM     19  O   UNL     1       1.851   9.638  17.408  0.00  0.00    +0.000 OA
ATOM     20  N   UNL     1       1.387   8.953  19.548  0.00  0.00    +0.000 N 
ATOM     21  H   UNL     1       2.796   7.433  17.113  0.00  0.00    +0.000 HD
ATOM     22  H   UNL     1       1.720   8.285  20.241  0.00  0.00    +0.000 HD
BRANCH  20  23
ATOM     23  C   UNL     1       0.517  10.025  20.013  0.00  0.00    +0.000 C 
ATOM     24  C   UNL     1      -0.848   9.510  20.494  0.00  0.00    +0.000 C 
ATOM     25  C   UNL     1      -0.707   8.573  21.693  0.00  0.00    +0.000 C 
ATOM     26  C   UNL     1       0.023   9.250  22.849  0.00  0.00    +0.000 C 
ATOM     27  C   UNL     1       1.351   9.873  22.419  0.00  0.00    +0.000 C 
ATOM     28  C   UNL     1       1.204  10.762  21.178  0.00  0.00    +0.000 C 
ENDBRANCH  20  23
ENDBRANCH   2  15
TORSDOF 3
ENDMDL
MODEL 2
REMARK VINA RESULT:      -7.4      1.352      2.285
REMARK  Name = 
REMARK  4 active torsions:
REMARK  status: ('A' for Active; 'I' for Inactive)
REMARK    1  A    between atoms: C_1  and  C_2
REMARK    2  A    between atoms: C_2  and  C_3
REMARK    3  A    between atoms: C_2  and  N_15
REMARK    4  A    between atoms: N_8  and  C_9
REMARK                            x       y       z     vdW  Elec       q    Type
REMARK                         _______ _______ _______ _____ _____    ______ ____
ROOT
ATOM      1  C   UNL     1       2.154   4.877  18.718  0.00  0.00    +0.000 C 
ATOM      2  C   UNL     1       2.868   6.085  18.086  0.00  0.00    +0.000 C 
ENDROOT
BRANCH   2   3
ATOM      3  N   UNL     1       4.341   6.030  18.284  0.00  0.00    +0.000 NA
ATOM      4  C   UNL     1       4.853   4.659  17.968  0.00  0.00    +0.000 C 
ATOM      5  C   UNL     1       4.854   4.302  16.463  0.00  0.00    +0.000 C 
ATOM      6  N   UNL     1       5.745   5.236  15.773  0.00  0.00    +0.000 N 
ATOM      7  C   UNL     1       6.029   4.829  14.457  0.00  0.00    +0.000 A 
ATOM      8  C   UNL     1       7.269   5.152  13.909  0.00  0.00    +0.000 A 
ATOM      9  C   UNL     1       7.673   4.563  12.711  0.00  0.00    +0.000 A 
ATOM     10  C   UNL     1       6.813   3.685  12.066  0.00  0.00    +0.000 A 
ATOM     11  C   UNL     1       5.580   3.453  12.642  0.00  0.00    +0.000 A 
ATOM     12  N   UNL     1       5.180   3.995  13.817  0.00  0.00    +0.000 NA
ATOM     13  C   UNL     1       5.303   6.636  15.913  0.00  0.00    +0.000 C 
ATOM     14  C   UNL     1       5.121   6.981  17.428  0.00  0.00    +0.000 C 
ENDBRANCH   2   3
BRANCH   2  15
ATOM     15  C   UNL     1       2.231   7.344  18.681  0.00  0.00    +0.000 C 
ATOM     16  O   UNL     1       1.891   8.272  17.938  0.00  0.00    +0.000 OA
ATOM     17  N   UNL     1       1.995   7.335  20.047  0.00  0.00    +0.000 N 
ATOM     18  C   UNL     1       1.486   8.358  20.810  0.00  0.00    +0.000 C 
ATOM     19  O   UNL     1       1.397   8.237  22.028  0.00  0.00    +0.000 OA
ATOM     20  N   UNL     1       1.185   9.492  20.119  0.00  0.00    +0.000 N 
ATOM     21  H   UNL     1       2.343   6.548  20.581  0.00  0.00    +0.000 HD
ATOM     22  H   UNL     1       1.098   9.370  19.112  0.00  0.00    +0.000 HD
BRANCH  20  23
ATOM     23  C   UNL     1       0.843  10.798  20.668  0.00  0.00    +0.000 C 
ATOM     24  C   UNL     1       1.403  11.956  19.828  0.00  0.00    +0.000 C 
ATOM     25  C   UNL     1       0.820  11.962  18.415  0.00  0.00    +0.000 C 
ATOM     26  C   UNL     1      -0.704  12.032  18.439  0.00  0.00    +0.000 C 
ATOM     27  C   UNL     1      -1.327  10.965  19.337  0.00  0.00    +0.000 C 
ATOM     28  C   UNL     1      -0.690  10.931  20.732  0.00  0.00    +0.000 C 
ENDBRANCH  20  23
ENDBRANCH   2  15
TORSDOF 3
ENDMDL
MODEL 3
REMARK VINA RESULT:      -7.3      3.813     10.268
REMARK  Name = 
REMARK  4 active torsions:
REMARK  status: ('A' for Active; 'I' for Inactive)
REMARK    1  A    between atoms: C_1  and  C_2
REMARK    2  A    between atoms: C_2  and  C_3
REMARK    3  A    between atoms: C_2  and  N_15
REMARK    4  A    between atoms: N_8  and  C_9
REMARK                            x       y       z     vdW  Elec       q    Type
REMARK                         _______ _______ _______ _____ _____    ______ ____
ROOT
ATOM      1  C   UNL     1       1.247  11.077  18.832  0.00  0.00    +0.000 C 
ATOM      2  C   UNL     1       0.640  10.293  20.009  0.00  0.00    +0.000 C 
ENDROOT
BRANCH   2   3
ATOM      3  N   UNL     1       0.915  10.946  21.317  0.00  0.00    +0.000 NA
ATOM      4  C   UNL     1       0.430  12.362  21.299  0.00  0.00    +0.000 C 
ATOM      5  C   UNL     1      -1.109  12.517  21.334  0.00  0.00    +0.000 C 
ATOM      6  N   UNL     1      -1.597  11.937  22.585  0.00  0.00    +0.000 N 
ATOM      7  C   UNL     1      -2.940  12.271  22.839  0.00  0.00    +0.000 A 
ATOM      8  C   UNL     1      -3.359  12.402  24.162  0.00  0.00    +0.000 A 
ATOM      9  C   UNL     1      -4.605  12.962  24.442  0.00  0.00    +0.000 A 
ATOM     10  C   UNL     1      -5.423  13.351  23.391  0.00  0.00    +0.000 A 
ATOM     11  C   UNL     1      -4.963  13.143  22.107  0.00  0.00    +0.000 A 
ATOM     12  N   UNL     1      -3.747  12.625  21.814  0.00  0.00    +0.000 NA
ATOM     13  C   UNL     1      -1.277  10.502  22.698  0.00  0.00    +0.000 C 
ATOM     14  C   UNL     1       0.258  10.288  22.492  0.00  0.00    +0.000 C 
ENDBRANCH   2   3
BRANCH   2  15
ATOM     15  C   UNL     1       1.187   8.865  19.926  0.00  0.00    +0.000 C 
ATOM     16  O   UNL     1       0.827   8.019  20.752  0.00  0.00    +0.000 OA
ATOM     17  N   UNL     1       2.016   8.579  18.851  0.00  0.00    +0.000 N 
ATOM     18  C   UNL     1       2.663   7.394  18.594  0.00  0.00    +0.000 C 
ATOM     19  O   UNL     1       3.428   7.302  17.638  0.00  0.00    +0.000 OA
ATOM     20  N   UNL     1       2.445   6.411  19.510  0.00  0.00    +0.000 N 
ATOM     21  H   UNL     1       2.287   9.344  18.247  0.00  0.00    +0.000 HD
ATOM     22  H   UNL     1       1.631   6.553  20.105  0.00  0.00    +0.000 HD
BRANCH  20  23
ATOM     23  C   UNL     1       3.149   5.141  19.631  0.00  0.00    +0.000 C 
ATOM     24  C   UNL     1       2.650   4.300  20.815  0.00  0.00    +0.000 C 
ATOM     25  C   UNL     1       1.179   3.916  20.654  0.00  0.00    +0.000 C 
ATOM     26  C   UNL     1       0.937   3.164  19.349  0.00  0.00    +0.000 C 
ATOM     27  C   UNL     1       1.498   3.901  18.134  0.00  0.00    +0.000 C 
ATOM     28  C   UNL     1       2.956   4.333  18.334  0.00  0.00    +0.000 C 
ENDBRANCH  20  23
ENDBRANCH   2  15
TORSDOF 3
ENDMDL
MODEL 4
REMARK VINA RESULT:      -7.1      3.782      9.058
REMARK  Name = 
REMARK  4 active torsions:
REMARK  status: ('A' for Active; 'I' for Inactive)
REMARK    1  A    between atoms: C_1  and  C_2
REMARK    2  A    between atoms: C_2  and  C_3
REMARK    3  A    between atoms: C_2  and  N_15
REMARK    4  A    between atoms: N_8  and  C_9
REMARK                            x       y       z     vdW  Elec       q    Type
REMARK                         _______ _______ _______ _____ _____    ______ ____
ROOT
ATOM      1  C   UNL     1       0.956   9.255  22.621  0.00  0.00    +0.000 C 
ATOM      2  C   UNL     1       1.076   9.320  21.089  0.00  0.00    +0.000 C 
ENDROOT
BRANCH   2   3
ATOM      3  N   UNL     1      -0.183   9.790  20.450  0.00  0.00    +0.000 NA
ATOM      4  C   UNL     1      -0.785  10.902  21.251  0.00  0.00    +0.000 C 
ATOM      5  C   UNL     1      -0.020  12.245  21.167  0.00  0.00    +0.000 C 
ATOM      6  N   UNL     1      -0.038  12.693  19.774  0.00  0.00    +0.000 N 
ATOM      7  C   UNL     1       0.386  14.027  19.638  0.00  0.00    +0.000 A 
ATOM      8  C   UNL     1      -0.156  14.801  18.613  0.00  0.00    +0.000 A 
ATOM      9  C   UNL     1       0.057  16.180  18.598  0.00  0.00    +0.000 A 
ATOM     10  C   UNL     1       0.836  16.754  19.593  0.00  0.00    +0.000 A 
ATOM     11  C   UNL     1       1.382  15.918  20.546  0.00  0.00    +0.000 A 
ATOM     12  N   UNL     1       1.167  14.582  20.592  0.00  0.00    +0.000 NA
ATOM     13  C   UNL     1       0.620  11.732  18.869  0.00  0.00    +0.000 C 
ATOM     14  C   UNL     1      -0.015  10.315  19.056  0.00  0.00    +0.000 C 
ENDBRANCH   2   3
BRANCH   2  15
ATOM     15  C   UNL     1       1.506   7.929  20.613  0.00  0.00    +0.000 C 
ATOM     16  O   UNL     1       1.098   6.924  21.205  0.00  0.00    +0.000 OA
ATOM     17  N   UNL     1       2.285   7.878  19.468  0.00  0.00    +0.000 N 
ATOM     18  C   UNL     1       2.830   6.760  18.883  0.00  0.00    +0.000 C 
ATOM     19  O   UNL     1       3.564   6.869  17.905  0.00  0.00    +0.000 OA
ATOM     20  N   UNL     1       2.555   5.589  19.519  0.00  0.00    +0.000 N 
ATOM     21  H   UNL     1       2.603   8.754  19.073  0.00  0.00    +0.000 HD
ATOM     22  H   UNL     1       1.768   5.627  20.165  0.00  0.00    +0.000 HD
BRANCH  20  23
ATOM     23  C   UNL     1       3.158   4.285  19.275  0.00  0.00    +0.000 C 
ATOM     24  C   UNL     1       2.898   3.291  20.417  0.00  0.00    +0.000 C 
ATOM     25  C   UNL     1       1.406   3.005  20.587  0.00  0.00    +0.000 C 
ATOM     26  C   UNL     1       0.787   2.479  19.295  0.00  0.00    +0.000 C 
ATOM     27  C   UNL     1       1.090   3.372  18.093  0.00  0.00    +0.000 C 
ATOM     28  C   UNL     1       2.584   3.700  17.971  0.00  0.00    +0.000 C 
ENDBRANCH  20  23
ENDBRANCH   2  15
TORSDOF 3
ENDMDL
MODEL 5
REMARK VINA RESULT:      -7.1      2.978      8.494
REMARK  Name = 
REMARK  4 active torsions:
REMARK  status: ('A' for Active; 'I' for Inactive)
REMARK    1  A    between atoms: C_1  and  C_2
REMARK    2  A    between atoms: C_2  and  C_3
REMARK    3  A    between atoms: C_2  and  N_15
REMARK    4  A    between atoms: N_8  and  C_9
REMARK                            x       y       z     vdW  Elec       q    Type
REMARK                         _______ _______ _______ _____ _____    ______ ____
ROOT
ATOM      1  C   UNL     1       0.328   8.540  21.646  0.00  0.00    +0.000 C 
ATOM      2  C   UNL     1       1.243   8.897  20.461  0.00  0.00    +0.000 C 
ENDROOT
BRANCH   2   3
ATOM      3  N   UNL     1       0.507   9.609  19.382  0.00  0.00    +0.000 NA
ATOM      4  C   UNL     1      -0.065  10.890  19.905  0.00  0.00    +0.000 C 
ATOM      5  C   UNL     1       0.979  11.998  20.181  0.00  0.00    +0.000 C 
ATOM      6  N   UNL     1       1.632  12.333  18.916  0.00  0.00    +0.000 N 
ATOM      7  C   UNL     1       2.395  13.511  19.006  0.00  0.00    +0.000 A 
ATOM      8  C   UNL     1       2.521  14.316  17.874  0.00  0.00    +0.000 A 
ATOM      9  C   UNL     1       3.060  15.597  17.991  0.00  0.00    +0.000 A 
ATOM     10  C   UNL     1       3.494  16.038  19.233  0.00  0.00    +0.000 A 
ATOM     11  C   UNL     1       3.384  15.166  20.298  0.00  0.00    +0.000 A 
ATOM     12  N   UNL     1       2.841  13.930  20.211  0.00  0.00    +0.000 NA
ATOM     13  C   UNL     1       2.333  11.178  18.325  0.00  0.00    +0.000 C 
ATOM     14  C   UNL     1       1.343   9.974  18.193  0.00  0.00    +0.000 C 
ENDBRANCH   2   3
BRANCH   2  15
ATOM     15  C   UNL     1       1.890   7.593  19.984  0.00  0.00    +0.000 C 
ATOM     16  O   UNL     1       2.543   7.577  18.935  0.00  0.00    +0.000 OA
ATOM     17  N   UNL     1       1.764   6.496  20.822  0.00  0.00    +0.000 N 
ATOM     18  C   UNL     1       2.211   5.217  20.590  0.00  0.00    +0.000 C 
ATOM     19  O   UNL     1       1.967   4.320  21.392  0.00  0.00    +0.000 OA
ATOM     20  N   UNL     1       2.844   5.039  19.398  0.00  0.00    +0.000 N 
ATOM     21  H   UNL     1       1.178   6.591  21.642  0.00  0.00    +0.000 HD
ATOM     22  H   UNL     1       3.166   5.897  18.952  0.00  0.00    +0.000 HD
BRANCH  20  23
ATOM     23  C   UNL     1       3.228   3.778  18.778  0.00  0.00    +0.000 C 
ATOM     24  C   UNL     1       3.272   3.862  17.245  0.00  0.00    +0.000 C 
ATOM     25  C   UNL     1       4.318   4.867  16.765  0.00  0.00    +0.000 C 
ATOM     26  C   UNL     1       5.706   4.528  17.301  0.00  0.00    +0.000 C 
ATOM     27  C   UNL     1       5.718   4.333  18.816  0.00  0.00    +0.000 C 
ATOM     28  C   UNL     1       4.622   3.369  19.290  0.00  0.00    +0.000 C 
ENDBRANCH  20  23
ENDBRANCH   2  15
TORSDOF 3
ENDMDL
MODEL 6
REMARK VINA RESULT:      -7.0      3.985      8.332
REMARK  Name = 
REMARK  4 active torsions:
REMARK  status: ('A' for Active; 'I' for Inactive)
REMARK    1  A    between atoms: C_1  and  C_2
REMARK    2  A    between atoms: C_2  and  C_3
REMARK    3  A    between atoms: C_2  and  N_15
REMARK    4  A    between atoms: N_8  and  C_9
REMARK                            x       y       z     vdW  Elec       q    Type
REMARK                         _______ _______ _______ _____ _____    ______ ____
ROOT
ATOM      1  C   UNL     1       0.652   9.207  22.377  0.00  0.00    +0.000 C 
ATOM      2  C   UNL     1       1.236   9.372  20.962  0.00  0.00    +0.000 C 
ENDROOT
BRANCH   2   3
ATOM      3  N   UNL     1       0.338  10.162  20.077  0.00  0.00    +0.000 NA
ATOM      4  C   UNL     1       0.068  11.505  20.682  0.00  0.00    +0.000 C 
ATOM      5  C   UNL     1       1.269  12.480  20.650  0.00  0.00    +0.000 C 
ATOM      6  N   UNL     1       1.617  12.729  19.250  0.00  0.00    +0.000 N 
ATOM      7  C   UNL     1       2.509  13.807  19.106  0.00  0.00    +0.000 A 
ATOM      8  C   UNL     1       2.438  14.585  17.952  0.00  0.00    +0.000 A 
ATOM      9  C   UNL     1       3.133  15.792  17.886  0.00  0.00    +0.000 A 
ATOM     10  C   UNL     1       3.913  16.183  18.965  0.00  0.00    +0.000 A 
ATOM     11  C   UNL     1       3.976  15.336  20.053  0.00  0.00    +0.000 A 
ATOM     12  N   UNL     1       3.289  14.173  20.147  0.00  0.00    +0.000 NA
ATOM     13  C   UNL     1       2.008  11.495  18.544  0.00  0.00    +0.000 C 
ATOM     14  C   UNL     1       0.885  10.418  18.705  0.00  0.00    +0.000 C 
ENDBRANCH   2   3
BRANCH   2  15
ATOM     15  C   UNL     1       1.517   7.965  20.426  0.00  0.00    +0.000 C 
ATOM     16  O   UNL     1       1.014   6.983  20.983  0.00  0.00    +0.000 OA
ATOM     17  N   UNL     1       2.276   7.881  19.269  0.00  0.00    +0.000 N 
ATOM     18  C   UNL     1       2.699   6.738  18.634  0.00  0.00    +0.000 C 
ATOM     19  O   UNL     1       3.432   6.812  17.651  0.00  0.00    +0.000 OA
ATOM     20  N   UNL     1       2.312   5.576  19.227  0.00  0.00    +0.000 N 
ATOM     21  H   UNL     1       2.678   8.736  18.905  0.00  0.00    +0.000 HD
ATOM     22  H   UNL     1       1.539   5.668  19.884  0.00  0.00    +0.000 HD
BRANCH  20  23
ATOM     23  C   UNL     1       2.777   4.229  18.924  0.00  0.00    +0.000 C 
ATOM     24  C   UNL     1       3.482   3.565  20.116  0.00  0.00    +0.000 C 
ATOM     25  C   UNL     1       2.538   3.393  21.305  0.00  0.00    +0.000 C 
ATOM     26  C   UNL     1       1.301   2.586  20.925  0.00  0.00    +0.000 C 
ATOM     27  C   UNL     1       0.601   3.135  19.682  0.00  0.00    +0.000 C 
ATOM     28  C   UNL     1       1.573   3.360  18.516  0.00  0.00    +0.000 C 
ENDBRANCH  20  23
ENDBRANCH   2  15
TORSDOF 3
ENDMDL
MODEL 7
REMARK VINA RESULT:      -6.9      2.903      9.203
REMARK  Name = 
REMARK  4 active torsions:
REMARK  status: ('A' for Active; 'I' for Inactive)
REMARK    1  A    between atoms: C_1  and  C_2
REMARK    2  A    between atoms: C_2  and  C_3
REMARK    3  A    between atoms: C_2  and  N_15
REMARK    4  A    between atoms: N_8  and  C_9
REMARK                            x       y       z     vdW  Elec       q    Type
REMARK                         _______ _______ _______ _____ _____    ______ ____
ROOT
ATOM      1  C   UNL     1       0.131   8.488  21.561  0.00  0.00    +0.000 C 
ATOM      2  C   UNL     1       1.104   8.929  20.453  0.00  0.00    +0.000 C 
ENDROOT
BRANCH   2   3
ATOM      3  N   UNL     1       0.410   9.656  19.357  0.00  0.00    +0.000 NA
ATOM      4  C   UNL     1      -0.638  10.563  19.921  0.00  0.00    +0.000 C 
ATOM      5  C   UNL     1      -0.086  11.811  20.651  0.00  0.00    +0.000 C 
ATOM      6  N   UNL     1       0.664  12.611  19.683  0.00  0.00    +0.000 N 
ATOM      7  C   UNL     1       0.970  13.893  20.174  0.00  0.00    +0.000 A 
ATOM      8  C   UNL     1       1.054  14.953  19.273  0.00  0.00    +0.000 A 
ATOM      9  C   UNL     1       1.115  16.263  19.747  0.00  0.00    +0.000 A 
ATOM     10  C   UNL     1       1.124  16.487  21.117  0.00  0.00    +0.000 A 
ATOM     11  C   UNL     1       1.090  15.385  21.948  0.00  0.00    +0.000 A 
ATOM     12  N   UNL     1       1.006  14.108  21.508  0.00  0.00    +0.000 NA
ATOM     13  C   UNL     1       1.804  11.871  19.110  0.00  0.00    +0.000 C 
ATOM     14  C   UNL     1       1.304  10.514  18.515  0.00  0.00    +0.000 C 
ENDBRANCH   2   3
BRANCH   2  15
ATOM     15  C   UNL     1       1.833   7.672  19.971  0.00  0.00    +0.000 C 
ATOM     16  O   UNL     1       2.452   7.692  18.901  0.00  0.00    +0.000 OA
ATOM     17  N   UNL     1       1.819   6.579  20.825  0.00  0.00    +0.000 N 
ATOM     18  C   UNL     1       2.355   5.335  20.592  0.00  0.00    +0.000 C 
ATOM     19  O   UNL     1       2.205   4.434  21.411  0.00  0.00    +0.000 OA
ATOM     20  N   UNL     1       2.962   5.191  19.382  0.00  0.00    +0.000 N 
ATOM     21  H   UNL     1       1.254   6.641  21.662  0.00  0.00    +0.000 HD
ATOM     22  H   UNL     1       3.203   6.064  18.917  0.00  0.00    +0.000 HD
BRANCH  20  23
ATOM     23  C   UNL     1       3.422   3.954  18.764  0.00  0.00    +0.000 C 
ATOM     24  C   UNL     1       3.470   4.042  17.231  0.00  0.00    +0.000 C 
ATOM     25  C   UNL     1       4.460   5.105  16.758  0.00  0.00    +0.000 C 
ATOM     26  C   UNL     1       5.861   4.846  17.303  0.00  0.00    +0.000 C 
ATOM     27  C   UNL     1       5.875   4.651  18.818  0.00  0.00    +0.000 C 
ATOM     28  C   UNL     1       4.833   3.625  19.284  0.00  0.00    +0.000 C 
ENDBRANCH  20  23
ENDBRANCH   2  15
TORSDOF 3
ENDMDL
MODEL 8
REMARK VINA RESULT:      -6.8      3.057      8.391
REMARK  Name = 
REMARK  4 active torsions:
REMARK  status: ('A' for Active; 'I' for Inactive)
REMARK    1  A    between atoms: C_1  and  C_2
REMARK    2  A    between atoms: C_2  and  C_3
REMARK    3  A    between atoms: C_2  and  N_15
REMARK    4  A    between atoms: N_8  and  C_9
REMARK                            x       y       z     vdW  Elec       q    Type
REMARK                         _______ _______ _______ _____ _____    ______ ____
ROOT
ATOM      1  C   UNL     1       0.579   8.370  21.471  0.00  0.00    +0.000 C 
ATOM      2  C   UNL     1       1.450   8.774  20.268  0.00  0.00    +0.000 C 
ENDROOT
BRANCH   2   3
ATOM      3  N   UNL     1       0.670   9.505  19.235  0.00  0.00    +0.000 NA
ATOM      4  C   UNL     1       0.037  10.724  19.831  0.00  0.00    +0.000 C 
ATOM      5  C   UNL     1       1.026  11.867  20.162  0.00  0.00    +0.000 C 
ATOM      6  N   UNL     1       1.651  12.305  18.913  0.00  0.00    +0.000 N 
ATOM      7  C   UNL     1       2.354  13.514  19.064  0.00  0.00    +0.000 A 
ATOM      8  C   UNL     1       2.429  14.385  17.978  0.00  0.00    +0.000 A 
ATOM      9  C   UNL     1       2.904  15.683  18.162  0.00  0.00    +0.000 A 
ATOM     10  C   UNL     1       3.324  16.077  19.424  0.00  0.00    +0.000 A 
ATOM     11  C   UNL     1       3.269  15.144  20.441  0.00  0.00    +0.000 A 
ATOM     12  N   UNL     1       2.788  13.888  20.288  0.00  0.00    +0.000 NA
ATOM     13  C   UNL     1       2.405  11.221  18.256  0.00  0.00    +0.000 C 
ATOM     14  C   UNL     1       1.476   9.977  18.063  0.00  0.00    +0.000 C 
ENDBRANCH   2   3
BRANCH   2  15
ATOM     15  C   UNL     1       2.099   7.494  19.734  0.00  0.00    +0.000 C 
ATOM     16  O   UNL     1       1.872   6.412  20.288  0.00  0.00    +0.000 OA
ATOM     17  N   UNL     1       2.860   7.617  18.582  0.00  0.00    +0.000 N 
ATOM     18  C   UNL     1       3.576   6.629  17.949  0.00  0.00    +0.000 C 
ATOM     19  O   UNL     1       4.268   6.896  16.971  0.00  0.00    +0.000 OA
ATOM     20  N   UNL     1       3.508   5.404  18.540  0.00  0.00    +0.000 N 
ATOM     21  H   UNL     1       3.023   8.548  18.221  0.00  0.00    +0.000 HD
ATOM     22  H   UNL     1       2.734   5.286  19.192  0.00  0.00    +0.000 HD
BRANCH  20  23
ATOM     23  C   UNL     1       4.316   4.230  18.239  0.00  0.00    +0.000 C 
ATOM     24  C   UNL     1       4.513   3.321  19.461  0.00  0.00    +0.000 C 
ATOM     25  C   UNL     1       3.184   2.760  19.967  0.00  0.00    +0.000 C 
ATOM     26  C   UNL     1       2.446   1.998  18.872  0.00  0.00    +0.000 C 
ATOM     27  C   UNL     1       2.299   2.811  17.587  0.00  0.00    +0.000 C 
ATOM     28  C   UNL     1       3.630   3.418  17.125  0.00  0.00    +0.000 C 
ENDBRANCH  20  23
ENDBRANCH   2  15
TORSDOF 3
ENDMDL
MODEL 9
REMARK VINA RESULT:      -6.8      2.971      9.742
REMARK  Name = 
REMARK  4 active torsions:
REMARK  status: ('A' for Active; 'I' for Inactive)
REMARK    1  A    between atoms: C_1  and  C_2
REMARK    2  A    between atoms: C_2  and  C_3
REMARK    3  A    between atoms: C_2  and  N_15
REMARK    4  A    between atoms: N_8  and  C_9
REMARK                            x       y       z     vdW  Elec       q    Type
REMARK                         _______ _______ _______ _____ _____    ______ ____
ROOT
ATOM      1  C   UNL     1      -0.154   8.471  21.506  0.00  0.00    +0.000 C 
ATOM      2  C   UNL     1       0.976   9.018  20.616  0.00  0.00    +0.000 C 
ENDROOT
BRANCH   2   3
ATOM      3  N   UNL     1       0.459   9.902  19.537  0.00  0.00    +0.000 NA
ATOM      4  C   UNL     1      -0.885  10.443  19.913  0.00  0.00    +0.000 C 
ATOM      5  C   UNL     1      -0.861  11.510  21.032  0.00  0.00    +0.000 C 
ATOM      6  N   UNL     1      -0.082  12.654  20.556  0.00  0.00    +0.000 N 
ATOM      7  C   UNL     1      -0.230  13.781  21.383  0.00  0.00    +0.000 A 
ATOM      8  C   UNL     1      -0.152  15.049  20.808  0.00  0.00    +0.000 A 
ATOM      9  C   UNL     1      -0.531  16.170  21.546  0.00  0.00    +0.000 A 
ATOM     10  C   UNL     1      -0.950  16.005  22.859  0.00  0.00    +0.000 A 
ATOM     11  C   UNL     1      -0.951  14.725  23.377  0.00  0.00    +0.000 A 
ATOM     12  N   UNL     1      -0.612  13.622  22.670  0.00  0.00    +0.000 NA
ATOM     13  C   UNL     1       1.311  12.288  20.238  0.00  0.00    +0.000 C 
ATOM     14  C   UNL     1       1.324  11.088  19.236  0.00  0.00    +0.000 C 
ENDBRANCH   2   3
BRANCH   2  15
ATOM     15  C   UNL     1       1.749   7.809  20.081  0.00  0.00    +0.000 C 
ATOM     16  O   UNL     1       2.390   7.905  19.028  0.00  0.00    +0.000 OA
ATOM     17  N   UNL     1       1.747   6.670  20.872  0.00  0.00    +0.000 N 
ATOM     18  C   UNL     1       2.321   5.456  20.581  0.00  0.00    +0.000 C 
ATOM     19  O   UNL     1       2.179   4.505  21.346  0.00  0.00    +0.000 OA
ATOM     20  N   UNL     1       2.957   5.395  19.380  0.00  0.00    +0.000 N 
ATOM     21  H   UNL     1       1.162   6.670  21.698  0.00  0.00    +0.000 HD
ATOM     22  H   UNL     1       3.184   6.299  18.970  0.00  0.00    +0.000 HD
BRANCH  20  23
ATOM     23  C   UNL     1       3.463   4.207  18.704  0.00  0.00    +0.000 C 
ATOM     24  C   UNL     1       3.578   4.397  17.185  0.00  0.00    +0.000 C 
ATOM     25  C   UNL     1       4.572   5.502  16.827  0.00  0.00    +0.000 C 
ATOM     26  C   UNL     1       5.951   5.225  17.417  0.00  0.00    +0.000 C 
ATOM     27  C   UNL     1       5.900   4.931  18.916  0.00  0.00    +0.000 C 
ATOM     28  C   UNL     1       4.855   3.863  19.266  0.00  0.00    +0.000 C 
ENDBRANCH  20  23
ENDBRANCH   2  15
TORSDOF 3
ENDMDL
