MODEL 1
REMARK VINA RESULT:      -8.1      0.000      0.000
REMARK  Name = 
REMARK  5 active torsions:
REMARK  status: ('A' for Active; 'I' for Inactive)
REMARK    1  A    between atoms: C_1  and  N_2
REMARK    2  A    between atoms: C_6  and  C_7
REMARK    3  A    between atoms: C_12  and  C_13
REMARK    4  A    between atoms: C_16  and  C_17
REMARK    5  A    between atoms: C_24  and  C_25
REMARK                            x       y       z     vdW  Elec       q    Type
REMARK                         _______ _______ _______ _____ _____    ______ ____
ROOT
ATOM      1  C   UNL     1      -0.097  10.228  18.970  0.00  0.00    +0.000 A 
ATOM      2  C   UNL     1      -0.621   9.701  17.770  0.00  0.00    +0.000 A 
ATOM      3  C   UNL     1      -1.902  10.018  17.290  0.00  0.00    +0.000 A 
ATOM      4  C   UNL     1      -2.717  10.886  18.012  0.00  0.00    +0.000 A 
ATOM      5  C   UNL     1      -2.241  11.390  19.224  0.00  0.00    +0.000 A 
ATOM      6  C   UNL     1      -0.947  11.084  19.727  0.00  0.00    +0.000 A 
ENDROOT
BRANCH   4   7
ATOM      7  C   UNL     1      -4.082  11.296  17.567  0.00  0.00    +0.000 C 
ATOM      8  O   UNL     1      -4.232  11.770  16.446  0.00  0.00    +0.000 OA
ATOM      9  N   UNL     1      -5.123  11.053  18.449  0.00  0.00    +0.000 N 
ATOM     10  C   UNL     1      -6.443  11.335  18.242  0.00  0.00    +0.000 C 
ATOM     11  N   UNL     1      -6.889  11.890  17.173  0.00  0.00    +0.000 NA
ATOM     12  N   UNL     1      -7.310  10.995  19.217  0.00  0.00    +0.000 N 
ATOM     13  H   UNL     1      -4.919  10.628  19.337  0.00  0.00    +0.000 HD
ATOM     14  H   UNL     1      -6.089  12.068  16.540  0.00  0.00    +0.000 HD
ATOM     15  H   UNL     1      -7.162  10.093  19.651  0.00  0.00    +0.000 HD
ATOM     16  H   UNL     1      -8.262  11.084  18.869  0.00  0.00    +0.000 HD
ENDBRANCH   4   7
BRANCH   1  22
ATOM     17  C   UNL     1       2.336   5.567  18.865  0.00  0.00    +0.000 C 
ATOM     18  O   UNL     1       2.761   5.236  17.752  0.00  0.00    +0.000 OA
ATOM     19  N   UNL     1       2.070   6.951  19.122  0.00  0.00    +0.000 N 
ATOM     20  C   UNL     1       2.157   7.840  17.963  0.00  0.00    +0.000 C 
ATOM     21  C   UNL     1       2.262   9.329  18.288  0.00  0.00    +0.000 C 
ATOM     22  C   UNL     1       1.327   9.843  19.395  0.00  0.00    +0.000 C 
ATOM     23  C   UNL     1       1.412   8.895  20.593  0.00  0.00    +0.000 C 
ATOM     24  C   UNL     1       1.267   7.410  20.260  0.00  0.00    +0.000 C 
BRANCH  17  30
ATOM     25  C   UNL     1       0.790   2.844  18.573  0.00  0.00    +0.000 C 
ATOM     26  N   UNL     1       1.459   3.339  19.755  0.00  0.00    +0.000 N 
ATOM     27  C   UNL     1       1.561   2.633  20.924  0.00  0.00    +0.000 A 
ATOM     28  C   UNL     1       2.250   3.451  21.777  0.00  0.00    +0.000 A 
ATOM     29  N   UNL     1       2.558   4.630  21.161  0.00  0.00    +0.000 NA
ATOM     30  C   UNL     1       2.128   4.545  19.908  0.00  0.00    +0.000 A 
ENDBRANCH  17  30
ENDBRANCH   1  22
BRANCH   6  31
ATOM     31  C   UNL     1      -0.647  11.762  21.058  0.00  0.00    +0.000 C 
ATOM     32  F   UNL     1      -0.534  10.962  22.146  0.00  0.00    +0.000 F 
ATOM     33  F   UNL     1       0.519  12.469  21.004  0.00  0.00    +0.000 F 
ATOM     34  F   UNL     1      -1.608  12.675  21.384  0.00  0.00    +0.000 F 
ENDBRANCH   6  31
TORSDOF 4
ENDMDL
MODEL 2
REMARK VINA RESULT:      -8.1      0.669      1.126
REMARK  Name = 
REMARK  5 active torsions:
REMARK  status: ('A' for Active; 'I' for Inactive)
REMARK    1  A    between atoms: C_1  and  N_2
REMARK    2  A    between atoms: C_6  and  C_7
REMARK    3  A    between atoms: C_12  and  C_13
REMARK    4  A    between atoms: C_16  and  C_17
REMARK    5  A    between atoms: C_24  and  C_25
REMARK                            x       y       z     vdW  Elec       q    Type
REMARK                         _______ _______ _______ _____ _____    ______ ____
ROOT
ATOM      1  C   UNL     1      -0.042  10.155  18.947  0.00  0.00    +0.000 A 
ATOM      2  C   UNL     1      -0.608   9.616  17.772  0.00  0.00    +0.000 A 
ATOM      3  C   UNL     1      -1.903   9.935  17.330  0.00  0.00    +0.000 A 
ATOM      4  C   UNL     1      -2.688  10.818  18.066  0.00  0.00    +0.000 A 
ATOM      5  C   UNL     1      -2.168  11.335  19.255  0.00  0.00    +0.000 A 
ATOM      6  C   UNL     1      -0.861  11.027  19.719  0.00  0.00    +0.000 A 
ENDROOT
BRANCH   4   7
ATOM      7  C   UNL     1      -4.064  11.233  17.661  0.00  0.00    +0.000 C 
ATOM      8  O   UNL     1      -4.226  11.815  16.593  0.00  0.00    +0.000 OA
ATOM      9  N   UNL     1      -5.098  10.869  18.509  0.00  0.00    +0.000 N 
ATOM     10  C   UNL     1      -6.425  11.132  18.326  0.00  0.00    +0.000 C 
ATOM     11  N   UNL     1      -6.887  11.782  17.318  0.00  0.00    +0.000 NA
ATOM     12  N   UNL     1      -7.283  10.668  19.257  0.00  0.00    +0.000 N 
ATOM     13  H   UNL     1      -4.882  10.360  19.349  0.00  0.00    +0.000 HD
ATOM     14  H   UNL     1      -6.092  12.048  16.710  0.00  0.00    +0.000 HD
ATOM     15  H   UNL     1      -7.109   9.731  19.596  0.00  0.00    +0.000 HD
ATOM     16  H   UNL     1      -8.237  10.765  18.916  0.00  0.00    +0.000 HD
ENDBRANCH   4   7
BRANCH   1  22
ATOM     17  C   UNL     1       2.407   5.509  18.665  0.00  0.00    +0.000 C 
ATOM     18  O   UNL     1       2.809   5.209  17.534  0.00  0.00    +0.000 OA
ATOM     19  N   UNL     1       2.141   6.885  18.964  0.00  0.00    +0.000 N 
ATOM     20  C   UNL     1       2.199   7.804  17.828  0.00  0.00    +0.000 C 
ATOM     21  C   UNL     1       2.305   9.285  18.190  0.00  0.00    +0.000 C 
ATOM     22  C   UNL     1       1.392   9.765  19.330  0.00  0.00    +0.000 C 
ATOM     23  C   UNL     1       1.508   8.786  20.501  0.00  0.00    +0.000 C 
ATOM     24  C   UNL     1       1.361   7.309  20.132  0.00  0.00    +0.000 C 
BRANCH  17  30
ATOM     25  C   UNL     1       4.538   3.402  19.618  0.00  0.00    +0.000 C 
ATOM     26  N   UNL     1       3.186   3.550  20.106  0.00  0.00    +0.000 N 
ATOM     27  C   UNL     1       2.659   2.803  21.128  0.00  0.00    +0.000 A 
ATOM     28  C   UNL     1       1.372   3.245  21.267  0.00  0.00    +0.000 A 
ATOM     29  N   UNL     1       1.105   4.228  20.358  0.00  0.00    +0.000 NA
ATOM     30  C   UNL     1       2.226   4.459  19.685  0.00  0.00    +0.000 A 
ENDBRANCH  17  30
ENDBRANCH   1  22
BRANCH   6  31
ATOM     31  C   UNL     1      -0.513  11.721  21.031  0.00  0.00    +0.000 C 
ATOM     32  F   UNL     1       0.688  12.345  21.099  0.00  0.00    +0.000 F 
ATOM     33  F   UNL     1      -1.437  12.673  21.348  0.00  0.00    +0.000 F 
ATOM     34  F   UNL     1      -0.521  10.846  22.079  0.00  0.00    +0.000 F 
ENDBRANCH   6  31
TORSDOF 4
ENDMDL
MODEL 3
REMARK VINA RESULT:      -7.9      5.274      7.515
REMARK  Name = 
REMARK  5 active torsions:
REMARK  status: ('A' for Active; 'I' for Inactive)
REMARK    1  A    between atoms: C_1  and  N_2
REMARK    2  A    between atoms: C_6  and  C_7
REMARK    3  A    between atoms: C_12  and  C_13
REMARK    4  A    between atoms: C_16  and  C_17
REMARK    5  A    between atoms: C_24  and  C_25
REMARK                            x       y       z     vdW  Elec       q    Type
REMARK                         _______ _______ _______ _____ _____    ______ ____
ROOT
ATOM      1  C   UNL     1       3.398   5.008  19.230  0.00  0.00    +0.000 A 
ATOM      2  C   UNL     1       3.601   6.238  18.568  0.00  0.00    +0.000 A 
ATOM      3  C   UNL     1       2.881   7.403  18.878  0.00  0.00    +0.000 A 
ATOM      4  C   UNL     1       1.912   7.373  19.878  0.00  0.00    +0.000 A 
ATOM      5  C   UNL     1       1.660   6.160  20.521  0.00  0.00    +0.000 A 
ATOM      6  C   UNL     1       2.379   4.970  20.225  0.00  0.00    +0.000 A 
ENDROOT
BRANCH   4   7
ATOM      7  C   UNL     1       1.116   8.567  20.290  0.00  0.00    +0.000 C 
ATOM      8  O   UNL     1       0.861   9.435  19.461  0.00  0.00    +0.000 OA
ATOM      9  N   UNL     1       0.655   8.586  21.596  0.00  0.00    +0.000 N 
ATOM     10  C   UNL     1      -0.097   9.568  22.176  0.00  0.00    +0.000 C 
ATOM     11  N   UNL     1      -0.468  10.632  21.560  0.00  0.00    +0.000 NA
ATOM     12  N   UNL     1      -0.470   9.387  23.459  0.00  0.00    +0.000 N 
ATOM     13  H   UNL     1       0.879   7.816  22.203  0.00  0.00    +0.000 HD
ATOM     14  H   UNL     1      -0.101  10.594  20.592  0.00  0.00    +0.000 HD
ATOM     15  H   UNL     1      -0.777   8.456  23.708  0.00  0.00    +0.000 HD
ATOM     16  H   UNL     1      -1.169  10.084  23.709  0.00  0.00    +0.000 HD
ENDBRANCH   4   7
BRANCH   1  22
ATOM     17  C   UNL     1       6.972   4.475  15.409  0.00  0.00    +0.000 C 
ATOM     18  O   UNL     1       8.078   4.961  15.672  0.00  0.00    +0.000 OA
ATOM     19  N   UNL     1       6.081   4.157  16.486  0.00  0.00    +0.000 N 
ATOM     20  C   UNL     1       6.500   4.613  17.812  0.00  0.00    +0.000 C 
ATOM     21  C   UNL     1       5.778   3.955  18.987  0.00  0.00    +0.000 C 
ATOM     22  C   UNL     1       4.256   3.798  18.838  0.00  0.00    +0.000 C 
ATOM     23  C   UNL     1       3.953   3.208  17.459  0.00  0.00    +0.000 C 
ATOM     24  C   UNL     1       4.652   3.898  16.287  0.00  0.00    +0.000 C 
BRANCH  17  30
ATOM     25  C   UNL     1       8.331   5.652  12.829  0.00  0.00    +0.000 C 
ATOM     26  N   UNL     1       7.219   4.729  12.880  0.00  0.00    +0.000 N 
ATOM     27  C   UNL     1       6.633   4.181  11.769  0.00  0.00    +0.000 A 
ATOM     28  C   UNL     1       5.631   3.384  12.251  0.00  0.00    +0.000 A 
ATOM     29  N   UNL     1       5.590   3.440  13.614  0.00  0.00    +0.000 NA
ATOM     30  C   UNL     1       6.594   4.215  14.007  0.00  0.00    +0.000 A 
ENDBRANCH  17  30
ENDBRANCH   1  22
BRANCH   6  31
ATOM     31  C   UNL     1       1.936   3.779  21.066  0.00  0.00    +0.000 C 
ATOM     32  F   UNL     1       0.608   3.512  21.106  0.00  0.00    +0.000 F 
ATOM     33  F   UNL     1       2.527   2.625  20.642  0.00  0.00    +0.000 F 
ATOM     34  F   UNL     1       2.312   3.919  22.371  0.00  0.00    +0.000 F 
ENDBRANCH   6  31
TORSDOF 4
ENDMDL
MODEL 4
REMARK VINA RESULT:      -7.8      4.850      8.254
REMARK  Name = 
REMARK  5 active torsions:
REMARK  status: ('A' for Active; 'I' for Inactive)
REMARK    1  A    between atoms: C_1  and  N_2
REMARK    2  A    between atoms: C_6  and  C_7
REMARK    3  A    between atoms: C_12  and  C_13
REMARK    4  A    between atoms: C_16  and  C_17
REMARK    5  A    between atoms: C_24  and  C_25
REMARK                            x       y       z     vdW  Elec       q    Type
REMARK                         _______ _______ _______ _____ _____    ______ ____
ROOT
ATOM      1  C   UNL     1      -1.396  11.635  19.957  0.00  0.00    +0.000 A 
ATOM      2  C   UNL     1      -2.654  12.223  19.704  0.00  0.00    +0.000 A 
ATOM      3  C   UNL     1      -3.393  11.976  18.536  0.00  0.00    +0.000 A 
ATOM      4  C   UNL     1      -2.885  11.120  17.563  0.00  0.00    +0.000 A 
ATOM      5  C   UNL     1      -1.624  10.557  17.768  0.00  0.00    +0.000 A 
ATOM      6  C   UNL     1      -0.860  10.791  18.943  0.00  0.00    +0.000 A 
ENDROOT
BRANCH   4   7
ATOM      7  C   UNL     1      -3.610  10.782  16.302  0.00  0.00    +0.000 C 
ATOM      8  O   UNL     1      -4.822  10.961  16.239  0.00  0.00    +0.000 OA
ATOM      9  N   UNL     1      -2.838  10.334  15.242  0.00  0.00    +0.000 N 
ATOM     10  C   UNL     1      -3.291   9.983  14.002  0.00  0.00    +0.000 C 
ATOM     11  N   UNL     1      -4.530  10.016  13.665  0.00  0.00    +0.000 NA
ATOM     12  N   UNL     1      -2.373   9.596  13.093  0.00  0.00    +0.000 N 
ATOM     13  H   UNL     1      -1.844  10.248  15.366  0.00  0.00    +0.000 HD
ATOM     14  H   UNL     1      -5.081  10.344  14.478  0.00  0.00    +0.000 HD
ATOM     15  H   UNL     1      -1.519  10.137  13.063  0.00  0.00    +0.000 HD
ATOM     16  H   UNL     1      -2.808   9.543  12.175  0.00  0.00    +0.000 HD
ENDBRANCH   4   7
BRANCH   1  22
ATOM     17  C   UNL     1      -3.264  13.645  24.444  0.00  0.00    +0.000 C 
ATOM     18  O   UNL     1      -3.866  12.834  25.157  0.00  0.00    +0.000 OA
ATOM     19  N   UNL     1      -2.350  13.155  23.456  0.00  0.00    +0.000 N 
ATOM     20  C   UNL     1      -2.347  11.705  23.257  0.00  0.00    +0.000 C 
ATOM     21  C   UNL     1      -1.133  11.150  22.513  0.00  0.00    +0.000 C 
ATOM     22  C   UNL     1      -0.679  11.946  21.278  0.00  0.00    +0.000 C 
ATOM     23  C   UNL     1      -0.611  13.430  21.646  0.00  0.00    +0.000 C 
ATOM     24  C   UNL     1      -1.847  13.983  22.355  0.00  0.00    +0.000 C 
BRANCH  17  30
ATOM     25  C   UNL     1      -1.429  15.650  26.025  0.00  0.00    +0.000 C 
ATOM     26  N   UNL     1      -2.649  15.965  25.316  0.00  0.00    +0.000 N 
ATOM     27  C   UNL     1      -3.147  17.235  25.185  0.00  0.00    +0.000 A 
ATOM     28  C   UNL     1      -4.301  17.093  24.463  0.00  0.00    +0.000 A 
ATOM     29  N   UNL     1      -4.516  15.779  24.162  0.00  0.00    +0.000 NA
ATOM     30  C   UNL     1      -3.481  15.092  24.630  0.00  0.00    +0.000 A 
ENDBRANCH  17  30
ENDBRANCH   1  22
BRANCH   6  31
ATOM     31  C   UNL     1       0.476  10.057  18.945  0.00  0.00    +0.000 C 
ATOM     32  F   UNL     1       0.764   9.298  17.859  0.00  0.00    +0.000 F 
ATOM     33  F   UNL     1       1.519  10.927  19.069  0.00  0.00    +0.000 F 
ATOM     34  F   UNL     1       0.582   9.211  20.011  0.00  0.00    +0.000 F 
ENDBRANCH   6  31
TORSDOF 4
ENDMDL
MODEL 5
REMARK VINA RESULT:      -7.7      4.786      8.014
REMARK  Name = 
REMARK  5 active torsions:
REMARK  status: ('A' for Active; 'I' for Inactive)
REMARK    1  A    between atoms: C_1  and  N_2
REMARK    2  A    between atoms: C_6  and  C_7
REMARK    3  A    between atoms: C_12  and  C_13
REMARK    4  A    between atoms: C_16  and  C_17
REMARK    5  A    between atoms: C_24  and  C_25
REMARK                            x       y       z     vdW  Elec       q    Type
REMARK                         _______ _______ _______ _____ _____    ______ ____
ROOT
ATOM      1  C   UNL     1      -0.877  11.095  19.831  0.00  0.00    +0.000 A 
ATOM      2  C   UNL     1      -2.140  11.720  19.746  0.00  0.00    +0.000 A 
ATOM      3  C   UNL     1      -2.977  11.607  18.624  0.00  0.00    +0.000 A 
ATOM      4  C   UNL     1      -2.567  10.852  17.528  0.00  0.00    +0.000 A 
ATOM      5  C   UNL     1      -1.305  10.257  17.567  0.00  0.00    +0.000 A 
ATOM      6  C   UNL     1      -0.443  10.357  18.693  0.00  0.00    +0.000 A 
ENDROOT
BRANCH   4   7
ATOM      7  C   UNL     1      -3.400  10.658  16.304  0.00  0.00    +0.000 C 
ATOM      8  O   UNL     1      -4.592  10.943  16.336  0.00  0.00    +0.000 OA
ATOM      9  N   UNL     1      -2.741  10.214  15.168  0.00  0.00    +0.000 N 
ATOM     10  C   UNL     1      -3.302   9.983  13.945  0.00  0.00    +0.000 C 
ATOM     11  N   UNL     1      -4.553  10.142  13.698  0.00  0.00    +0.000 NA
ATOM     12  N   UNL     1      -2.483   9.577  12.953  0.00  0.00    +0.000 N 
ATOM     13  H   UNL     1      -1.753  10.037  15.217  0.00  0.00    +0.000 HD
ATOM     14  H   UNL     1      -5.018  10.463  14.565  0.00  0.00    +0.000 HD
ATOM     15  H   UNL     1      -1.588  10.045  12.895  0.00  0.00    +0.000 HD
ATOM     16  H   UNL     1      -2.980   9.620  12.066  0.00  0.00    +0.000 HD
ENDBRANCH   4   7
BRANCH   1  22
ATOM     17  C   UNL     1      -1.234  14.663  23.678  0.00  0.00    +0.000 C 
ATOM     18  O   UNL     1      -2.139  14.449  24.493  0.00  0.00    +0.000 OA
ATOM     19  N   UNL     1      -0.751  13.577  22.877  0.00  0.00    +0.000 N 
ATOM     20  C   UNL     1      -1.513  12.331  22.972  0.00  0.00    +0.000 C 
ATOM     21  C   UNL     1      -0.799  11.088  22.444  0.00  0.00    +0.000 C 
ATOM     22  C   UNL     1      -0.049  11.257  21.113  0.00  0.00    +0.000 C 
ATOM     23  C   UNL     1       0.798  12.529  21.181  0.00  0.00    +0.000 C 
ATOM     24  C   UNL     1       0.063  13.776  21.674  0.00  0.00    +0.000 C 
BRANCH  17  30
ATOM     25  C   UNL     1      -2.265  17.011  21.858  0.00  0.00    +0.000 C 
ATOM     26  N   UNL     1      -1.137  17.045  22.762  0.00  0.00    +0.000 N 
ATOM     27  C   UNL     1      -0.382  18.164  22.996  0.00  0.00    +0.000 A 
ATOM     28  C   UNL     1       0.573  17.770  23.892  0.00  0.00    +0.000 A 
ATOM     29  N   UNL     1       0.422  16.449  24.199  0.00  0.00    +0.000 NA
ATOM     30  C   UNL     1      -0.656  16.015  23.557  0.00  0.00    +0.000 A 
ENDBRANCH  17  30
ENDBRANCH   1  22
BRANCH   6  31
ATOM     31  C   UNL     1       0.873   9.612  18.507  0.00  0.00    +0.000 C 
ATOM     32  F   UNL     1       1.291   8.832  19.533  0.00  0.00    +0.000 F 
ATOM     33  F   UNL     1       0.828   8.789  17.419  0.00  0.00    +0.000 F 
ATOM     34  F   UNL     1       1.906  10.471  18.267  0.00  0.00    +0.000 F 
ENDBRANCH   6  31
TORSDOF 4
ENDMDL
MODEL 6
REMARK VINA RESULT:      -7.7      4.123      8.859
REMARK  Name = 
REMARK  5 active torsions:
REMARK  status: ('A' for Active; 'I' for Inactive)
REMARK    1  A    between atoms: C_1  and  N_2
REMARK    2  A    between atoms: C_6  and  C_7
REMARK    3  A    between atoms: C_12  and  C_13
REMARK    4  A    between atoms: C_16  and  C_17
REMARK    5  A    between atoms: C_24  and  C_25
REMARK                            x       y       z     vdW  Elec       q    Type
REMARK                         _______ _______ _______ _____ _____    ______ ____
ROOT
ATOM      1  C   UNL     1       1.044   9.433  19.200  0.00  0.00    +0.000 A 
ATOM      2  C   UNL     1       1.680   9.658  17.960  0.00  0.00    +0.000 A 
ATOM      3  C   UNL     1       2.640   8.784  17.422  0.00  0.00    +0.000 A 
ATOM      4  C   UNL     1       3.003   7.638  18.124  0.00  0.00    +0.000 A 
ATOM      5  C   UNL     1       2.421   7.412  19.372  0.00  0.00    +0.000 A 
ATOM      6  C   UNL     1       1.447   8.281  19.934  0.00  0.00    +0.000 A 
ENDROOT
BRANCH   4   7
ATOM      7  C   UNL     1       3.995   6.643  17.619  0.00  0.00    +0.000 C 
ATOM      8  O   UNL     1       4.554   6.842  16.545  0.00  0.00    +0.000 OA
ATOM      9  N   UNL     1       4.271   5.566  18.446  0.00  0.00    +0.000 N 
ATOM     10  C   UNL     1       5.149   4.552  18.190  0.00  0.00    +0.000 C 
ATOM     11  N   UNL     1       5.837   4.467  17.108  0.00  0.00    +0.000 NA
ATOM     12  N   UNL     1       5.297   3.605  19.139  0.00  0.00    +0.000 N 
ATOM     13  H   UNL     1       3.795   5.496  19.329  0.00  0.00    +0.000 HD
ATOM     14  H   UNL     1       5.602   5.278  16.508  0.00  0.00    +0.000 HD
ATOM     15  H   UNL     1       5.342   3.933  20.094  0.00  0.00    +0.000 HD
ATOM     16  H   UNL     1       6.100   3.021  18.912  0.00  0.00    +0.000 HD
ENDBRANCH   4   7
BRANCH   1  22
ATOM     17  C   UNL     1       1.291  14.662  19.704  0.00  0.00    +0.000 C 
ATOM     18  O   UNL     1       1.146  15.286  18.646  0.00  0.00    +0.000 OA
ATOM     19  N   UNL     1       0.812  13.314  19.784  0.00  0.00    +0.000 N 
ATOM     20  C   UNL     1       0.349  12.728  18.526  0.00  0.00    +0.000 C 
ATOM     21  C   UNL     1      -0.506  11.469  18.666  0.00  0.00    +0.000 C 
ATOM     22  C   UNL     1      -0.013  10.432  19.689  0.00  0.00    +0.000 C 
ATOM     23  C   UNL     1       0.329  11.151  20.995  0.00  0.00    +0.000 C 
ATOM     24  C   UNL     1       1.217  12.387  20.846  0.00  0.00    +0.000 C 
BRANCH  17  30
ATOM     25  C   UNL     1       4.368  14.823  20.330  0.00  0.00    +0.000 C 
ATOM     26  N   UNL     1       3.293  15.391  21.111  0.00  0.00    +0.000 N 
ATOM     27  C   UNL     1       3.488  16.153  22.234  0.00  0.00    +0.000 A 
ATOM     28  C   UNL     1       2.231  16.478  22.668  0.00  0.00    +0.000 A 
ATOM     29  N   UNL     1       1.288  15.930  21.847  0.00  0.00    +0.000 NA
ATOM     30  C   UNL     1       1.931  15.314  20.862  0.00  0.00    +0.000 A 
ENDBRANCH  17  30
ENDBRANCH   1  22
BRANCH   6  31
ATOM     31  C   UNL     1       0.947   7.818  21.298  0.00  0.00    +0.000 C 
ATOM     32  F   UNL     1      -0.387   7.897  21.526  0.00  0.00    +0.000 F 
ATOM     33  F   UNL     1       1.280   6.516  21.532  0.00  0.00    +0.000 F 
ATOM     34  F   UNL     1       1.526   8.526  22.311  0.00  0.00    +0.000 F 
ENDBRANCH   6  31
TORSDOF 4
ENDMDL
MODEL 7
REMARK VINA RESULT:      -7.7      4.117      8.892
REMARK  Name = 
REMARK  5 active torsions:
REMARK  status: ('A' for Active; 'I' for Inactive)
REMARK    1  A    between atoms: C_1  and  N_2
REMARK    2  A    between atoms: C_6  and  C_7
REMARK    3  A    between atoms: C_12  and  C_13
REMARK    4  A    between atoms: C_16  and  C_17
REMARK    5  A    between atoms: C_24  and  C_25
REMARK                            x       y       z     vdW  Elec       q    Type
REMARK                         _______ _______ _______ _____ _____    ______ ____
ROOT
ATOM      1  C   UNL     1       1.163   9.397  19.187  0.00  0.00    +0.000 A 
ATOM      2  C   UNL     1       1.821   9.571  17.950  0.00  0.00    +0.000 A 
ATOM      3  C   UNL     1       2.739   8.642  17.434  0.00  0.00    +0.000 A 
ATOM      4  C   UNL     1       3.037   7.489  18.155  0.00  0.00    +0.000 A 
ATOM      5  C   UNL     1       2.433   7.311  19.401  0.00  0.00    +0.000 A 
ATOM      6  C   UNL     1       1.499   8.237  19.941  0.00  0.00    +0.000 A 
ENDROOT
BRANCH   4   7
ATOM      7  C   UNL     1       3.981   6.437  17.674  0.00  0.00    +0.000 C 
ATOM      8  O   UNL     1       4.542   6.581  16.593  0.00  0.00    +0.000 OA
ATOM      9  N   UNL     1       4.213   5.372  18.529  0.00  0.00    +0.000 N 
ATOM     10  C   UNL     1       5.044   4.313  18.298  0.00  0.00    +0.000 C 
ATOM     11  N   UNL     1       5.721   4.168  17.216  0.00  0.00    +0.000 NA
ATOM     12  N   UNL     1       5.154   3.387  19.272  0.00  0.00    +0.000 N 
ATOM     13  H   UNL     1       3.739   5.347  19.416  0.00  0.00    +0.000 HD
ATOM     14  H   UNL     1       5.520   4.971  16.595  0.00  0.00    +0.000 HD
ATOM     15  H   UNL     1       5.219   3.739  20.218  0.00  0.00    +0.000 HD
ATOM     16  H   UNL     1       5.929   2.762  19.057  0.00  0.00    +0.000 HD
ENDBRANCH   4   7
BRANCH   1  22
ATOM     17  C   UNL     1       1.656  14.619  19.571  0.00  0.00    +0.000 C 
ATOM     18  O   UNL     1       1.542  15.225  18.499  0.00  0.00    +0.000 OA
ATOM     19  N   UNL     1       1.115  13.297  19.682  0.00  0.00    +0.000 N 
ATOM     20  C   UNL     1       0.625  12.705  18.436  0.00  0.00    +0.000 C 
ATOM     21  C   UNL     1      -0.289  11.492  18.605  0.00  0.00    +0.000 C 
ATOM     22  C   UNL     1       0.154  10.457  19.651  0.00  0.00    +0.000 C 
ATOM     23  C   UNL     1       0.530  11.188  20.941  0.00  0.00    +0.000 C 
ATOM     24  C   UNL     1       1.475  12.377  20.765  0.00  0.00    +0.000 C 
BRANCH  17  30
ATOM     25  C   UNL     1       0.284  16.063  22.005  0.00  0.00    +0.000 C 
ATOM     26  N   UNL     1       1.703  15.882  21.790  0.00  0.00    +0.000 N 
ATOM     27  C   UNL     1       2.664  16.277  22.683  0.00  0.00    +0.000 A 
ATOM     28  C   UNL     1       3.854  15.934  22.102  0.00  0.00    +0.000 A 
ATOM     29  N   UNL     1       3.640  15.353  20.886  0.00  0.00    +0.000 NA
ATOM     30  C   UNL     1       2.326  15.266  20.715  0.00  0.00    +0.000 A 
ENDBRANCH  17  30
ENDBRANCH   1  22
BRANCH   6  31
ATOM     31  C   UNL     1       0.965   7.820  21.306  0.00  0.00    +0.000 C 
ATOM     32  F   UNL     1      -0.369   7.946  21.511  0.00  0.00    +0.000 F 
ATOM     33  F   UNL     1       1.252   6.514  21.574  0.00  0.00    +0.000 F 
ATOM     34  F   UNL     1       1.550   8.532  22.313  0.00  0.00    +0.000 F 
ENDBRANCH   6  31
TORSDOF 4
ENDMDL
MODEL 8
REMARK VINA RESULT:      -7.6      4.363      8.636
REMARK  Name = 
REMARK  5 active torsions:
REMARK  status: ('A' for Active; 'I' for Inactive)
REMARK    1  A    between atoms: C_1  and  N_2
REMARK    2  A    between atoms: C_6  and  C_7
REMARK    3  A    between atoms: C_12  and  C_13
REMARK    4  A    between atoms: C_16  and  C_17
REMARK    5  A    between atoms: C_24  and  C_25
REMARK                            x       y       z     vdW  Elec       q    Type
REMARK                         _______ _______ _______ _____ _____    ______ ____
ROOT
ATOM      1  C   UNL     1       0.805  10.193  19.989  0.00  0.00    +0.000 A 
ATOM      2  C   UNL     1       1.577   9.792  18.878  0.00  0.00    +0.000 A 
ATOM      3  C   UNL     1       2.125   8.505  18.751  0.00  0.00    +0.000 A 
ATOM      4  C   UNL     1       1.917   7.562  19.754  0.00  0.00    +0.000 A 
ATOM      5  C   UNL     1       1.192   7.944  20.884  0.00  0.00    +0.000 A 
ATOM      6  C   UNL     1       0.627   9.240  21.032  0.00  0.00    +0.000 A 
ENDROOT
BRANCH   4   7
ATOM      7  C   UNL     1       2.441   6.165  19.693  0.00  0.00    +0.000 C 
ATOM      8  O   UNL     1       3.153   5.830  18.752  0.00  0.00    +0.000 OA
ATOM      9  N   UNL     1       2.130   5.337  20.760  0.00  0.00    +0.000 N 
ATOM     10  C   UNL     1       2.514   4.036  20.914  0.00  0.00    +0.000 C 
ATOM     11  N   UNL     1       3.222   3.399  20.052  0.00  0.00    +0.000 NA
ATOM     12  N   UNL     1       2.129   3.406  22.043  0.00  0.00    +0.000 N 
ATOM     13  H   UNL     1       1.569   5.701  21.510  0.00  0.00    +0.000 HD
ATOM     14  H   UNL     1       3.429   4.039  19.264  0.00  0.00    +0.000 HD
ATOM     15  H   UNL     1       2.197   3.941  22.898  0.00  0.00    +0.000 HD
ATOM     16  H   UNL     1       2.626   2.521  22.121  0.00  0.00    +0.000 HD
ENDBRANCH   4   7
BRANCH   1  22
ATOM     17  C   UNL     1       3.048  14.804  18.818  0.00  0.00    +0.000 C 
ATOM     18  O   UNL     1       3.123  15.044  17.607  0.00  0.00    +0.000 OA
ATOM     19  N   UNL     1       2.093  13.839  19.275  0.00  0.00    +0.000 N 
ATOM     20  C   UNL     1       1.405  13.081  18.229  0.00  0.00    +0.000 C 
ATOM     21  C   UNL     1       0.137  12.353  18.676  0.00  0.00    +0.000 C 
ATOM     22  C   UNL     1       0.225  11.614  20.021  0.00  0.00    +0.000 C 
ATOM     23  C   UNL     1       0.855  12.548  21.058  0.00  0.00    +0.000 C 
ATOM     24  C   UNL     1       2.143  13.241  20.613  0.00  0.00    +0.000 C 
BRANCH  17  30
ATOM     25  C   UNL     1       2.362  17.414  20.431  0.00  0.00    +0.000 C 
ATOM     26  N   UNL     1       3.594  16.660  20.484  0.00  0.00    +0.000 N 
ATOM     27  C   UNL     1       4.637  16.962  21.321  0.00  0.00    +0.000 A 
ATOM     28  C   UNL     1       5.595  16.023  21.052  0.00  0.00    +0.000 A 
ATOM     29  N   UNL     1       5.165  15.170  20.077  0.00  0.00    +0.000 NA
ATOM     30  C   UNL     1       3.922  15.519  19.767  0.00  0.00    +0.000 A 
ENDBRANCH  17  30
ENDBRANCH   1  22
BRANCH   6  31
ATOM     31  C   UNL     1      -0.131   9.416  22.342  0.00  0.00    +0.000 C 
ATOM     32  F   UNL     1      -0.950  10.491  22.441  0.00  0.00    +0.000 F 
ATOM     33  F   UNL     1      -0.917   8.333  22.610  0.00  0.00    +0.000 F 
ATOM     34  F   UNL     1       0.720   9.516  23.404  0.00  0.00    +0.000 F 
ENDBRANCH   6  31
TORSDOF 4
ENDMDL
MODEL 9
REMARK VINA RESULT:      -7.6      3.292      8.788
REMARK  Name = 
REMARK  5 active torsions:
REMARK  status: ('A' for Active; 'I' for Inactive)
REMARK    1  A    between atoms: C_1  and  N_2
REMARK    2  A    between atoms: C_6  and  C_7
REMARK    3  A    between atoms: C_12  and  C_13
REMARK    4  A    between atoms: C_16  and  C_17
REMARK    5  A    between atoms: C_24  and  C_25
REMARK                            x       y       z     vdW  Elec       q    Type
REMARK                         _______ _______ _______ _____ _____    ______ ____
ROOT
ATOM      1  C   UNL     1      -0.056  12.278  20.469  0.00  0.00    +0.000 A 
ATOM      2  C   UNL     1      -0.389  10.973  20.891  0.00  0.00    +0.000 A 
ATOM      3  C   UNL     1       0.174   9.818  20.324  0.00  0.00    +0.000 A 
ATOM      4  C   UNL     1       1.103   9.934  19.294  0.00  0.00    +0.000 A 
ATOM      5  C   UNL     1       1.421  11.211  18.828  0.00  0.00    +0.000 A 
ATOM      6  C   UNL     1       0.865  12.393  19.389  0.00  0.00    +0.000 A 
ENDROOT
BRANCH   4   7
ATOM      7  C   UNL     1       1.769   8.764  18.649  0.00  0.00    +0.000 C 
ATOM      8  O   UNL     1       2.004   8.793  17.446  0.00  0.00    +0.000 OA
ATOM      9  N   UNL     1       2.142   7.723  19.485  0.00  0.00    +0.000 N 
ATOM     10  C   UNL     1       2.772   6.570  19.111  0.00  0.00    +0.000 C 
ATOM     11  N   UNL     1       3.092   6.300  17.897  0.00  0.00    +0.000 NA
ATOM     12  N   UNL     1       3.076   5.687  20.083  0.00  0.00    +0.000 N 
ATOM     13  H   UNL     1       1.945   7.794  20.468  0.00  0.00    +0.000 HD
ATOM     14  H   UNL     1       2.792   7.089  17.297  0.00  0.00    +0.000 HD
ATOM     15  H   UNL     1       3.443   6.076  20.942  0.00  0.00    +0.000 HD
ATOM     16  H   UNL     1       3.696   4.972  19.708  0.00  0.00    +0.000 HD
ENDBRANCH   4   7
BRANCH   1  22
ATOM     17  C   UNL     1      -4.631  12.644  23.037  0.00  0.00    +0.000 C 
ATOM     18  O   UNL     1      -4.608  12.197  24.190  0.00  0.00    +0.000 OA
ATOM     19  N   UNL     1      -3.395  13.010  22.411  0.00  0.00    +0.000 N 
ATOM     20  C   UNL     1      -2.181  12.646  23.142  0.00  0.00    +0.000 C 
ATOM     21  C   UNL     1      -0.908  13.361  22.691  0.00  0.00    +0.000 C 
ATOM     22  C   UNL     1      -0.705  13.478  21.172  0.00  0.00    +0.000 C 
ATOM     23  C   UNL     1      -2.006  13.976  20.537  0.00  0.00    +0.000 C 
ATOM     24  C   UNL     1      -3.268  13.228  20.967  0.00  0.00    +0.000 C 
BRANCH  17  30
ATOM     25  C   UNL     1      -6.444  15.213  22.977  0.00  0.00    +0.000 C 
ATOM     26  N   UNL     1      -6.695  13.957  22.305  0.00  0.00    +0.000 N 
ATOM     27  C   UNL     1      -7.764  13.738  21.476  0.00  0.00    +0.000 A 
ATOM     28  C   UNL     1      -7.635  12.440  21.062  0.00  0.00    +0.000 A 
ATOM     29  N   UNL     1      -6.528  11.870  21.621  0.00  0.00    +0.000 NA
ATOM     30  C   UNL     1      -5.918  12.808  22.336  0.00  0.00    +0.000 A 
ENDBRANCH  17  30
ENDBRANCH   1  22
BRANCH   6  31
ATOM     31  C   UNL     1       1.373  13.667  18.724  0.00  0.00    +0.000 C 
ATOM     32  F   UNL     1       2.210  13.520  17.668  0.00  0.00    +0.000 F 
ATOM     33  F   UNL     1       0.342  14.434  18.268  0.00  0.00    +0.000 F 
ATOM     34  F   UNL     1       2.049  14.459  19.607  0.00  0.00    +0.000 F 
ENDBRANCH   6  31
TORSDOF 4
ENDMDL
