MODEL 1
REMARK VINA RESULT:      -7.5      0.000      0.000
REMARK  Name = 
REMARK  5 active torsions:
REMARK  status: ('A' for Active; 'I' for Inactive)
REMARK    1  A    between atoms: C_1  and  O_2
REMARK    2  A    between atoms: O_2  and  C_3
REMARK    3  A    between atoms: C_6  and  C_7
REMARK    4  A    between atoms: C_17  and  C_18
REMARK    5  A    between atoms: C_18  and  N_19
REMARK                            x       y       z     vdW  Elec       q    Type
REMARK                         _______ _______ _______ _____ _____    ______ ____
ROOT
ATOM      1  C   UNL     1       6.930   6.430  17.549  0.00  0.00    +0.000 A 
ATOM      2  C   UNL     1       7.137   5.959  18.841  0.00  0.00    +0.000 A 
ATOM      3  C   UNL     1       6.163   5.207  19.478  0.00  0.00    +0.000 A 
ATOM      4  C   UNL     1       4.931   4.913  18.867  0.00  0.00    +0.000 A 
ATOM      5  C   UNL     1       4.765   5.308  17.530  0.00  0.00    +0.000 A 
ATOM      6  C   UNL     1       5.779   6.032  16.847  0.00  0.00    +0.000 A 
ENDROOT
BRANCH   4   7
ATOM      7  C   UNL     1       3.905   4.267  19.783  0.00  0.00    +0.000 C 
ATOM      8  N   UNL     1       3.052   5.363  20.351  0.00  0.00    +0.000 NA
ATOM      9  C   UNL     1       1.915   4.844  21.130  0.00  0.00    +0.000 C 
ATOM     10  C   UNL     1       0.909   4.041  20.269  0.00  0.00    +0.000 C 
ATOM     11  C   UNL     1       1.676   3.138  19.378  0.00  0.00    +0.000 A 
ATOM     12  N   UNL     1       1.243   2.018  18.739  0.00  0.00    +0.000 N 
ATOM     13  C   UNL     1       2.343   1.460  18.145  0.00  0.00    +0.000 A 
ATOM     14  N   UNL     1       3.434   2.168  18.359  0.00  0.00    +0.000 NA
ATOM     15  C   UNL     1       3.028   3.248  19.106  0.00  0.00    +0.000 A 
ATOM     16  H   UNL     1       2.688   5.879  19.548  0.00  0.00    +0.000 HD
ATOM     17  H   UNL     1       0.308   1.632  18.750  0.00  0.00    +0.000 HD
ENDBRANCH   4   7
BRANCH   1  19
ATOM     18  C   UNL     1       8.023   8.515  17.593  0.00  0.00    +0.000 C 
ATOM     19  O   UNL     1       7.820   7.265  16.920  0.00  0.00    +0.000 OA
ENDBRANCH   1  19
BRANCH   6  20
ATOM     20  C   UNL     1       5.602   6.349  15.379  0.00  0.00    +0.000 C 
BRANCH  20  21
ATOM     21  N   UNL     1       6.144   5.331  14.501  0.00  0.00    +0.000 N 
ATOM     22  C   UNL     1       5.497   4.259  13.968  0.00  0.00    +0.000 A 
ATOM     23  N   UNL     1       6.291   3.634  13.128  0.00  0.00    +0.000 NA
ATOM     24  C   UNL     1       7.427   4.390  13.165  0.00  0.00    +0.000 A 
ATOM     25  N   UNL     1       7.384   5.449  13.978  0.00  0.00    +0.000 NA
ENDBRANCH  20  21
ENDBRANCH   6  20
TORSDOF 4
ENDMDL
MODEL 2
REMARK VINA RESULT:      -7.1      3.745      6.404
REMARK  Name = 
REMARK  5 active torsions:
REMARK  status: ('A' for Active; 'I' for Inactive)
REMARK    1  A    between atoms: C_1  and  O_2
REMARK    2  A    between atoms: O_2  and  C_3
REMARK    3  A    between atoms: C_6  and  C_7
REMARK    4  A    between atoms: C_17  and  C_18
REMARK    5  A    between atoms: C_18  and  N_19
REMARK                            x       y       z     vdW  Elec       q    Type
REMARK                         _______ _______ _______ _____ _____    ______ ____
ROOT
ATOM      1  C   UNL     1       3.693   5.152  17.333  0.00  0.00    +0.000 A 
ATOM      2  C   UNL     1       4.342   6.381  17.284  0.00  0.00    +0.000 A 
ATOM      3  C   UNL     1       3.749   7.511  17.823  0.00  0.00    +0.000 A 
ATOM      4  C   UNL     1       2.472   7.471  18.412  0.00  0.00    +0.000 A 
ATOM      5  C   UNL     1       1.862   6.213  18.545  0.00  0.00    +0.000 A 
ATOM      6  C   UNL     1       2.487   5.039  18.045  0.00  0.00    +0.000 A 
ENDROOT
BRANCH   4   7
ATOM      7  C   UNL     1       1.888   8.832  18.755  0.00  0.00    +0.000 C 
ATOM      8  N   UNL     1       0.936   9.206  17.657  0.00  0.00    +0.000 NA
ATOM      9  C   UNL     1       0.184  10.436  17.961  0.00  0.00    +0.000 C 
ATOM     10  C   UNL     1      -0.752  10.285  19.186  0.00  0.00    +0.000 C 
ATOM     11  C   UNL     1      -0.005   9.584  20.257  0.00  0.00    +0.000 A 
ATOM     12  N   UNL     1      -0.270   9.562  21.592  0.00  0.00    +0.000 N 
ATOM     13  C   UNL     1       0.769   8.894  22.183  0.00  0.00    +0.000 A 
ATOM     14  N   UNL     1       1.658   8.483  21.302  0.00  0.00    +0.000 NA
ATOM     15  C   UNL     1       1.172   8.880  20.079  0.00  0.00    +0.000 A 
ATOM     16  H   UNL     1       0.276   8.430  17.583  0.00  0.00    +0.000 HD
ATOM     17  H   UNL     1      -1.044  10.005  22.068  0.00  0.00    +0.000 HD
ENDBRANCH   4   7
BRANCH   1  19
ATOM     18  C   UNL     1       5.312   4.288  15.857  0.00  0.00    +0.000 C 
ATOM     19  O   UNL     1       4.195   4.030  16.719  0.00  0.00    +0.000 OA
ENDBRANCH   1  19
BRANCH   6  20
ATOM     20  C   UNL     1       1.844   3.693  18.298  0.00  0.00    +0.000 C 
BRANCH  20  21
ATOM     21  N   UNL     1       2.025   3.217  19.656  0.00  0.00    +0.000 N 
ATOM     22  C   UNL     1       3.191   2.873  20.269  0.00  0.00    +0.000 A 
ATOM     23  N   UNL     1       2.962   2.606  21.535  0.00  0.00    +0.000 NA
ATOM     24  C   UNL     1       1.621   2.829  21.656  0.00  0.00    +0.000 A 
ATOM     25  N   UNL     1       1.003   3.220  20.539  0.00  0.00    +0.000 NA
ENDBRANCH  20  21
ENDBRANCH   6  20
TORSDOF 4
ENDMDL
MODEL 3
REMARK VINA RESULT:      -7.0      3.494      5.142
REMARK  Name = 
REMARK  5 active torsions:
REMARK  status: ('A' for Active; 'I' for Inactive)
REMARK    1  A    between atoms: C_1  and  O_2
REMARK    2  A    between atoms: O_2  and  C_3
REMARK    3  A    between atoms: C_6  and  C_7
REMARK    4  A    between atoms: C_17  and  C_18
REMARK    5  A    between atoms: C_18  and  N_19
REMARK                            x       y       z     vdW  Elec       q    Type
REMARK                         _______ _______ _______ _____ _____    ______ ____
ROOT
ATOM      1  C   UNL     1       3.045   4.013  17.838  0.00  0.00    +0.000 A 
ATOM      2  C   UNL     1       1.811   4.654  17.857  0.00  0.00    +0.000 A 
ATOM      3  C   UNL     1       1.735   6.023  18.059  0.00  0.00    +0.000 A 
ATOM      4  C   UNL     1       2.881   6.808  18.277  0.00  0.00    +0.000 A 
ATOM      5  C   UNL     1       4.128   6.174  18.161  0.00  0.00    +0.000 A 
ATOM      6  C   UNL     1       4.221   4.780  17.899  0.00  0.00    +0.000 A 
ENDROOT
BRANCH   4   7
ATOM      7  C   UNL     1       2.599   8.243  18.693  0.00  0.00    +0.000 C 
ATOM      8  N   UNL     1       2.136   8.985  17.473  0.00  0.00    +0.000 NA
ATOM      9  C   UNL     1       1.676  10.349  17.787  0.00  0.00    +0.000 C 
ATOM     10  C   UNL     1       0.422  10.370  18.696  0.00  0.00    +0.000 C 
ATOM     11  C   UNL     1       0.619   9.382  19.783  0.00  0.00    +0.000 A 
ATOM     12  N   UNL     1      -0.015   9.315  20.985  0.00  0.00    +0.000 N 
ATOM     13  C   UNL     1       0.598   8.315  21.692  0.00  0.00    +0.000 A 
ATOM     14  N   UNL     1       1.564   7.742  21.003  0.00  0.00    +0.000 NA
ATOM     15  C   UNL     1       1.571   8.379  19.784  0.00  0.00    +0.000 A 
ATOM     16  H   UNL     1       1.347   8.451  17.105  0.00  0.00    +0.000 HD
ATOM     17  H   UNL     1      -0.750   9.922  21.322  0.00  0.00    +0.000 HD
ENDBRANCH   4   7
BRANCH   1  19
ATOM     18  C   UNL     1       2.289   1.927  18.626  0.00  0.00    +0.000 C 
ATOM     19  O   UNL     1       3.162   2.647  17.746  0.00  0.00    +0.000 OA
ENDBRANCH   1  19
BRANCH   6  20
ATOM     20  C   UNL     1       5.582   4.157  17.683  0.00  0.00    +0.000 C 
BRANCH  20  21
ATOM     21  N   UNL     1       6.171   4.496  16.402  0.00  0.00    +0.000 N 
ATOM     22  C   UNL     1       7.163   5.395  16.153  0.00  0.00    +0.000 A 
ATOM     23  N   UNL     1       7.508   5.334  14.887  0.00  0.00    +0.000 NA
ATOM     24  C   UNL     1       6.701   4.347  14.399  0.00  0.00    +0.000 A 
ATOM     25  N   UNL     1       5.876   3.790  15.289  0.00  0.00    +0.000 NA
ENDBRANCH  20  21
ENDBRANCH   6  20
TORSDOF 4
ENDMDL
MODEL 4
REMARK VINA RESULT:      -6.9      3.717      5.416
REMARK  Name = 
REMARK  5 active torsions:
REMARK  status: ('A' for Active; 'I' for Inactive)
REMARK    1  A    between atoms: C_1  and  O_2
REMARK    2  A    between atoms: O_2  and  C_3
REMARK    3  A    between atoms: C_6  and  C_7
REMARK    4  A    between atoms: C_17  and  C_18
REMARK    5  A    between atoms: C_18  and  N_19
REMARK                            x       y       z     vdW  Elec       q    Type
REMARK                         _______ _______ _______ _____ _____    ______ ____
ROOT
ATOM      1  C   UNL     1       2.937   3.825  19.386  0.00  0.00    +0.000 A 
ATOM      2  C   UNL     1       2.100   4.512  20.258  0.00  0.00    +0.000 A 
ATOM      3  C   UNL     1       1.882   5.871  20.097  0.00  0.00    +0.000 A 
ATOM      4  C   UNL     1       2.509   6.609  19.077  0.00  0.00    +0.000 A 
ATOM      5  C   UNL     1       3.276   5.895  18.143  0.00  0.00    +0.000 A 
ATOM      6  C   UNL     1       3.462   4.492  18.266  0.00  0.00    +0.000 A 
ENDROOT
BRANCH   4   7
ATOM      7  C   UNL     1       2.327   8.115  19.180  0.00  0.00    +0.000 C 
ATOM      8  N   UNL     1       1.920   8.615  17.825  0.00  0.00    +0.000 NA
ATOM      9  C   UNL     1       1.556  10.042  17.839  0.00  0.00    +0.000 C 
ATOM     10  C   UNL     1       0.305  10.339  18.703  0.00  0.00    +0.000 C 
ATOM     11  C   UNL     1       0.430   9.589  19.975  0.00  0.00    +0.000 A 
ATOM     12  N   UNL     1      -0.209   9.819  21.155  0.00  0.00    +0.000 N 
ATOM     13  C   UNL     1       0.331   8.950  22.064  0.00  0.00    +0.000 A 
ATOM     14  N   UNL     1       1.255   8.181  21.526  0.00  0.00    +0.000 NA
ATOM     15  C   UNL     1       1.309   8.546  20.202  0.00  0.00    +0.000 A 
ATOM     16  H   UNL     1       1.095   8.071  17.564  0.00  0.00    +0.000 HD
ATOM     17  H   UNL     1      -0.901  10.531  21.345  0.00  0.00    +0.000 HD
ENDBRANCH   4   7
BRANCH   1  19
ATOM     18  C   UNL     1       4.385   2.296  20.441  0.00  0.00    +0.000 C 
ATOM     19  O   UNL     1       3.265   2.503  19.570  0.00  0.00    +0.000 OA
ENDBRANCH   1  19
BRANCH   6  20
ATOM     20  C   UNL     1       4.211   3.747  17.184  0.00  0.00    +0.000 C 
BRANCH  20  21
ATOM     21  N   UNL     1       5.618   4.092  17.119  0.00  0.00    +0.000 N 
ATOM     22  C   UNL     1       6.353   4.392  16.012  0.00  0.00    +0.000 A 
ATOM     23  N   UNL     1       7.559   4.768  16.371  0.00  0.00    +0.000 NA
ATOM     24  C   UNL     1       7.506   4.704  17.734  0.00  0.00    +0.000 A 
ATOM     25  N   UNL     1       6.336   4.311  18.242  0.00  0.00    +0.000 NA
ENDBRANCH  20  21
ENDBRANCH   6  20
TORSDOF 4
ENDMDL
MODEL 5
REMARK VINA RESULT:      -6.9      3.856      5.980
REMARK  Name = 
REMARK  5 active torsions:
REMARK  status: ('A' for Active; 'I' for Inactive)
REMARK    1  A    between atoms: C_1  and  O_2
REMARK    2  A    between atoms: O_2  and  C_3
REMARK    3  A    between atoms: C_6  and  C_7
REMARK    4  A    between atoms: C_17  and  C_18
REMARK    5  A    between atoms: C_18  and  N_19
REMARK                            x       y       z     vdW  Elec       q    Type
REMARK                         _______ _______ _______ _____ _____    ______ ____
ROOT
ATOM      1  C   UNL     1       2.856   4.043  20.355  0.00  0.00    +0.000 A 
ATOM      2  C   UNL     1       1.737   4.735  20.805  0.00  0.00    +0.000 A 
ATOM      3  C   UNL     1       1.523   6.049  20.421  0.00  0.00    +0.000 A 
ATOM      4  C   UNL     1       2.427   6.738  19.593  0.00  0.00    +0.000 A 
ATOM      5  C   UNL     1       3.503   6.008  19.064  0.00  0.00    +0.000 A 
ATOM      6  C   UNL     1       3.702   4.643  19.407  0.00  0.00    +0.000 A 
ENDROOT
BRANCH   4   7
ATOM      7  C   UNL     1       2.149   8.226  19.448  0.00  0.00    +0.000 C 
ATOM      8  N   UNL     1       1.558   8.446  18.087  0.00  0.00    +0.000 NA
ATOM      9  C   UNL     1       1.095   9.832  17.893  0.00  0.00    +0.000 C 
ATOM     10  C   UNL     1      -0.070  10.217  18.837  0.00  0.00    +0.000 C 
ATOM     11  C   UNL     1       0.250   9.722  20.197  0.00  0.00    +0.000 A 
ATOM     12  N   UNL     1      -0.269  10.132  21.386  0.00  0.00    +0.000 N 
ATOM     13  C   UNL     1       0.430   9.474  22.362  0.00  0.00    +0.000 A 
ATOM     14  N   UNL     1       1.342   8.668  21.860  0.00  0.00    +0.000 NA
ATOM     15  C   UNL     1       1.222   8.785  20.495  0.00  0.00    +0.000 A 
ATOM     16  H   UNL     1       0.752   7.822  18.029  0.00  0.00    +0.000 HD
ATOM     17  H   UNL     1      -0.985  10.831  21.531  0.00  0.00    +0.000 HD
ENDBRANCH   4   7
BRANCH   1  19
ATOM     18  C   UNL     1       2.166   2.198  21.646  0.00  0.00    +0.000 C 
ATOM     19  O   UNL     1       3.163   2.778  20.794  0.00  0.00    +0.000 OA
ENDBRANCH   1  19
BRANCH   6  20
ATOM     20  C   UNL     1       4.813   3.866  18.738  0.00  0.00    +0.000 C 
BRANCH  20  21
ATOM     21  N   UNL     1       6.031   4.635  18.570  0.00  0.00    +0.000 N 
ATOM     22  C   UNL     1       6.606   5.044  17.405  0.00  0.00    +0.000 A 
ATOM     23  N   UNL     1       7.632   5.820  17.667  0.00  0.00    +0.000 NA
ATOM     24  C   UNL     1       7.631   5.878  19.031  0.00  0.00    +0.000 A 
ATOM     25  N   UNL     1       6.662   5.183  19.632  0.00  0.00    +0.000 NA
ENDBRANCH  20  21
ENDBRANCH   6  20
TORSDOF 4
ENDMDL
MODEL 6
REMARK VINA RESULT:      -6.8      5.190      7.400
REMARK  Name = 
REMARK  5 active torsions:
REMARK  status: ('A' for Active; 'I' for Inactive)
REMARK    1  A    between atoms: C_1  and  O_2
REMARK    2  A    between atoms: O_2  and  C_3
REMARK    3  A    between atoms: C_6  and  C_7
REMARK    4  A    between atoms: C_17  and  C_18
REMARK    5  A    between atoms: C_18  and  N_19
REMARK                            x       y       z     vdW  Elec       q    Type
REMARK                         _______ _______ _______ _____ _____    ______ ____
ROOT
ATOM      1  C   UNL     1       2.920   7.229  18.102  0.00  0.00    +0.000 A 
ATOM      2  C   UNL     1       2.555   8.435  17.516  0.00  0.00    +0.000 A 
ATOM      3  C   UNL     1       1.732   9.323  18.190  0.00  0.00    +0.000 A 
ATOM      4  C   UNL     1       1.217   9.036  19.467  0.00  0.00    +0.000 A 
ATOM      5  C   UNL     1       1.664   7.862  20.094  0.00  0.00    +0.000 A 
ATOM      6  C   UNL     1       2.553   6.971  19.434  0.00  0.00    +0.000 A 
ENDROOT
BRANCH   4   7
ATOM      7  C   UNL     1       0.166  10.017  19.963  0.00  0.00    +0.000 C 
ATOM      8  N   UNL     1       0.876  11.082  20.747  0.00  0.00    +0.000 NA
ATOM      9  C   UNL     1      -0.022  12.180  21.142  0.00  0.00    +0.000 C 
ATOM     10  C   UNL     1      -0.586  12.966  19.932  0.00  0.00    +0.000 C 
ATOM     11  C   UNL     1      -1.013  11.989  18.902  0.00  0.00    +0.000 A 
ATOM     12  N   UNL     1      -1.879  12.178  17.870  0.00  0.00    +0.000 N 
ATOM     13  C   UNL     1      -2.050  10.955  17.278  0.00  0.00    +0.000 A 
ATOM     14  N   UNL     1      -1.334  10.017  17.864  0.00  0.00    +0.000 NA
ATOM     15  C   UNL     1      -0.648  10.655  18.870  0.00  0.00    +0.000 A 
ATOM     16  H   UNL     1       1.593  11.456  20.123  0.00  0.00    +0.000 HD
ATOM     17  H   UNL     1      -2.356  13.034  17.623  0.00  0.00    +0.000 HD
ENDBRANCH   4   7
BRANCH   1  19
ATOM     18  C   UNL     1       4.934   6.723  16.991  0.00  0.00    +0.000 C 
ATOM     19  O   UNL     1       3.645   6.274  17.430  0.00  0.00    +0.000 OA
ENDBRANCH   1  19
BRANCH   6  20
ATOM     20  C   UNL     1       3.089   5.771  20.182  0.00  0.00    +0.000 C 
BRANCH  20  21
ATOM     21  N   UNL     1       2.150   4.668  20.246  0.00  0.00    +0.000 N 
ATOM     22  C   UNL     1       1.453   4.106  19.220  0.00  0.00    +0.000 A 
ATOM     23  N   UNL     1       0.799   3.053  19.654  0.00  0.00    +0.000 NA
ATOM     24  C   UNL     1       1.152   2.997  20.971  0.00  0.00    +0.000 A 
ATOM     25  N   UNL     1       1.990   3.952  21.380  0.00  0.00    +0.000 NA
ENDBRANCH  20  21
ENDBRANCH   6  20
TORSDOF 4
ENDMDL
MODEL 7
REMARK VINA RESULT:      -6.8      1.438      2.307
REMARK  Name = 
REMARK  5 active torsions:
REMARK  status: ('A' for Active; 'I' for Inactive)
REMARK    1  A    between atoms: C_1  and  O_2
REMARK    2  A    between atoms: O_2  and  C_3
REMARK    3  A    between atoms: C_6  and  C_7
REMARK    4  A    between atoms: C_17  and  C_18
REMARK    5  A    between atoms: C_18  and  N_19
REMARK                            x       y       z     vdW  Elec       q    Type
REMARK                         _______ _______ _______ _____ _____    ______ ____
ROOT
ATOM      1  C   UNL     1       5.668   6.694  17.158  0.00  0.00    +0.000 A 
ATOM      2  C   UNL     1       4.593   7.280  17.818  0.00  0.00    +0.000 A 
ATOM      3  C   UNL     1       3.552   6.499  18.294  0.00  0.00    +0.000 A 
ATOM      4  C   UNL     1       3.524   5.105  18.111  0.00  0.00    +0.000 A 
ATOM      5  C   UNL     1       4.655   4.508  17.530  0.00  0.00    +0.000 A 
ATOM      6  C   UNL     1       5.753   5.294  17.088  0.00  0.00    +0.000 A 
ENDROOT
BRANCH   4   7
ATOM      7  C   UNL     1       2.215   4.439  18.502  0.00  0.00    +0.000 C 
ATOM      8  N   UNL     1       1.940   3.357  17.500  0.00  0.00    +0.000 NA
ATOM      9  C   UNL     1       0.776   2.532  17.869  0.00  0.00    +0.000 C 
ATOM     10  C   UNL     1       0.992   1.736  19.180  0.00  0.00    +0.000 C 
ATOM     11  C   UNL     1       1.610   2.641  20.178  0.00  0.00    +0.000 A 
ATOM     12  N   UNL     1       1.637   2.509  21.532  0.00  0.00    +0.000 N 
ATOM     13  C   UNL     1       2.205   3.655  22.022  0.00  0.00    +0.000 A 
ATOM     14  N   UNL     1       2.548   4.488  21.061  0.00  0.00    +0.000 NA
ATOM     15  C   UNL     1       2.211   3.853  19.889  0.00  0.00    +0.000 A 
ATOM     16  H   UNL     1       2.771   2.764  17.494  0.00  0.00    +0.000 HD
ATOM     17  H   UNL     1       1.258   1.748  22.078  0.00  0.00    +0.000 HD
ENDBRANCH   4   7
BRANCH   1  19
ATOM     18  C   UNL     1       7.593   8.003  17.516  0.00  0.00    +0.000 C 
ATOM     19  O   UNL     1       6.668   7.437  16.578  0.00  0.00    +0.000 OA
ENDBRANCH   1  19
BRANCH   6  20
ATOM     20  C   UNL     1       6.992   4.603  16.562  0.00  0.00    +0.000 C 
BRANCH  20  21
ATOM     21  N   UNL     1       7.016   4.493  15.116  0.00  0.00    +0.000 N 
ATOM     22  C   UNL     1       6.203   3.742  14.324  0.00  0.00    +0.000 A 
ATOM     23  N   UNL     1       6.456   3.999  13.061  0.00  0.00    +0.000 NA
ATOM     24  C   UNL     1       7.434   4.949  13.133  0.00  0.00    +0.000 A 
ATOM     25  N   UNL     1       7.801   5.298  14.368  0.00  0.00    +0.000 NA
ENDBRANCH  20  21
ENDBRANCH   6  20
TORSDOF 4
ENDMDL
MODEL 8
REMARK VINA RESULT:      -6.8      5.040      7.155
REMARK  Name = 
REMARK  5 active torsions:
REMARK  status: ('A' for Active; 'I' for Inactive)
REMARK    1  A    between atoms: C_1  and  O_2
REMARK    2  A    between atoms: O_2  and  C_3
REMARK    3  A    between atoms: C_6  and  C_7
REMARK    4  A    between atoms: C_17  and  C_18
REMARK    5  A    between atoms: C_18  and  N_19
REMARK                            x       y       z     vdW  Elec       q    Type
REMARK                         _______ _______ _______ _____ _____    ______ ____
ROOT
ATOM      1  C   UNL     1       0.893   9.014  20.292  0.00  0.00    +0.000 A 
ATOM      2  C   UNL     1       1.582   7.876  20.697  0.00  0.00    +0.000 A 
ATOM      3  C   UNL     1       2.358   7.166  19.794  0.00  0.00    +0.000 A 
ATOM      4  C   UNL     1       2.462   7.546  18.444  0.00  0.00    +0.000 A 
ATOM      5  C   UNL     1       1.844   8.747  18.063  0.00  0.00    +0.000 A 
ATOM      6  C   UNL     1       1.091   9.512  18.993  0.00  0.00    +0.000 A 
ENDROOT
BRANCH   4   7
ATOM      7  C   UNL     1       3.176   6.540  17.555  0.00  0.00    +0.000 C 
ATOM      8  N   UNL     1       4.651   6.767  17.710  0.00  0.00    +0.000 NA
ATOM      9  C   UNL     1       5.452   5.741  17.019  0.00  0.00    +0.000 C 
ATOM     10  C   UNL     1       5.261   4.323  17.612  0.00  0.00    +0.000 C 
ATOM     11  C   UNL     1       3.813   4.107  17.842  0.00  0.00    +0.000 A 
ATOM     12  N   UNL     1       3.150   2.928  17.988  0.00  0.00    +0.000 N 
ATOM     13  C   UNL     1       1.817   3.237  18.046  0.00  0.00    +0.000 A 
ATOM     14  N   UNL     1       1.605   4.534  17.962  0.00  0.00    +0.000 NA
ATOM     15  C   UNL     1       2.853   5.103  17.866  0.00  0.00    +0.000 A 
ATOM     16  H   UNL     1       4.839   6.706  18.712  0.00  0.00    +0.000 HD
ATOM     17  H   UNL     1       3.550   1.999  17.989  0.00  0.00    +0.000 HD
ENDBRANCH   4   7
BRANCH   1  19
ATOM     18  C   UNL     1      -0.178   9.044  22.389  0.00  0.00    +0.000 C 
ATOM     19  O   UNL     1       0.030   9.685  21.123  0.00  0.00    +0.000 OA
ENDBRANCH   1  19
BRANCH   6  20
ATOM     20  C   UNL     1       0.527  10.850  18.567  0.00  0.00    +0.000 C 
BRANCH  20  21
ATOM     21  N   UNL     1      -0.891  10.805  18.266  0.00  0.00    +0.000 N 
ATOM     22  C   UNL     1      -1.856  11.677  18.667  0.00  0.00    +0.000 A 
ATOM     23  N   UNL     1      -2.997  11.369  18.093  0.00  0.00    +0.000 NA
ATOM     24  C   UNL     1      -2.667  10.296  17.317  0.00  0.00    +0.000 A 
ATOM     25  N   UNL     1      -1.387   9.920  17.374  0.00  0.00    +0.000 NA
ENDBRANCH  20  21
ENDBRANCH   6  20
TORSDOF 4
ENDMDL
MODEL 9
REMARK VINA RESULT:      -6.8      2.253      4.109
REMARK  Name = 
REMARK  5 active torsions:
REMARK  status: ('A' for Active; 'I' for Inactive)
REMARK    1  A    between atoms: C_1  and  O_2
REMARK    2  A    between atoms: O_2  and  C_3
REMARK    3  A    between atoms: C_6  and  C_7
REMARK    4  A    between atoms: C_17  and  C_18
REMARK    5  A    between atoms: C_18  and  N_19
REMARK                            x       y       z     vdW  Elec       q    Type
REMARK                         _______ _______ _______ _____ _____    ______ ____
ROOT
ATOM      1  C   UNL     1       6.375   4.604  16.029  0.00  0.00    +0.000 A 
ATOM      2  C   UNL     1       5.119   4.341  15.494  0.00  0.00    +0.000 A 
ATOM      3  C   UNL     1       3.999   4.326  16.309  0.00  0.00    +0.000 A 
ATOM      4  C   UNL     1       4.084   4.547  17.695  0.00  0.00    +0.000 A 
ATOM      5  C   UNL     1       5.338   4.907  18.214  0.00  0.00    +0.000 A 
ATOM      6  C   UNL     1       6.485   4.980  17.378  0.00  0.00    +0.000 A 
ENDROOT
BRANCH   4   7
ATOM      7  C   UNL     1       2.798   4.283  18.461  0.00  0.00    +0.000 C 
ATOM      8  N   UNL     1       2.951   2.965  19.162  0.00  0.00    +0.000 NA
ATOM      9  C   UNL     1       1.827   2.678  20.070  0.00  0.00    +0.000 C 
ATOM     10  C   UNL     1       1.730   3.681  21.247  0.00  0.00    +0.000 C 
ATOM     11  C   UNL     1       1.923   5.048  20.709  0.00  0.00    +0.000 A 
ATOM     12  N   UNL     1       1.562   6.233  21.273  0.00  0.00    +0.000 N 
ATOM     13  C   UNL     1       1.831   7.203  20.344  0.00  0.00    +0.000 A 
ATOM     14  N   UNL     1       2.351   6.702  19.242  0.00  0.00    +0.000 NA
ATOM     15  C   UNL     1       2.448   5.349  19.466  0.00  0.00    +0.000 A 
ATOM     16  H   UNL     1       3.806   3.041  19.715  0.00  0.00    +0.000 HD
ATOM     17  H   UNL     1       1.123   6.372  22.173  0.00  0.00    +0.000 HD
ENDBRANCH   4   7
BRANCH   1  19
ATOM     18  C   UNL     1       7.340   4.839  13.893  0.00  0.00    +0.000 C 
ATOM     19  O   UNL     1       7.525   4.524  15.280  0.00  0.00    +0.000 OA
ENDBRANCH   1  19
BRANCH   6  20
ATOM     20  C   UNL     1       7.794   5.468  17.958  0.00  0.00    +0.000 C 
BRANCH  20  21
ATOM     21  N   UNL     1       7.880   6.913  18.044  0.00  0.00    +0.000 N 
ATOM     22  C   UNL     1       8.559   7.655  18.961  0.00  0.00    +0.000 A 
ATOM     23  N   UNL     1       8.496   8.926  18.637  0.00  0.00    +0.000 NA
ATOM     24  C   UNL     1       7.774   8.909  17.478  0.00  0.00    +0.000 A 
ATOM     25  N   UNL     1       7.387   7.700  17.063  0.00  0.00    +0.000 NA
ENDBRANCH  20  21
ENDBRANCH   6  20
TORSDOF 4
ENDMDL
