MODEL 1
REMARK VINA RESULT:      -7.0      0.000      0.000
REMARK  Name = 
REMARK  5 active torsions:
REMARK  status: ('A' for Active; 'I' for Inactive)
REMARK    1  A    between atoms: C_1  and  S_2
REMARK    2  A    between atoms: S_2  and  C_3
REMARK    3  A    between atoms: C_6  and  S_7
REMARK    4  A    between atoms: S_7  and  N_10
REMARK    5  A    between atoms: C_11  and  C_13
REMARK                            x       y       z     vdW  Elec       q    Type
REMARK                         _______ _______ _______ _____ _____    ______ ____
ROOT
ATOM      1  N   UNL     1       4.348   5.994  19.013  0.00  0.00    +0.000 N 
ATOM      2  C   UNL     1       3.024   6.127  18.594  0.00  0.00    +0.000 C 
ATOM      3  O   UNL     1       2.393   5.202  18.104  0.00  0.00    +0.000 OA
ATOM      4  H   UNL     1       4.912   6.786  19.309  0.00  0.00    +0.000 HD
ENDROOT
BRANCH   2   5
ATOM      5  C   UNL     1       2.364   7.449  18.783  0.00  0.00    +0.000 A 
ATOM      6  C   UNL     1       2.552   8.365  17.728  0.00  0.00    +0.000 A 
ATOM      7  C   UNL     1       1.993   9.644  17.772  0.00  0.00    +0.000 A 
ATOM      8  C   UNL     1       1.241  10.025  18.875  0.00  0.00    +0.000 A 
ATOM      9 CL   UNL     1       0.570  11.606  18.944  0.00  0.00    +0.000 Cl
ATOM     10  C   UNL     1       1.038   9.135  19.928  0.00  0.00    +0.000 A 
ATOM     11  C   UNL     1       1.595   7.847  19.886  0.00  0.00    +0.000 A 
ATOM     12 CL   UNL     1       1.322   6.853  21.274  0.00  0.00    +0.000 Cl
ENDBRANCH   2   5
BRANCH   1  13
ATOM     13  S   UNL     1       5.219   4.578  18.912  0.00  0.00    +0.000 S 
ATOM     14  O   UNL     1       4.325   3.467  19.159  0.00  0.00    +0.000 OA
ATOM     15  O   UNL     1       6.398   4.782  19.727  0.00  0.00    +0.000 OA
BRANCH  13  19
ATOM     16  C   UNL     1       6.583   4.477  14.555  0.00  0.00    +0.000 A 
ATOM     17  C   UNL     1       5.304   4.033  14.907  0.00  0.00    +0.000 A 
ATOM     18  C   UNL     1       4.884   4.070  16.239  0.00  0.00    +0.000 A 
ATOM     19  C   UNL     1       5.760   4.538  17.222  0.00  0.00    +0.000 A 
ATOM     20  C   UNL     1       7.045   4.971  16.886  0.00  0.00    +0.000 A 
ATOM     21  C   UNL     1       7.454   4.935  15.551  0.00  0.00    +0.000 A 
BRANCH  16  23
ATOM     22  C   UNL     1       5.855   3.250  12.208  0.00  0.00    +0.000 C 
ATOM     23  S   UNL     1       7.086   4.419  12.845  0.00  0.00    +0.000 S 
ENDBRANCH  16  23
ENDBRANCH  13  19
ENDBRANCH   1  13
TORSDOF 4
ENDMDL
MODEL 2
REMARK VINA RESULT:      -7.0      3.523      7.369
REMARK  Name = 
REMARK  5 active torsions:
REMARK  status: ('A' for Active; 'I' for Inactive)
REMARK    1  A    between atoms: C_1  and  S_2
REMARK    2  A    between atoms: S_2  and  C_3
REMARK    3  A    between atoms: C_6  and  S_7
REMARK    4  A    between atoms: S_7  and  N_10
REMARK    5  A    between atoms: C_11  and  C_13
REMARK                            x       y       z     vdW  Elec       q    Type
REMARK                         _______ _______ _______ _____ _____    ______ ____
ROOT
ATOM      1  N   UNL     1       3.765   5.304  18.041  0.00  0.00    +0.000 N 
ATOM      2  C   UNL     1       4.459   4.203  17.539  0.00  0.00    +0.000 C 
ATOM      3  O   UNL     1       4.310   3.074  17.982  0.00  0.00    +0.000 OA
ATOM      4  H   UNL     1       3.972   6.258  17.758  0.00  0.00    +0.000 HD
ENDROOT
BRANCH   2   5
ATOM      5  C   UNL     1       5.397   4.430  16.405  0.00  0.00    +0.000 A 
ATOM      6  C   UNL     1       4.843   4.233  15.123  0.00  0.00    +0.000 A 
ATOM      7  C   UNL     1       5.609   4.407  13.969  0.00  0.00    +0.000 A 
ATOM      8  C   UNL     1       6.943   4.777  14.081  0.00  0.00    +0.000 A 
ATOM      9 CL   UNL     1       7.896   4.971  12.664  0.00  0.00    +0.000 Cl
ATOM     10  C   UNL     1       7.512   4.982  15.337  0.00  0.00    +0.000 A 
ATOM     11  C   UNL     1       6.744   4.811  16.500  0.00  0.00    +0.000 A 
ATOM     12 CL   UNL     1       7.572   5.038  18.000  0.00  0.00    +0.000 Cl
ENDBRANCH   2   5
BRANCH   1  13
ATOM     13  S   UNL     1       2.651   5.219  19.276  0.00  0.00    +0.000 S 
ATOM     14  O   UNL     1       3.334   4.816  20.487  0.00  0.00    +0.000 OA
ATOM     15  O   UNL     1       1.542   4.449  18.755  0.00  0.00    +0.000 OA
BRANCH  13  19
ATOM     16  C   UNL     1       1.185   9.526  19.681  0.00  0.00    +0.000 A 
ATOM     17  C   UNL     1       1.713   9.068  18.468  0.00  0.00    +0.000 A 
ATOM     18  C   UNL     1       2.155   7.749  18.343  0.00  0.00    +0.000 A 
ATOM     19  C   UNL     1       2.084   6.893  19.445  0.00  0.00    +0.000 A 
ATOM     20  C   UNL     1       1.573   7.340  20.665  0.00  0.00    +0.000 A 
ATOM     21  C   UNL     1       1.128   8.660  20.780  0.00  0.00    +0.000 A 
BRANCH  16  23
ATOM     22  C   UNL     1      -0.022  11.191  21.501  0.00  0.00    +0.000 C 
ATOM     23  S   UNL     1       0.626  11.214  19.807  0.00  0.00    +0.000 S 
ENDBRANCH  16  23
ENDBRANCH  13  19
ENDBRANCH   1  13
TORSDOF 4
ENDMDL
MODEL 3
REMARK VINA RESULT:      -7.0      3.509      7.289
REMARK  Name = 
REMARK  5 active torsions:
REMARK  status: ('A' for Active; 'I' for Inactive)
REMARK    1  A    between atoms: C_1  and  S_2
REMARK    2  A    between atoms: S_2  and  C_3
REMARK    3  A    between atoms: C_6  and  S_7
REMARK    4  A    between atoms: S_7  and  N_10
REMARK    5  A    between atoms: C_11  and  C_13
REMARK                            x       y       z     vdW  Elec       q    Type
REMARK                         _______ _______ _______ _____ _____    ______ ____
ROOT
ATOM      1  N   UNL     1       3.788   5.262  18.041  0.00  0.00    +0.000 N 
ATOM      2  C   UNL     1       4.446   4.162  17.491  0.00  0.00    +0.000 C 
ATOM      3  O   UNL     1       4.260   3.020  17.884  0.00  0.00    +0.000 OA
ATOM      4  H   UNL     1       4.027   6.221  17.801  0.00  0.00    +0.000 HD
ENDROOT
BRANCH   2   5
ATOM      5  C   UNL     1       5.391   4.407  16.366  0.00  0.00    +0.000 A 
ATOM      6  C   UNL     1       4.861   4.178  15.080  0.00  0.00    +0.000 A 
ATOM      7  C   UNL     1       5.636   4.364  13.934  0.00  0.00    +0.000 A 
ATOM      8  C   UNL     1       6.955   4.780  14.059  0.00  0.00    +0.000 A 
ATOM      9 CL   UNL     1       7.920   4.990  12.652  0.00  0.00    +0.000 Cl
ATOM     10  C   UNL     1       7.500   5.018  15.319  0.00  0.00    +0.000 A 
ATOM     11  C   UNL     1       6.723   4.834  16.474  0.00  0.00    +0.000 A 
ATOM     12 CL   UNL     1       7.523   5.106  17.982  0.00  0.00    +0.000 Cl
ENDBRANCH   2   5
BRANCH   1  13
ATOM     13  S   UNL     1       2.673   5.160  19.273  0.00  0.00    +0.000 S 
ATOM     14  O   UNL     1       3.355   4.751  20.483  0.00  0.00    +0.000 OA
ATOM     15  O   UNL     1       1.569   4.388  18.743  0.00  0.00    +0.000 OA
BRANCH  13  19
ATOM     16  C   UNL     1       1.195   9.453  19.773  0.00  0.00    +0.000 A 
ATOM     17  C   UNL     1       1.128   8.552  20.842  0.00  0.00    +0.000 A 
ATOM     18  C   UNL     1       1.586   7.240  20.690  0.00  0.00    +0.000 A 
ATOM     19  C   UNL     1       2.096   6.829  19.456  0.00  0.00    +0.000 A 
ATOM     20  C   UNL     1       2.155   7.714  18.377  0.00  0.00    +0.000 A 
ATOM     21  C   UNL     1       1.699   9.025  18.539  0.00  0.00    +0.000 A 
BRANCH  16  23
ATOM     22  C   UNL     1      -1.042  10.960  19.256  0.00  0.00    +0.000 C 
ATOM     23  S   UNL     1       0.604  11.120  20.001  0.00  0.00    +0.000 S 
ENDBRANCH  16  23
ENDBRANCH  13  19
ENDBRANCH   1  13
TORSDOF 4
ENDMDL
MODEL 4
REMARK VINA RESULT:      -6.9      1.275      1.693
REMARK  Name = 
REMARK  5 active torsions:
REMARK  status: ('A' for Active; 'I' for Inactive)
REMARK    1  A    between atoms: C_1  and  S_2
REMARK    2  A    between atoms: S_2  and  C_3
REMARK    3  A    between atoms: C_6  and  S_7
REMARK    4  A    between atoms: S_7  and  N_10
REMARK    5  A    between atoms: C_11  and  C_13
REMARK                            x       y       z     vdW  Elec       q    Type
REMARK                         _______ _______ _______ _____ _____    ______ ____
ROOT
ATOM      1  N   UNL     1       4.230   5.893  19.118  0.00  0.00    +0.000 N 
ATOM      2  C   UNL     1       2.999   5.892  19.776  0.00  0.00    +0.000 C 
ATOM      3  O   UNL     1       2.557   4.903  20.341  0.00  0.00    +0.000 OA
ATOM      4  H   UNL     1       4.545   6.672  18.547  0.00  0.00    +0.000 HD
ENDROOT
BRANCH   2   5
ATOM      5  C   UNL     1       2.220   7.161  19.796  0.00  0.00    +0.000 A 
ATOM      6  C   UNL     1       1.491   7.395  20.980  0.00  0.00    +0.000 A 
ATOM      7  C   UNL     1       0.712   8.543  21.136  0.00  0.00    +0.000 A 
ATOM      8  C   UNL     1       0.651   9.474  20.107  0.00  0.00    +0.000 A 
ATOM      9 CL   UNL     1      -0.323  10.879  20.285  0.00  0.00    +0.000 Cl
ATOM     10  C   UNL     1       1.367   9.267  18.929  0.00  0.00    +0.000 A 
ATOM     11  C   UNL     1       2.153   8.115  18.770  0.00  0.00    +0.000 A 
ATOM     12 CL   UNL     1       2.950   7.941  17.246  0.00  0.00    +0.000 Cl
ENDBRANCH   2   5
BRANCH   1  13
ATOM     13  S   UNL     1       5.242   4.574  19.035  0.00  0.00    +0.000 S 
ATOM     14  O   UNL     1       4.471   3.380  19.314  0.00  0.00    +0.000 OA
ATOM     15  O   UNL     1       6.401   4.915  19.833  0.00  0.00    +0.000 OA
BRANCH  13  19
ATOM     16  C   UNL     1       6.571   4.535  14.666  0.00  0.00    +0.000 A 
ATOM     17  C   UNL     1       5.237   4.277  15.003  0.00  0.00    +0.000 A 
ATOM     18  C   UNL     1       4.830   4.295  16.339  0.00  0.00    +0.000 A 
ATOM     19  C   UNL     1       5.770   4.555  17.340  0.00  0.00    +0.000 A 
ATOM     20  C   UNL     1       7.106   4.800  17.019  0.00  0.00    +0.000 A 
ATOM     21  C   UNL     1       7.504   4.785  15.680  0.00  0.00    +0.000 A 
BRANCH  16  23
ATOM     22  C   UNL     1       5.865   3.295  12.319  0.00  0.00    +0.000 C 
ATOM     23  S   UNL     1       7.057   4.507  12.951  0.00  0.00    +0.000 S 
ENDBRANCH  16  23
ENDBRANCH  13  19
ENDBRANCH   1  13
TORSDOF 4
ENDMDL
MODEL 5
REMARK VINA RESULT:      -6.9      1.272      1.979
REMARK  Name = 
REMARK  5 active torsions:
REMARK  status: ('A' for Active; 'I' for Inactive)
REMARK    1  A    between atoms: C_1  and  S_2
REMARK    2  A    between atoms: S_2  and  C_3
REMARK    3  A    between atoms: C_6  and  S_7
REMARK    4  A    between atoms: S_7  and  N_10
REMARK    5  A    between atoms: C_11  and  C_13
REMARK                            x       y       z     vdW  Elec       q    Type
REMARK                         _______ _______ _______ _____ _____    ______ ____
ROOT
ATOM      1  N   UNL     1       4.306   5.900  19.201  0.00  0.00    +0.000 N 
ATOM      2  C   UNL     1       3.003   5.841  19.694  0.00  0.00    +0.000 C 
ATOM      3  O   UNL     1       2.489   4.800  20.075  0.00  0.00    +0.000 OA
ATOM      4  H   UNL     1       4.694   6.737  18.773  0.00  0.00    +0.000 HD
ENDROOT
BRANCH   2   5
ATOM      5  C   UNL     1       2.231   7.113  19.773  0.00  0.00    +0.000 A 
ATOM      6  C   UNL     1       1.518   7.306  20.974  0.00  0.00    +0.000 A 
ATOM      7  C   UNL     1       0.748   8.451  21.183  0.00  0.00    +0.000 A 
ATOM      8  C   UNL     1       0.678   9.420  20.191  0.00  0.00    +0.000 A 
ATOM      9 CL   UNL     1      -0.286  10.822  20.435  0.00  0.00    +0.000 Cl
ATOM     10  C   UNL     1       1.377   9.255  18.997  0.00  0.00    +0.000 A 
ATOM     11  C   UNL     1       2.155   8.105  18.784  0.00  0.00    +0.000 A 
ATOM     12 CL   UNL     1       2.931   7.985  17.244  0.00  0.00    +0.000 Cl
ENDBRANCH   2   5
BRANCH   1  13
ATOM     13  S   UNL     1       5.317   4.582  19.084  0.00  0.00    +0.000 S 
ATOM     14  O   UNL     1       4.559   3.388  19.392  0.00  0.00    +0.000 OA
ATOM     15  O   UNL     1       6.504   4.927  19.839  0.00  0.00    +0.000 OA
BRANCH  13  19
ATOM     16  C   UNL     1       6.544   4.520  14.685  0.00  0.00    +0.000 A 
ATOM     17  C   UNL     1       7.494   4.769  15.682  0.00  0.00    +0.000 A 
ATOM     18  C   UNL     1       7.120   4.781  17.028  0.00  0.00    +0.000 A 
ATOM     19  C   UNL     1       5.783   4.562  17.371  0.00  0.00    +0.000 A 
ATOM     20  C   UNL     1       4.822   4.326  16.385  0.00  0.00    +0.000 A 
ATOM     21  C   UNL     1       5.206   4.310  15.042  0.00  0.00    +0.000 A 
BRANCH  16  23
ATOM     22  C   UNL     1       5.886   3.286  12.321  0.00  0.00    +0.000 C 
ATOM     23  S   UNL     1       7.055   4.508  12.977  0.00  0.00    +0.000 S 
ENDBRANCH  16  23
ENDBRANCH  13  19
ENDBRANCH   1  13
TORSDOF 4
ENDMDL
MODEL 6
REMARK VINA RESULT:      -6.8      0.451      1.118
REMARK  Name = 
REMARK  5 active torsions:
REMARK  status: ('A' for Active; 'I' for Inactive)
REMARK    1  A    between atoms: C_1  and  S_2
REMARK    2  A    between atoms: S_2  and  C_3
REMARK    3  A    between atoms: C_6  and  S_7
REMARK    4  A    between atoms: S_7  and  N_10
REMARK    5  A    between atoms: C_11  and  C_13
REMARK                            x       y       z     vdW  Elec       q    Type
REMARK                         _______ _______ _______ _____ _____    ______ ____
ROOT
ATOM      1  N   UNL     1       4.719   6.076  18.804  0.00  0.00    +0.000 N 
ATOM      2  C   UNL     1       3.333   6.031  18.650  0.00  0.00    +0.000 C 
ATOM      3  O   UNL     1       2.729   4.993  18.423  0.00  0.00    +0.000 OA
ATOM      4  H   UNL     1       5.235   6.949  18.872  0.00  0.00    +0.000 HD
ENDROOT
BRANCH   2   5
ATOM      5  C   UNL     1       2.576   7.306  18.795  0.00  0.00    +0.000 A 
ATOM      6  C   UNL     1       2.730   8.216  17.729  0.00  0.00    +0.000 A 
ATOM      7  C   UNL     1       2.081   9.452  17.733  0.00  0.00    +0.000 A 
ATOM      8  C   UNL     1       1.271   9.797  18.806  0.00  0.00    +0.000 A 
ATOM      9 CL   UNL     1       0.487  11.327  18.826  0.00  0.00    +0.000 Cl
ATOM     10  C   UNL     1       1.099   8.912  19.869  0.00  0.00    +0.000 A 
ATOM     11  C   UNL     1       1.748   7.667  19.868  0.00  0.00    +0.000 A 
ATOM     12 CL   UNL     1       1.504   6.679  21.265  0.00  0.00    +0.000 Cl
ENDBRANCH   2   5
BRANCH   1  13
ATOM     13  S   UNL     1       5.709   4.741  18.714  0.00  0.00    +0.000 S 
ATOM     14  O   UNL     1       4.992   3.597  19.237  0.00  0.00    +0.000 OA
ATOM     15  O   UNL     1       6.976   5.150  19.283  0.00  0.00    +0.000 OA
BRANCH  13  19
ATOM     16  C   UNL     1       6.411   4.193  14.234  0.00  0.00    +0.000 A 
ATOM     17  C   UNL     1       7.360   4.851  15.025  0.00  0.00    +0.000 A 
ATOM     18  C   UNL     1       7.148   5.012  16.396  0.00  0.00    +0.000 A 
ATOM     19  C   UNL     1       5.970   4.528  16.971  0.00  0.00    +0.000 A 
ATOM     20  C   UNL     1       5.008   3.882  16.191  0.00  0.00    +0.000 A 
ATOM     21  C   UNL     1       5.231   3.721  14.821  0.00  0.00    +0.000 A 
BRANCH  16  23
ATOM     22  C   UNL     1       5.166   3.191  12.001  0.00  0.00    +0.000 C 
ATOM     23  S   UNL     1       6.714   4.001  12.488  0.00  0.00    +0.000 S 
ENDBRANCH  16  23
ENDBRANCH  13  19
ENDBRANCH   1  13
TORSDOF 4
ENDMDL
MODEL 7
REMARK VINA RESULT:      -6.6      3.502      7.103
REMARK  Name = 
REMARK  5 active torsions:
REMARK  status: ('A' for Active; 'I' for Inactive)
REMARK    1  A    between atoms: C_1  and  S_2
REMARK    2  A    between atoms: S_2  and  C_3
REMARK    3  A    between atoms: C_6  and  S_7
REMARK    4  A    between atoms: S_7  and  N_10
REMARK    5  A    between atoms: C_11  and  C_13
REMARK                            x       y       z     vdW  Elec       q    Type
REMARK                         _______ _______ _______ _____ _____    ______ ____
ROOT
ATOM      1  N   UNL     1       3.652   3.806  17.312  0.00  0.00    +0.000 N 
ATOM      2  C   UNL     1       5.007   4.105  17.451  0.00  0.00    +0.000 C 
ATOM      3  O   UNL     1       5.574   4.099  18.533  0.00  0.00    +0.000 OA
ATOM      4  H   UNL     1       3.150   3.926  16.436  0.00  0.00    +0.000 HD
ENDROOT
BRANCH   2   5
ATOM      5  C   UNL     1       5.780   4.420  16.217  0.00  0.00    +0.000 A 
ATOM      6  C   UNL     1       5.385   3.707  15.067  0.00  0.00    +0.000 A 
ATOM      7  C   UNL     1       6.025   3.898  13.841  0.00  0.00    +0.000 A 
ATOM      8  C   UNL     1       7.073   4.805  13.750  0.00  0.00    +0.000 A 
ATOM      9 CL   UNL     1       7.878   5.028  12.247  0.00  0.00    +0.000 Cl
ATOM     10  C   UNL     1       7.478   5.525  14.871  0.00  0.00    +0.000 A 
ATOM     11  C   UNL     1       6.835   5.337  16.105  0.00  0.00    +0.000 A 
ATOM     12 CL   UNL     1       7.462   6.244  17.437  0.00  0.00    +0.000 Cl
ENDBRANCH   2   5
BRANCH   1  13
ATOM     13  S   UNL     1       2.654   3.395  18.579  0.00  0.00    +0.000 S 
ATOM     14  O   UNL     1       3.412   2.605  19.527  0.00  0.00    +0.000 OA
ATOM     15  O   UNL     1       1.444   2.876  17.977  0.00  0.00    +0.000 OA
BRANCH  13  19
ATOM     16  C   UNL     1       1.583   7.403  20.488  0.00  0.00    +0.000 A 
ATOM     17  C   UNL     1       1.204   6.203  21.101  0.00  0.00    +0.000 A 
ATOM     18  C   UNL     1       1.538   4.977  20.520  0.00  0.00    +0.000 A 
ATOM     19  C   UNL     1       2.237   4.958  19.311  0.00  0.00    +0.000 A 
ATOM     20  C   UNL     1       2.609   6.148  18.681  0.00  0.00    +0.000 A 
ATOM     21  C   UNL     1       2.276   7.370  19.272  0.00  0.00    +0.000 A 
BRANCH  16  23
ATOM     22  C   UNL     1       0.807   9.939  19.774  0.00  0.00    +0.000 C 
ATOM     23  S   UNL     1       1.144   8.951  21.257  0.00  0.00    +0.000 S 
ENDBRANCH  16  23
ENDBRANCH  13  19
ENDBRANCH   1  13
TORSDOF 4
ENDMDL
MODEL 8
REMARK VINA RESULT:      -6.6      3.455      7.172
REMARK  Name = 
REMARK  5 active torsions:
REMARK  status: ('A' for Active; 'I' for Inactive)
REMARK    1  A    between atoms: C_1  and  S_2
REMARK    2  A    between atoms: S_2  and  C_3
REMARK    3  A    between atoms: C_6  and  S_7
REMARK    4  A    between atoms: S_7  and  N_10
REMARK    5  A    between atoms: C_11  and  C_13
REMARK                            x       y       z     vdW  Elec       q    Type
REMARK                         _______ _______ _______ _____ _____    ______ ____
ROOT
ATOM      1  N   UNL     1       3.619   4.750  17.834  0.00  0.00    +0.000 N 
ATOM      2  C   UNL     1       4.992   4.502  17.837  0.00  0.00    +0.000 C 
ATOM      3  O   UNL     1       5.592   4.134  18.836  0.00  0.00    +0.000 OA
ATOM      4  H   UNL     1       3.140   5.170  17.042  0.00  0.00    +0.000 HD
ENDROOT
BRANCH   2   5
ATOM      5  C   UNL     1       5.733   4.677  16.557  0.00  0.00    +0.000 A 
ATOM      6  C   UNL     1       5.246   3.915  15.476  0.00  0.00    +0.000 A 
ATOM      7  C   UNL     1       5.847   3.977  14.217  0.00  0.00    +0.000 A 
ATOM      8  C   UNL     1       6.947   4.802  14.023  0.00  0.00    +0.000 A 
ATOM      9 CL   UNL     1       7.704   4.865  12.481  0.00  0.00    +0.000 Cl
ATOM     10  C   UNL     1       7.444   5.568  15.075  0.00  0.00    +0.000 A 
ATOM     11  C   UNL     1       6.841   5.510  16.342  0.00  0.00    +0.000 A 
ATOM     12 CL   UNL     1       7.580   6.462  17.582  0.00  0.00    +0.000 Cl
ENDBRANCH   2   5
BRANCH   1  13
ATOM     13  S   UNL     1       2.637   4.564  19.165  0.00  0.00    +0.000 S 
ATOM     14  O   UNL     1       3.430   4.037  20.256  0.00  0.00    +0.000 OA
ATOM     15  O   UNL     1       1.460   3.865  18.693  0.00  0.00    +0.000 OA
BRANCH  13  19
ATOM     16  C   UNL     1       1.334   8.836  20.123  0.00  0.00    +0.000 A 
ATOM     17  C   UNL     1       1.925   8.535  18.891  0.00  0.00    +0.000 A 
ATOM     18  C   UNL     1       2.317   7.227  18.596  0.00  0.00    +0.000 A 
ATOM     19  C   UNL     1       2.132   6.223  19.549  0.00  0.00    +0.000 A 
ATOM     20  C   UNL     1       1.557   6.512  20.789  0.00  0.00    +0.000 A 
ATOM     21  C   UNL     1       1.163   7.822  21.074  0.00  0.00    +0.000 A 
BRANCH  16  23
ATOM     22  C   UNL     1       0.748  11.155  18.773  0.00  0.00    +0.000 C 
ATOM     23  S   UNL     1       0.842  10.515  20.467  0.00  0.00    +0.000 S 
ENDBRANCH  16  23
ENDBRANCH  13  19
ENDBRANCH   1  13
TORSDOF 4
ENDMDL
MODEL 9
REMARK VINA RESULT:      -6.6      1.521      1.885
REMARK  Name = 
REMARK  5 active torsions:
REMARK  status: ('A' for Active; 'I' for Inactive)
REMARK    1  A    between atoms: C_1  and  S_2
REMARK    2  A    between atoms: S_2  and  C_3
REMARK    3  A    between atoms: C_6  and  S_7
REMARK    4  A    between atoms: S_7  and  N_10
REMARK    5  A    between atoms: C_11  and  C_13
REMARK                            x       y       z     vdW  Elec       q    Type
REMARK                         _______ _______ _______ _____ _____    ______ ____
ROOT
ATOM      1  N   UNL     1       2.676   6.615  18.702  0.00  0.00    +0.000 N 
ATOM      2  C   UNL     1       1.950   7.208  19.735  0.00  0.00    +0.000 C 
ATOM      3  O   UNL     1       1.646   6.607  20.755  0.00  0.00    +0.000 OA
ATOM      4  H   UNL     1       2.827   7.070  17.806  0.00  0.00    +0.000 HD
ENDROOT
BRANCH   2   5
ATOM      5  C   UNL     1       1.559   8.636  19.580  0.00  0.00    +0.000 A 
ATOM      6  C   UNL     1       1.911   9.221  18.346  0.00  0.00    +0.000 A 
ATOM      7  C   UNL     1       1.610  10.555  18.065  0.00  0.00    +0.000 A 
ATOM      8  C   UNL     1       0.955  11.324  19.017  0.00  0.00    +0.000 A 
ATOM      9 CL   UNL     1       0.601  12.974  18.684  0.00  0.00    +0.000 Cl
ATOM     10  C   UNL     1       0.592  10.768  20.242  0.00  0.00    +0.000 A 
ATOM     11  C   UNL     1       0.890   9.426  20.527  0.00  0.00    +0.000 A 
ATOM     12 CL   UNL     1       0.442   8.864  22.099  0.00  0.00    +0.000 Cl
ENDBRANCH   2   5
BRANCH   1  13
ATOM     13  S   UNL     1       3.225   5.043  18.733  0.00  0.00    +0.000 S 
ATOM     14  O   UNL     1       2.097   4.155  18.545  0.00  0.00    +0.000 OA
ATOM     15  O   UNL     1       4.066   4.941  19.907  0.00  0.00    +0.000 OA
BRANCH  13  19
ATOM     16  C   UNL     1       5.992   4.820  15.106  0.00  0.00    +0.000 A 
ATOM     17  C   UNL     1       5.510   6.055  15.554  0.00  0.00    +0.000 A 
ATOM     18  C   UNL     1       4.669   6.123  16.668  0.00  0.00    +0.000 A 
ATOM     19  C   UNL     1       4.296   4.945  17.321  0.00  0.00    +0.000 A 
ATOM     20  C   UNL     1       4.758   3.705  16.875  0.00  0.00    +0.000 A 
ATOM     21  C   UNL     1       5.603   3.646  15.763  0.00  0.00    +0.000 A 
BRANCH  16  23
ATOM     22  C   UNL     1       6.196   3.519  12.696  0.00  0.00    +0.000 C 
ATOM     23  S   UNL     1       7.065   4.767  13.683  0.00  0.00    +0.000 S 
ENDBRANCH  16  23
ENDBRANCH  13  19
ENDBRANCH   1  13
TORSDOF 4
ENDMDL
