MODEL 1
REMARK VINA RESULT:      -7.9      0.000      0.000
REMARK  Name = 
REMARK  5 active torsions:
REMARK  status: ('A' for Active; 'I' for Inactive)
REMARK    1  A    between atoms: C_1  and  O_2
REMARK    2  A    between atoms: O_2  and  C_3
REMARK    3  A    between atoms: N_8  and  C_9
REMARK    4  A    between atoms: C_26  and  O_27
REMARK    5  A    between atoms: O_27  and  C_28
REMARK                            x       y       z     vdW  Elec       q    Type
REMARK                         _______ _______ _______ _____ _____    ______ ____
ROOT
ATOM      1  C   UNL     1       0.948   9.230  20.069  0.00  0.00    +0.000 A 
ATOM      2  C   UNL     1       1.216   7.884  20.225  0.00  0.00    +0.000 A 
ATOM      3  C   UNL     1       2.130   7.220  19.393  0.00  0.00    +0.000 A 
ATOM      4  C   UNL     1       2.432   5.837  19.743  0.00  0.00    +0.000 A 
ATOM      5  O   UNL     1       2.009   5.500  20.841  0.00  0.00    +0.000 OA
ATOM      6  N   UNL     1       3.136   5.028  18.849  0.00  0.00    +0.000 N 
ATOM      7  C   UNL     1       3.818   5.621  17.703  0.00  0.00    +0.000 A 
ATOM      8  C   UNL     1       4.697   4.931  16.798  0.00  0.00    +0.000 A 
ATOM      9  C   UNL     1       5.248   3.617  16.597  0.00  0.00    +0.000 A 
ATOM     10  C   UNL     1       6.061   3.619  15.482  0.00  0.00    +0.000 A 
ATOM     11  N   UNL     1       6.061   4.886  14.992  0.00  0.00    +0.000 N 
ATOM     12  C   UNL     1       5.264   5.680  15.763  0.00  0.00    +0.000 A 
ATOM     13  N   UNL     1       5.112   6.981  15.497  0.00  0.00    +0.000 NA
ATOM     14  C   UNL     1       4.296   7.598  16.369  0.00  0.00    +0.000 A 
ATOM     15  C   UNL     1       3.630   7.025  17.458  0.00  0.00    +0.000 A 
ATOM     16  C   UNL     1       2.741   7.834  18.317  0.00  0.00    +0.000 A 
ATOM     17  C   UNL     1       2.441   9.205  18.145  0.00  0.00    +0.000 A 
ATOM     18  C   UNL     1       1.569   9.906  19.012  0.00  0.00    +0.000 A 
ATOM     19  H   UNL     1       6.568   5.224  14.186  0.00  0.00    +0.000 HD
ENDROOT
BRANCH   6  20
ATOM     20  C   UNL     1       3.221   3.584  19.179  0.00  0.00    +0.000 C 
ATOM     21  C   UNL     1       2.035   2.727  18.684  0.00  0.00    +0.000 C 
ATOM     22  C   UNL     1       0.845   2.660  19.633  0.00  0.00    +0.000 C 
ATOM     23  C   UNL     1       1.239   2.505  21.107  0.00  0.00    +0.000 C 
ATOM     24  N   UNL     1       2.382   3.292  21.561  0.00  0.00    +0.000 NA
ATOM     25  C   UNL     1       3.529   3.267  20.663  0.00  0.00    +0.000 C 
ATOM     26  H   UNL     1       2.638   3.059  22.515  0.00  0.00    +0.000 HD
ENDBRANCH   6  20
BRANCH   1  28
ATOM     27  C   UNL     1       0.338   9.770  22.297  0.00  0.00    +0.000 C 
ATOM     28  O   UNL     1       0.090   9.911  20.895  0.00  0.00    +0.000 OA
ENDBRANCH   1  28
BRANCH  18  29
ATOM     29  O   UNL     1       1.277  11.242  18.903  0.00  0.00    +0.000 OA
ATOM     30  C   UNL     1       2.255  12.084  18.311  0.00  0.00    +0.000 C 
ENDBRANCH  18  29
TORSDOF 3
ENDMDL
MODEL 2
REMARK VINA RESULT:      -7.4      1.679      4.644
REMARK  Name = 
REMARK  5 active torsions:
REMARK  status: ('A' for Active; 'I' for Inactive)
REMARK    1  A    between atoms: C_1  and  O_2
REMARK    2  A    between atoms: O_2  and  C_3
REMARK    3  A    between atoms: N_8  and  C_9
REMARK    4  A    between atoms: C_26  and  O_27
REMARK    5  A    between atoms: O_27  and  C_28
REMARK                            x       y       z     vdW  Elec       q    Type
REMARK                         _______ _______ _______ _____ _____    ______ ____
ROOT
ATOM      1  C   UNL     1       1.180  10.031  18.939  0.00  0.00    +0.000 A 
ATOM      2  C   UNL     1       2.149   9.303  18.276  0.00  0.00    +0.000 A 
ATOM      3  C   UNL     1       2.434   7.976  18.630  0.00  0.00    +0.000 A 
ATOM      4  C   UNL     1       3.376   7.268  17.769  0.00  0.00    +0.000 A 
ATOM      5  O   UNL     1       3.634   7.858  16.728  0.00  0.00    +0.000 OA
ATOM      6  N   UNL     1       3.900   6.038  18.170  0.00  0.00    +0.000 N 
ATOM      7  C   UNL     1       3.308   5.318  19.293  0.00  0.00    +0.000 A 
ATOM      8  C   UNL     1       3.649   3.986  19.711  0.00  0.00    +0.000 A 
ATOM      9  C   UNL     1       4.527   2.911  19.331  0.00  0.00    +0.000 A 
ATOM     10  C   UNL     1       4.361   1.847  20.195  0.00  0.00    +0.000 A 
ATOM     11  N   UNL     1       3.398   2.203  21.085  0.00  0.00    +0.000 N 
ATOM     12  C   UNL     1       2.958   3.465  20.809  0.00  0.00    +0.000 A 
ATOM     13  N   UNL     1       1.994   4.039  21.535  0.00  0.00    +0.000 NA
ATOM     14  C   UNL     1       1.691   5.278  21.110  0.00  0.00    +0.000 A 
ATOM     15  C   UNL     1       2.270   5.973  20.042  0.00  0.00    +0.000 A 
ATOM     16  C   UNL     1       1.844   7.348  19.710  0.00  0.00    +0.000 A 
ATOM     17  C   UNL     1       0.874   8.108  20.402  0.00  0.00    +0.000 A 
ATOM     18  C   UNL     1       0.529   9.427  20.021  0.00  0.00    +0.000 A 
ATOM     19  H   UNL     1       3.035   1.642  21.842  0.00  0.00    +0.000 HD
ENDROOT
BRANCH   6  20
ATOM     20  C   UNL     1       5.005   5.483  17.349  0.00  0.00    +0.000 C 
ATOM     21  C   UNL     1       6.203   4.928  18.150  0.00  0.00    +0.000 C 
ATOM     22  C   UNL     1       7.269   5.954  18.516  0.00  0.00    +0.000 C 
ATOM     23  C   UNL     1       7.593   6.936  17.383  0.00  0.00    +0.000 C 
ATOM     24  N   UNL     1       6.461   7.431  16.607  0.00  0.00    +0.000 NA
ATOM     25  C   UNL     1       5.504   6.407  16.210  0.00  0.00    +0.000 C 
ATOM     26  H   UNL     1       6.767   7.994  15.819  0.00  0.00    +0.000 HD
ENDBRANCH   6  20
BRANCH   1  28
ATOM     27  C   UNL     1       1.827  12.314  18.910  0.00  0.00    +0.000 C 
ATOM     28  O   UNL     1       0.854  11.316  18.586  0.00  0.00    +0.000 OA
ENDBRANCH   1  28
BRANCH  18  29
ATOM     29  O   UNL     1      -0.429  10.188  20.643  0.00  0.00    +0.000 OA
ATOM     30  C   UNL     1      -0.253  10.468  22.024  0.00  0.00    +0.000 C 
ENDBRANCH  18  29
TORSDOF 3
ENDMDL
MODEL 3
REMARK VINA RESULT:      -7.3      1.638      4.526
REMARK  Name = 
REMARK  5 active torsions:
REMARK  status: ('A' for Active; 'I' for Inactive)
REMARK    1  A    between atoms: C_1  and  O_2
REMARK    2  A    between atoms: O_2  and  C_3
REMARK    3  A    between atoms: N_8  and  C_9
REMARK    4  A    between atoms: C_26  and  O_27
REMARK    5  A    between atoms: O_27  and  C_28
REMARK                            x       y       z     vdW  Elec       q    Type
REMARK                         _______ _______ _______ _____ _____    ______ ____
ROOT
ATOM      1  C   UNL     1       1.201   9.635  20.148  0.00  0.00    +0.000 A 
ATOM      2  C   UNL     1       2.071   9.084  19.227  0.00  0.00    +0.000 A 
ATOM      3  C   UNL     1       2.221   7.695  19.104  0.00  0.00    +0.000 A 
ATOM      4  C   UNL     1       3.062   7.233  18.005  0.00  0.00    +0.000 A 
ATOM      5  O   UNL     1       3.359   8.111  17.206  0.00  0.00    +0.000 OA
ATOM      6  N   UNL     1       3.460   5.896  17.945  0.00  0.00    +0.000 N 
ATOM      7  C   UNL     1       2.820   4.900  18.798  0.00  0.00    +0.000 A 
ATOM      8  C   UNL     1       3.025   3.479  18.730  0.00  0.00    +0.000 A 
ATOM      9  C   UNL     1       3.774   2.517  17.966  0.00  0.00    +0.000 A 
ATOM     10  C   UNL     1       3.514   1.245  18.436  0.00  0.00    +0.000 A 
ATOM     11  N   UNL     1       2.615   1.370  19.447  0.00  0.00    +0.000 N 
ATOM     12  C   UNL     1       2.307   2.687  19.631  0.00  0.00    +0.000 A 
ATOM     13  N   UNL     1       1.426   3.071  20.559  0.00  0.00    +0.000 NA
ATOM     14  C   UNL     1       1.248   4.403  20.587  0.00  0.00    +0.000 A 
ATOM     15  C   UNL     1       1.875   5.359  19.779  0.00  0.00    +0.000 A 
ATOM     16  C   UNL     1       1.591   6.799  19.946  0.00  0.00    +0.000 A 
ATOM     17  C   UNL     1       0.723   7.370  20.905  0.00  0.00    +0.000 A 
ATOM     18  C   UNL     1       0.513   8.766  21.004  0.00  0.00    +0.000 A 
ATOM     19  H   UNL     1       2.211   0.624  19.994  0.00  0.00    +0.000 HD
ENDROOT
BRANCH   6  20
ATOM     20  C   UNL     1       4.481   5.549  16.926  0.00  0.00    +0.000 C 
ATOM     21  C   UNL     1       5.619   4.631  17.423  0.00  0.00    +0.000 C 
ATOM     22  C   UNL     1       6.802   5.352  18.058  0.00  0.00    +0.000 C 
ATOM     23  C   UNL     1       7.219   6.626  17.312  0.00  0.00    +0.000 C 
ATOM     24  N   UNL     1       6.139   7.472  16.815  0.00  0.00    +0.000 NA
ATOM     25  C   UNL     1       5.065   6.752  16.145  0.00  0.00    +0.000 C 
ATOM     26  H   UNL     1       6.496   8.238  16.251  0.00  0.00    +0.000 HD
ENDBRANCH   6  20
BRANCH   1  28
ATOM     27  C   UNL     1       0.986  11.716  19.028  0.00  0.00    +0.000 C 
ATOM     28  O   UNL     1       1.007  10.988  20.260  0.00  0.00    +0.000 OA
ENDBRANCH   1  28
BRANCH  18  29
ATOM     29  O   UNL     1      -0.344   9.360  21.896  0.00  0.00    +0.000 OA
ATOM     30  C   UNL     1       0.079   9.460  23.248  0.00  0.00    +0.000 C 
ENDBRANCH  18  29
TORSDOF 3
ENDMDL
MODEL 4
REMARK VINA RESULT:      -6.9      7.531     10.088
REMARK  Name = 
REMARK  5 active torsions:
REMARK  status: ('A' for Active; 'I' for Inactive)
REMARK    1  A    between atoms: C_1  and  O_2
REMARK    2  A    between atoms: O_2  and  C_3
REMARK    3  A    between atoms: N_8  and  C_9
REMARK    4  A    between atoms: C_26  and  O_27
REMARK    5  A    between atoms: O_27  and  C_28
REMARK                            x       y       z     vdW  Elec       q    Type
REMARK                         _______ _______ _______ _____ _____    ______ ____
ROOT
ATOM      1  C   UNL     1       1.213  13.100  20.029  0.00  0.00    +0.000 A 
ATOM      2  C   UNL     1       0.271  12.468  19.240  0.00  0.00    +0.000 A 
ATOM      3  C   UNL     1      -1.095  12.520  19.551  0.00  0.00    +0.000 A 
ATOM      4  C   UNL     1      -2.002  11.934  18.569  0.00  0.00    +0.000 A 
ATOM      5  O   UNL     1      -1.467  11.661  17.503  0.00  0.00    +0.000 OA
ATOM      6  N   UNL     1      -3.343  11.726  18.895  0.00  0.00    +0.000 N 
ATOM      7  C   UNL     1      -3.914  12.342  20.088  0.00  0.00    +0.000 A 
ATOM      8  C   UNL     1      -5.304  12.334  20.456  0.00  0.00    +0.000 A 
ATOM      9  C   UNL     1      -6.564  11.848  19.959  0.00  0.00    +0.000 A 
ATOM     10  C   UNL     1      -7.573  12.189  20.837  0.00  0.00    +0.000 A 
ATOM     11  N   UNL     1      -6.999  12.889  21.851  0.00  0.00    +0.000 N 
ATOM     12  C   UNL     1      -5.655  12.992  21.638  0.00  0.00    +0.000 A 
ATOM     13  N   UNL     1      -4.865  13.655  22.488  0.00  0.00    +0.000 NA
ATOM     14  C   UNL     1      -3.576  13.654  22.109  0.00  0.00    +0.000 A 
ATOM     15  C   UNL     1      -3.028  13.048  20.972  0.00  0.00    +0.000 A 
ATOM     16  C   UNL     1      -1.576  13.115  20.701  0.00  0.00    +0.000 A 
ATOM     17  C   UNL     1      -0.606  13.735  21.520  0.00  0.00    +0.000 A 
ATOM     18  C   UNL     1       0.771  13.746  21.190  0.00  0.00    +0.000 A 
ATOM     19  H   UNL     1      -7.467  13.292  22.650  0.00  0.00    +0.000 HD
ENDROOT
BRANCH   6  20
ATOM     20  C   UNL     1      -4.150  10.937  17.931  0.00  0.00    +0.000 C 
ATOM     21  C   UNL     1      -3.595   9.533  17.606  0.00  0.00    +0.000 C 
ATOM     22  C   UNL     1      -2.577   9.485  16.473  0.00  0.00    +0.000 C 
ATOM     23  C   UNL     1      -2.941  10.375  15.279  0.00  0.00    +0.000 C 
ATOM     24  N   UNL     1      -3.497  11.688  15.591  0.00  0.00    +0.000 NA
ATOM     25  C   UNL     1      -4.524  11.681  16.625  0.00  0.00    +0.000 C 
ATOM     26  H   UNL     1      -3.802  12.172  14.752  0.00  0.00    +0.000 HD
ENDBRANCH   6  20
BRANCH   1  28
ATOM     27  C   UNL     1       2.880  13.465  18.381  0.00  0.00    +0.000 C 
ATOM     28  O   UNL     1       2.551  13.099  19.724  0.00  0.00    +0.000 OA
ENDBRANCH   1  28
BRANCH  18  29
ATOM     29  O   UNL     1       1.743  14.364  21.937  0.00  0.00    +0.000 OA
ATOM     30  C   UNL     1       1.874  15.773  21.809  0.00  0.00    +0.000 C 
ENDBRANCH  18  29
TORSDOF 3
ENDMDL
MODEL 5
REMARK VINA RESULT:      -6.8      6.344      9.340
REMARK  Name = 
REMARK  5 active torsions:
REMARK  status: ('A' for Active; 'I' for Inactive)
REMARK    1  A    between atoms: C_1  and  O_2
REMARK    2  A    between atoms: O_2  and  C_3
REMARK    3  A    between atoms: N_8  and  C_9
REMARK    4  A    between atoms: C_26  and  O_27
REMARK    5  A    between atoms: O_27  and  C_28
REMARK                            x       y       z     vdW  Elec       q    Type
REMARK                         _______ _______ _______ _____ _____    ______ ____
ROOT
ATOM      1  C   UNL     1      -4.313  14.155  23.397  0.00  0.00    +0.000 A 
ATOM      2  C   UNL     1      -3.190  13.623  22.794  0.00  0.00    +0.000 A 
ATOM      3  C   UNL     1      -3.233  13.120  21.485  0.00  0.00    +0.000 A 
ATOM      4  C   UNL     1      -1.956  12.713  20.910  0.00  0.00    +0.000 A 
ATOM      5  O   UNL     1      -0.984  13.058  21.568  0.00  0.00    +0.000 OA
ATOM      6  N   UNL     1      -1.927  11.987  19.717  0.00  0.00    +0.000 N 
ATOM      7  C   UNL     1      -3.127  11.878  18.894  0.00  0.00    +0.000 A 
ATOM      8  C   UNL     1      -3.197  11.295  17.582  0.00  0.00    +0.000 A 
ATOM      9  C   UNL     1      -2.333  10.675  16.614  0.00  0.00    +0.000 A 
ATOM     10  C   UNL     1      -3.065  10.313  15.501  0.00  0.00    +0.000 A 
ATOM     11  N   UNL     1      -4.347  10.704  15.723  0.00  0.00    +0.000 N 
ATOM     12  C   UNL     1      -4.444  11.295  16.949  0.00  0.00    +0.000 A 
ATOM     13  N   UNL     1      -5.604  11.784  17.396  0.00  0.00    +0.000 NA
ATOM     14  C   UNL     1      -5.502  12.332  18.619  0.00  0.00    +0.000 A 
ATOM     15  C   UNL     1      -4.353  12.422  19.413  0.00  0.00    +0.000 A 
ATOM     16  C   UNL     1      -4.403  13.037  20.756  0.00  0.00    +0.000 A 
ATOM     17  C   UNL     1      -5.555  13.558  21.388  0.00  0.00    +0.000 A 
ATOM     18  C   UNL     1      -5.518  14.125  22.685  0.00  0.00    +0.000 A 
ATOM     19  H   UNL     1      -5.131  10.596  15.096  0.00  0.00    +0.000 HD
ENDROOT
BRANCH   6  20
ATOM     20  C   UNL     1      -0.615  11.428  19.307  0.00  0.00    +0.000 C 
ATOM     21  C   UNL     1      -0.496   9.891  19.407  0.00  0.00    +0.000 C 
ATOM     22  C   UNL     1      -0.061   9.363  20.769  0.00  0.00    +0.000 C 
ATOM     23  C   UNL     1       1.060  10.185  21.419  0.00  0.00    +0.000 C 
ATOM     24  N   UNL     1       0.960  11.635  21.292  0.00  0.00    +0.000 NA
ATOM     25  C   UNL     1       0.618  12.104  19.956  0.00  0.00    +0.000 C 
ATOM     26  H   UNL     1       1.785  12.099  21.660  0.00  0.00    +0.000 HD
ENDBRANCH   6  20
BRANCH   1  28
ATOM     27  C   UNL     1      -2.987  14.885  25.224  0.00  0.00    +0.000 C 
ATOM     28  O   UNL     1      -4.287  14.690  24.660  0.00  0.00    +0.000 OA
ENDBRANCH   1  28
BRANCH  18  29
ATOM     29  O   UNL     1      -6.603  14.673  23.323  0.00  0.00    +0.000 OA
ATOM     30  C   UNL     1      -7.535  13.781  23.918  0.00  0.00    +0.000 C 
ENDBRANCH  18  29
TORSDOF 3
ENDMDL
MODEL 6
REMARK VINA RESULT:      -6.7      6.967      9.631
REMARK  Name = 
REMARK  5 active torsions:
REMARK  status: ('A' for Active; 'I' for Inactive)
REMARK    1  A    between atoms: C_1  and  O_2
REMARK    2  A    between atoms: O_2  and  C_3
REMARK    3  A    between atoms: N_8  and  C_9
REMARK    4  A    between atoms: C_26  and  O_27
REMARK    5  A    between atoms: O_27  and  C_28
REMARK                            x       y       z     vdW  Elec       q    Type
REMARK                         _______ _______ _______ _____ _____    ______ ____
ROOT
ATOM      1  C   UNL     1      -4.398  13.816  23.322  0.00  0.00    +0.000 A 
ATOM      2  C   UNL     1      -3.252  13.451  22.642  0.00  0.00    +0.000 A 
ATOM      3  C   UNL     1      -3.305  12.992  21.318  0.00  0.00    +0.000 A 
ATOM      4  C   UNL     1      -2.020  12.770  20.662  0.00  0.00    +0.000 A 
ATOM      5  O   UNL     1      -1.064  13.213  21.284  0.00  0.00    +0.000 OA
ATOM      6  N   UNL     1      -1.968  12.094  19.442  0.00  0.00    +0.000 N 
ATOM      7  C   UNL     1      -3.189  11.861  18.677  0.00  0.00    +0.000 A 
ATOM      8  C   UNL     1      -3.258  11.318  17.348  0.00  0.00    +0.000 A 
ATOM      9  C   UNL     1      -2.378  10.846  16.312  0.00  0.00    +0.000 A 
ATOM     10  C   UNL     1      -3.120  10.432  15.224  0.00  0.00    +0.000 A 
ATOM     11  N   UNL     1      -4.426  10.649  15.528  0.00  0.00    +0.000 N 
ATOM     12  C   UNL     1      -4.528  11.181  16.780  0.00  0.00    +0.000 A 
ATOM     13  N   UNL     1      -5.714  11.503  17.305  0.00  0.00    +0.000 NA
ATOM     14  C   UNL     1      -5.613  12.019  18.542  0.00  0.00    +0.000 A 
ATOM     15  C   UNL     1      -4.442  12.227  19.280  0.00  0.00    +0.000 A 
ATOM     16  C   UNL     1      -4.494  12.785  20.647  0.00  0.00    +0.000 A 
ATOM     17  C   UNL     1      -5.665  13.134  21.358  0.00  0.00    +0.000 A 
ATOM     18  C   UNL     1      -5.627  13.657  22.672  0.00  0.00    +0.000 A 
ATOM     19  H   UNL     1      -5.224  10.463  14.937  0.00  0.00    +0.000 HD
ENDROOT
BRANCH   6  20
ATOM     20  C   UNL     1      -0.621  11.720  18.943  0.00  0.00    +0.000 C 
ATOM     21  C   UNL     1       0.201  10.817  19.889  0.00  0.00    +0.000 C 
ATOM     22  C   UNL     1       1.024  11.556  20.937  0.00  0.00    +0.000 C 
ATOM     23  C   UNL     1       1.725  12.810  20.398  0.00  0.00    +0.000 C 
ATOM     24  N   UNL     1       0.955  13.642  19.479  0.00  0.00    +0.000 NA
ATOM     25  C   UNL     1       0.245  12.903  18.443  0.00  0.00    +0.000 C 
ATOM     26  H   UNL     1       1.520  14.392  19.094  0.00  0.00    +0.000 HD
ENDBRANCH   6  20
BRANCH   1  28
ATOM     27  C   UNL     1      -3.193  15.040  24.960  0.00  0.00    +0.000 C 
ATOM     28  O   UNL     1      -4.369  14.307  24.604  0.00  0.00    +0.000 OA
ENDBRANCH   1  28
BRANCH  18  29
ATOM     29  O   UNL     1      -6.735  14.041  23.386  0.00  0.00    +0.000 OA
ATOM     30  C   UNL     1      -7.533  13.017  23.962  0.00  0.00    +0.000 C 
ENDBRANCH  18  29
TORSDOF 3
ENDMDL
MODEL 7
REMARK VINA RESULT:      -6.5      6.893     10.964
REMARK  Name = 
REMARK  5 active torsions:
REMARK  status: ('A' for Active; 'I' for Inactive)
REMARK    1  A    between atoms: C_1  and  O_2
REMARK    2  A    between atoms: O_2  and  C_3
REMARK    3  A    between atoms: N_8  and  C_9
REMARK    4  A    between atoms: C_26  and  O_27
REMARK    5  A    between atoms: O_27  and  C_28
REMARK                            x       y       z     vdW  Elec       q    Type
REMARK                         _______ _______ _______ _____ _____    ______ ____
ROOT
ATOM      1  C   UNL     1      -2.083  10.403  17.661  0.00  0.00    +0.000 A 
ATOM      2  C   UNL     1      -3.158  11.065  18.222  0.00  0.00    +0.000 A 
ATOM      3  C   UNL     1      -3.013  11.840  19.383  0.00  0.00    +0.000 A 
ATOM      4  C   UNL     1      -4.186  12.601  19.799  0.00  0.00    +0.000 A 
ATOM      5  O   UNL     1      -5.080  12.629  18.964  0.00  0.00    +0.000 OA
ATOM      6  N   UNL     1      -4.215  13.206  21.057  0.00  0.00    +0.000 N 
ATOM      7  C   UNL     1      -2.990  13.331  21.841  0.00  0.00    +0.000 A 
ATOM      8  C   UNL     1      -2.850  14.059  23.072  0.00  0.00    +0.000 A 
ATOM      9  C   UNL     1      -3.643  14.866  23.961  0.00  0.00    +0.000 A 
ATOM     10  C   UNL     1      -2.869  15.284  25.025  0.00  0.00    +0.000 A 
ATOM     11  N   UNL     1      -1.619  14.790  24.826  0.00  0.00    +0.000 N 
ATOM     12  C   UNL     1      -1.586  14.068  23.669  0.00  0.00    +0.000 A 
ATOM     13  N   UNL     1      -0.459  13.493  23.239  0.00  0.00    +0.000 NA
ATOM     14  C   UNL     1      -0.621  12.831  22.081  0.00  0.00    +0.000 A 
ATOM     15  C   UNL     1      -1.801  12.700  21.338  0.00  0.00    +0.000 A 
ATOM     16  C   UNL     1      -1.827  11.915  20.086  0.00  0.00    +0.000 A 
ATOM     17  C   UNL     1      -0.737  11.212  19.523  0.00  0.00    +0.000 A 
ATOM     18  C   UNL     1      -0.850  10.476  18.319  0.00  0.00    +0.000 A 
ATOM     19  H   UNL     1      -0.813  14.925  25.419  0.00  0.00    +0.000 HD
ENDROOT
BRANCH   6  20
ATOM     20  C   UNL     1      -5.513  13.778  21.493  0.00  0.00    +0.000 C 
ATOM     21  C   UNL     1      -6.678  12.769  21.582  0.00  0.00    +0.000 C 
ATOM     22  C   UNL     1      -7.448  12.553  20.284  0.00  0.00    +0.000 C 
ATOM     23  C   UNL     1      -7.713  13.846  19.502  0.00  0.00    +0.000 C 
ATOM     24  N   UNL     1      -6.620  14.811  19.451  0.00  0.00    +0.000 NA
ATOM     25  C   UNL     1      -5.960  15.048  20.728  0.00  0.00    +0.000 C 
ATOM     26  H   UNL     1      -6.908  15.675  19.003  0.00  0.00    +0.000 HD
ENDBRANCH   6  20
BRANCH   1  28
ATOM     27  C   UNL     1      -2.801  10.347  15.400  0.00  0.00    +0.000 C 
ATOM     28  O   UNL     1      -2.190   9.673  16.505  0.00  0.00    +0.000 OA
ENDBRANCH   1  28
BRANCH  18  29
ATOM     29  O   UNL     1       0.188   9.808  17.719  0.00  0.00    +0.000 OA
ATOM     30  C   UNL     1       1.481   9.954  18.288  0.00  0.00    +0.000 C 
ENDBRANCH  18  29
TORSDOF 3
ENDMDL
MODEL 8
REMARK VINA RESULT:      -6.3      6.573     10.153
REMARK  Name = 
REMARK  5 active torsions:
REMARK  status: ('A' for Active; 'I' for Inactive)
REMARK    1  A    between atoms: C_1  and  O_2
REMARK    2  A    between atoms: O_2  and  C_3
REMARK    3  A    between atoms: N_8  and  C_9
REMARK    4  A    between atoms: C_26  and  O_27
REMARK    5  A    between atoms: O_27  and  C_28
REMARK                            x       y       z     vdW  Elec       q    Type
REMARK                         _______ _______ _______ _____ _____    ______ ____
ROOT
ATOM      1  C   UNL     1       0.385  10.623  20.830  0.00  0.00    +0.000 A 
ATOM      2  C   UNL     1      -0.634  11.387  21.366  0.00  0.00    +0.000 A 
ATOM      3  C   UNL     1      -1.821  11.621  20.656  0.00  0.00    +0.000 A 
ATOM      4  C   UNL     1      -2.876  12.323  21.380  0.00  0.00    +0.000 A 
ATOM      5  O   UNL     1      -2.665  12.431  22.580  0.00  0.00    +0.000 OA
ATOM      6  N   UNL     1      -3.991  12.808  20.693  0.00  0.00    +0.000 N 
ATOM      7  C   UNL     1      -4.254  12.377  19.323  0.00  0.00    +0.000 A 
ATOM      8  C   UNL     1      -5.434  12.677  18.560  0.00  0.00    +0.000 A 
ATOM      9  C   UNL     1      -6.684  13.376  18.707  0.00  0.00    +0.000 A 
ATOM     10  C   UNL     1      -7.408  13.285  17.536  0.00  0.00    +0.000 A 
ATOM     11  N   UNL     1      -6.674  12.538  16.670  0.00  0.00    +0.000 N 
ATOM     12  C   UNL     1      -5.503  12.162  17.262  0.00  0.00    +0.000 A 
ATOM     13  N   UNL     1      -4.612  11.401  16.620  0.00  0.00    +0.000 NA
ATOM     14  C   UNL     1      -3.527  11.129  17.365  0.00  0.00    +0.000 A 
ATOM     15  C   UNL     1      -3.269  11.556  18.673  0.00  0.00    +0.000 A 
ATOM     16  C   UNL     1      -2.011  11.192  19.357  0.00  0.00    +0.000 A 
ATOM     17  C   UNL     1      -0.953  10.435  18.803  0.00  0.00    +0.000 A 
ATOM     18  C   UNL     1       0.226  10.137  19.527  0.00  0.00    +0.000 A 
ATOM     19  H   UNL     1      -6.928  12.277  15.728  0.00  0.00    +0.000 HD
ENDROOT
BRANCH   6  20
ATOM     20  C   UNL     1      -4.911  13.690  21.452  0.00  0.00    +0.000 C 
ATOM     21  C   UNL     1      -4.255  14.938  22.079  0.00  0.00    +0.000 C 
ATOM     22  C   UNL     1      -3.652  14.727  23.463  0.00  0.00    +0.000 C 
ATOM     23  C   UNL     1      -4.522  13.866  24.389  0.00  0.00    +0.000 C 
ATOM     24  N   UNL     1      -5.167  12.706  23.782  0.00  0.00    +0.000 NA
ATOM     25  C   UNL     1      -5.799  12.968  22.496  0.00  0.00    +0.000 C 
ATOM     26  H   UNL     1      -5.799  12.250  24.432  0.00  0.00    +0.000 HD
ENDBRANCH   6  20
BRANCH   1  28
ATOM     27  C   UNL     1       1.456   9.266  22.455  0.00  0.00    +0.000 C 
ATOM     28  O   UNL     1       1.538  10.346  21.519  0.00  0.00    +0.000 OA
ENDBRANCH   1  28
BRANCH  18  29
ATOM     29  O   UNL     1       1.262   9.378  19.042  0.00  0.00    +0.000 OA
ATOM     30  C   UNL     1       1.904   9.823  17.856  0.00  0.00    +0.000 C 
ENDBRANCH  18  29
TORSDOF 3
ENDMDL
MODEL 9
REMARK VINA RESULT:      -6.1      9.026     10.926
REMARK  Name = 
REMARK  5 active torsions:
REMARK  status: ('A' for Active; 'I' for Inactive)
REMARK    1  A    between atoms: C_1  and  O_2
REMARK    2  A    between atoms: O_2  and  C_3
REMARK    3  A    between atoms: N_8  and  C_9
REMARK    4  A    between atoms: C_26  and  O_27
REMARK    5  A    between atoms: O_27  and  C_28
REMARK                            x       y       z     vdW  Elec       q    Type
REMARK                         _______ _______ _______ _____ _____    ______ ____
ROOT
ATOM      1  C   UNL     1       6.104  13.460  23.886  0.00  0.00    +0.000 A 
ATOM      2  C   UNL     1       6.360  14.313  22.829  0.00  0.00    +0.000 A 
ATOM      3  C   UNL     1       7.263  13.965  21.813  0.00  0.00    +0.000 A 
ATOM      4  C   UNL     1       7.344  14.884  20.683  0.00  0.00    +0.000 A 
ATOM      5  O   UNL     1       6.460  15.730  20.668  0.00  0.00    +0.000 OA
ATOM      6  N   UNL     1       8.373  14.751  19.748  0.00  0.00    +0.000 N 
ATOM      7  C   UNL     1       9.193  13.545  19.725  0.00  0.00    +0.000 A 
ATOM      8  C   UNL     1      10.176  13.216  18.729  0.00  0.00    +0.000 A 
ATOM      9  C   UNL     1      10.729  13.758  17.517  0.00  0.00    +0.000 A 
ATOM     10  C   UNL     1      11.696  12.906  17.024  0.00  0.00    +0.000 A 
ATOM     11  N   UNL     1      11.753  11.840  17.865  0.00  0.00    +0.000 N 
ATOM     12  C   UNL     1      10.854  12.002  18.878  0.00  0.00    +0.000 A 
ATOM     13  N   UNL     1      10.704  11.076  19.830  0.00  0.00    +0.000 NA
ATOM     14  C   UNL     1       9.770  11.408  20.736  0.00  0.00    +0.000 A 
ATOM     15  C   UNL     1       8.995  12.574  20.766  0.00  0.00    +0.000 A 
ATOM     16  C   UNL     1       8.017  12.808  21.849  0.00  0.00    +0.000 A 
ATOM     17  C   UNL     1       7.772  11.953  22.947  0.00  0.00    +0.000 A 
ATOM     18  C   UNL     1       6.820  12.258  23.950  0.00  0.00    +0.000 A 
ATOM     19  H   UNL     1      12.352  11.032  17.778  0.00  0.00    +0.000 HD
ENDROOT
BRANCH   6  20
ATOM     20  C   UNL     1       8.515  15.842  18.753  0.00  0.00    +0.000 C 
ATOM     21  C   UNL     1       9.826  16.652  18.849  0.00  0.00    +0.000 C 
ATOM     22  C   UNL     1       9.793  17.826  19.820  0.00  0.00    +0.000 C 
ATOM     23  C   UNL     1       8.488  18.631  19.769  0.00  0.00    +0.000 C 
ATOM     24  N   UNL     1       7.254  17.862  19.644  0.00  0.00    +0.000 NA
ATOM     25  C   UNL     1       7.301  16.798  18.649  0.00  0.00    +0.000 C 
ATOM     26  H   UNL     1       6.449  18.468  19.517  0.00  0.00    +0.000 HD
ENDBRANCH   6  20
BRANCH   1  28
ATOM     27  C   UNL     1       5.514  14.892  25.684  0.00  0.00    +0.000 C 
ATOM     28  O   UNL     1       5.196  13.759  24.870  0.00  0.00    +0.000 OA
ENDBRANCH   1  28
BRANCH  18  29
ATOM     29  O   UNL     1       6.525  11.443  25.013  0.00  0.00    +0.000 OA
ATOM     30  C   UNL     1       7.218  11.675  26.231  0.00  0.00    +0.000 C 
ENDBRANCH  18  29
TORSDOF 3
ENDMDL
