MODEL 1
REMARK VINA RESULT:      -7.1      0.000      0.000
REMARK  Name = 
REMARK  9 active torsions:
REMARK  status: ('A' for Active; 'I' for Inactive)
REMARK    1  A    between atoms: C_1  and  C_2
REMARK    2  A    between atoms: C_2  and  C_4
REMARK    3  A    between atoms: C_4  and  C_5
REMARK    4  A    between atoms: C_5  and  C_6
REMARK    5  A    between atoms: C_9  and  N_10
REMARK    6  A    between atoms: C_12  and  C_13
REMARK    7  A    between atoms: C_20  and  N_21
REMARK    8  A    between atoms: N_21  and  S_22
REMARK    9  A    between atoms: S_22  and  C_23
REMARK                            x       y       z     vdW  Elec       q    Type
REMARK                         _______ _______ _______ _____ _____    ______ ____
ROOT
ATOM      1  N   UNL     1       0.646  10.991  20.451  0.00  0.00    +0.000 N 
ATOM      2  N   UNL     1       1.594  11.943  20.905  0.00  0.00    +0.000 NA
ATOM      3  C   UNL     1       1.178  13.077  20.320  0.00  0.00    +0.000 A 
ATOM      4  C   UNL     1      -0.083  12.838  19.780  0.00  0.00    +0.000 A 
ATOM      5  C   UNL     1      -0.641  11.735  20.453  0.00  0.00    +0.000 A 
ATOM      6  C   UNL     1      -2.150  11.602  20.127  0.00  0.00    +0.000 A 
ATOM      7  C   UNL     1      -3.179  12.308  20.887  0.00  0.00    +0.000 A 
ATOM      8  C   UNL     1      -4.466  12.688  20.331  0.00  0.00    +0.000 A 
ATOM      9  C   UNL     1      -4.766  12.308  19.031  0.00  0.00    +0.000 A 
ATOM     10  C   UNL     1      -3.769  11.744  18.240  0.00  0.00    +0.000 A 
ATOM     11  C   UNL     1      -2.459  11.594  18.748  0.00  0.00    +0.000 A 
ATOM     12  C   UNL     1      -1.343  12.144  17.836  0.00  0.00    +0.000 C 
ATOM     13  C   UNL     1      -0.742  13.395  18.570  0.00  0.00    +0.000 C 
ENDROOT
BRANCH   1  17
ATOM     14  C   UNL     1       2.292   7.250  18.662  0.00  0.00    +0.000 A 
ATOM     15  C   UNL     1       2.041   8.401  17.922  0.00  0.00    +0.000 A 
ATOM     16  C   UNL     1       1.528   9.587  18.547  0.00  0.00    +0.000 A 
ATOM     17  C   UNL     1       1.215   9.706  19.940  0.00  0.00    +0.000 A 
ATOM     18  C   UNL     1       1.404   8.528  20.665  0.00  0.00    +0.000 A 
ATOM     19  C   UNL     1       1.927   7.331  20.029  0.00  0.00    +0.000 A 
BRANCH  14  20
ATOM     20  C   UNL     1       2.808   5.941  18.040  0.00  0.00    +0.000 C 
BRANCH  20  21
ATOM     21  C   UNL     1       1.936   4.665  17.999  0.00  0.00    +0.000 C 
BRANCH  21  23
ATOM     22  C   UNL     1       0.968   3.667  20.190  0.00  0.00    +0.000 C 
ATOM     23  C   UNL     1       2.084   3.723  19.176  0.00  0.00    +0.000 C 
ATOM     24  O   UNL     1       3.040   2.949  19.247  0.00  0.00    +0.000 OA
ENDBRANCH  21  23
ENDBRANCH  20  21
ENDBRANCH  14  20
ENDBRANCH   1  17
BRANCH   3  25
ATOM     25  C   UNL     1       1.923  14.334  20.165  0.00  0.00    +0.000 C 
ATOM     26  N   UNL     1       1.421  15.455  20.741  0.00  0.00    +0.000 N 
ATOM     27  O   UNL     1       2.992  14.400  19.545  0.00  0.00    +0.000 OA
ATOM     28  H   UNL     1       0.526  15.427  21.224  0.00  0.00    +0.000 HD
ATOM     29  H   UNL     1       1.921  16.313  20.610  0.00  0.00    +0.000 HD
ENDBRANCH   3  25
BRANCH   8  30
ATOM     30  N   UNL     1      -5.275  13.766  20.850  0.00  0.00    +0.000 N 
ATOM     31  H   UNL     1      -5.312  14.649  20.338  0.00  0.00    +0.000 HD
BRANCH  30  32
ATOM     32  S   UNL     1      -6.278  13.708  22.163  0.00  0.00    +0.000 S 
ATOM     33  C   UNL     1      -5.497  14.468  23.587  0.00  0.00    +0.000 C 
ATOM     34  O   UNL     1      -7.464  14.487  21.858  0.00  0.00    +0.000 OA
ATOM     35  O   UNL     1      -6.410  12.290  22.488  0.00  0.00    +0.000 OA
ENDBRANCH  30  32
ENDBRANCH   8  30
TORSDOF 7
ENDMDL
MODEL 2
REMARK VINA RESULT:      -7.1      1.092      1.188
REMARK  Name = 
REMARK  9 active torsions:
REMARK  status: ('A' for Active; 'I' for Inactive)
REMARK    1  A    between atoms: C_1  and  C_2
REMARK    2  A    between atoms: C_2  and  C_4
REMARK    3  A    between atoms: C_4  and  C_5
REMARK    4  A    between atoms: C_5  and  C_6
REMARK    5  A    between atoms: C_9  and  N_10
REMARK    6  A    between atoms: C_12  and  C_13
REMARK    7  A    between atoms: C_20  and  N_21
REMARK    8  A    between atoms: N_21  and  S_22
REMARK    9  A    between atoms: S_22  and  C_23
REMARK                            x       y       z     vdW  Elec       q    Type
REMARK                         _______ _______ _______ _____ _____    ______ ____
ROOT
ATOM      1  N   UNL     1       0.549  10.920  20.299  0.00  0.00    +0.000 N 
ATOM      2  N   UNL     1       1.412  11.890  20.868  0.00  0.00    +0.000 NA
ATOM      3  C   UNL     1       1.004  13.028  20.283  0.00  0.00    +0.000 A 
ATOM      4  C   UNL     1      -0.191  12.760  19.622  0.00  0.00    +0.000 A 
ATOM      5  C   UNL     1      -0.762  11.613  20.205  0.00  0.00    +0.000 A 
ATOM      6  C   UNL     1      -2.229  11.435  19.738  0.00  0.00    +0.000 A 
ATOM      7  C   UNL     1      -3.351  12.074  20.421  0.00  0.00    +0.000 A 
ATOM      8  C   UNL     1      -4.596  12.423  19.761  0.00  0.00    +0.000 A 
ATOM      9  C   UNL     1      -4.761  12.078  18.428  0.00  0.00    +0.000 A 
ATOM     10  C   UNL     1      -3.674  11.581  17.714  0.00  0.00    +0.000 A 
ATOM     11  C   UNL     1      -2.410  11.463  18.337  0.00  0.00    +0.000 A 
ATOM     12  C   UNL     1      -1.240  12.087  17.549  0.00  0.00    +0.000 C 
ATOM     13  C   UNL     1      -0.760  13.333  18.374  0.00  0.00    +0.000 C 
ENDROOT
BRANCH   1  17
ATOM     14  C   UNL     1       2.484   7.299  18.553  0.00  0.00    +0.000 A 
ATOM     15  C   UNL     1       2.179   8.433  17.807  0.00  0.00    +0.000 A 
ATOM     16  C   UNL     1       1.573   9.582  18.419  0.00  0.00    +0.000 A 
ATOM     17  C   UNL     1       1.214   9.676  19.803  0.00  0.00    +0.000 A 
ATOM     18  C   UNL     1       1.460   8.511  20.532  0.00  0.00    +0.000 A 
ATOM     19  C   UNL     1       2.078   7.352  19.909  0.00  0.00    +0.000 A 
BRANCH  14  20
ATOM     20  C   UNL     1       3.102   6.028  17.944  0.00  0.00    +0.000 C 
BRANCH  20  21
ATOM     21  C   UNL     1       2.952   4.649  18.625  0.00  0.00    +0.000 C 
BRANCH  21  23
ATOM     22  C   UNL     1       0.932   3.449  19.727  0.00  0.00    +0.000 C 
ATOM     23  C   UNL     1       1.599   3.983  18.484  0.00  0.00    +0.000 C 
ATOM     24  O   UNL     1       1.013   3.971  17.399  0.00  0.00    +0.000 OA
ENDBRANCH  21  23
ENDBRANCH  20  21
ENDBRANCH  14  20
ENDBRANCH   1  17
BRANCH   3  25
ATOM     25  C   UNL     1       1.708  14.317  20.237  0.00  0.00    +0.000 C 
ATOM     26  N   UNL     1       2.751  14.450  19.380  0.00  0.00    +0.000 N 
ATOM     27  O   UNL     1       1.374  15.281  20.936  0.00  0.00    +0.000 OA
ATOM     28  H   UNL     1       3.063  13.658  18.823  0.00  0.00    +0.000 HD
ATOM     29  H   UNL     1       3.243  15.323  19.373  0.00  0.00    +0.000 HD
ENDBRANCH   3  25
BRANCH   8  30
ATOM     30  N   UNL     1      -5.493  13.451  20.237  0.00  0.00    +0.000 N 
ATOM     31  H   UNL     1      -5.858  14.136  19.573  0.00  0.00    +0.000 HD
BRANCH  30  32
ATOM     32  S   UNL     1      -6.117  13.593  21.760  0.00  0.00    +0.000 S 
ATOM     33  C   UNL     1      -7.696  14.442  21.719  0.00  0.00    +0.000 C 
ATOM     34  O   UNL     1      -6.363  12.257  22.272  0.00  0.00    +0.000 OA
ATOM     35  O   UNL     1      -5.202  14.481  22.474  0.00  0.00    +0.000 OA
ENDBRANCH  30  32
ENDBRANCH   8  30
TORSDOF 7
ENDMDL
MODEL 3
REMARK VINA RESULT:      -7.1      3.170      5.076
REMARK  Name = 
REMARK  9 active torsions:
REMARK  status: ('A' for Active; 'I' for Inactive)
REMARK    1  A    between atoms: C_1  and  C_2
REMARK    2  A    between atoms: C_2  and  C_4
REMARK    3  A    between atoms: C_4  and  C_5
REMARK    4  A    between atoms: C_5  and  C_6
REMARK    5  A    between atoms: C_9  and  N_10
REMARK    6  A    between atoms: C_12  and  C_13
REMARK    7  A    between atoms: C_20  and  N_21
REMARK    8  A    between atoms: N_21  and  S_22
REMARK    9  A    between atoms: S_22  and  C_23
REMARK                            x       y       z     vdW  Elec       q    Type
REMARK                         _______ _______ _______ _____ _____    ______ ____
ROOT
ATOM      1  N   UNL     1       0.712  10.231  18.279  0.00  0.00    +0.000 N 
ATOM      2  N   UNL     1      -0.459   9.996  17.514  0.00  0.00    +0.000 NA
ATOM      3  C   UNL     1      -1.354  10.817  18.085  0.00  0.00    +0.000 A 
ATOM      4  C   UNL     1      -0.664  11.662  18.950  0.00  0.00    +0.000 A 
ATOM      5  C   UNL     1       0.683  11.693  18.545  0.00  0.00    +0.000 A 
ATOM      6  C   UNL     1       1.443  12.839  19.258  0.00  0.00    +0.000 A 
ATOM      7  C   UNL     1       1.480  14.201  18.731  0.00  0.00    +0.000 A 
ATOM      8  C   UNL     1       1.648  15.378  19.565  0.00  0.00    +0.000 A 
ATOM      9  C   UNL     1       1.849  15.205  20.926  0.00  0.00    +0.000 A 
ATOM     10  C   UNL     1       1.700  13.937  21.480  0.00  0.00    +0.000 A 
ATOM     11  C   UNL     1       1.313  12.848  20.666  0.00  0.00    +0.000 A 
ATOM     12  C   UNL     1       0.128  12.023  21.207  0.00  0.00    +0.000 C 
ATOM     13  C   UNL     1      -1.078  12.282  20.236  0.00  0.00    +0.000 C 
ENDROOT
BRANCH   1  17
ATOM     14  C   UNL     1       2.924   6.513  19.372  0.00  0.00    +0.000 A 
ATOM     15  C   UNL     1       2.913   7.042  18.086  0.00  0.00    +0.000 A 
ATOM     16  C   UNL     1       2.202   8.252  17.787  0.00  0.00    +0.000 A 
ATOM     17  C   UNL     1       1.441   9.008  18.737  0.00  0.00    +0.000 A 
ATOM     18  C   UNL     1       1.398   8.437  20.011  0.00  0.00    +0.000 A 
ATOM     19  C   UNL     1       2.124   7.214  20.309  0.00  0.00    +0.000 A 
BRANCH  14  20
ATOM     20  C   UNL     1       3.640   5.203  19.742  0.00  0.00    +0.000 C 
BRANCH  20  21
ATOM     21  C   UNL     1       4.776   4.627  18.866  0.00  0.00    +0.000 C 
BRANCH  21  23
ATOM     22  C   UNL     1       6.449   6.269  17.753  0.00  0.00    +0.000 C 
ATOM     23  C   UNL     1       6.094   5.373  18.913  0.00  0.00    +0.000 C 
ATOM     24  O   UNL     1       6.805   5.330  19.918  0.00  0.00    +0.000 OA
ENDBRANCH  21  23
ENDBRANCH  20  21
ENDBRANCH  14  20
ENDBRANCH   1  17
BRANCH   3  25
ATOM     25  C   UNL     1      -2.815  10.799  17.932  0.00  0.00    +0.000 C 
ATOM     26  N   UNL     1      -3.448  11.968  17.661  0.00  0.00    +0.000 N 
ATOM     27  O   UNL     1      -3.480   9.760  18.024  0.00  0.00    +0.000 OA
ATOM     28  H   UNL     1      -2.923  12.839  17.617  0.00  0.00    +0.000 HD
ATOM     29  H   UNL     1      -4.447  11.953  17.583  0.00  0.00    +0.000 HD
ENDBRANCH   3  25
BRANCH   8  30
ATOM     30  N   UNL     1       1.213  16.701  19.179  0.00  0.00    +0.000 N 
ATOM     31  H   UNL     1       1.902  17.363  18.819  0.00  0.00    +0.000 HD
BRANCH  30  32
ATOM     32  S   UNL     1      -0.341  17.259  19.141  0.00  0.00    +0.000 S 
ATOM     33  C   UNL     1      -1.433  16.148  20.031  0.00  0.00    +0.000 C 
ATOM     34  O   UNL     1      -0.378  18.537  19.829  0.00  0.00    +0.000 OA
ATOM     35  O   UNL     1      -0.748  17.183  17.740  0.00  0.00    +0.000 OA
ENDBRANCH  30  32
ENDBRANCH   8  30
TORSDOF 7
ENDMDL
MODEL 4
REMARK VINA RESULT:      -7.1      2.879      4.720
REMARK  Name = 
REMARK  9 active torsions:
REMARK  status: ('A' for Active; 'I' for Inactive)
REMARK    1  A    between atoms: C_1  and  C_2
REMARK    2  A    between atoms: C_2  and  C_4
REMARK    3  A    between atoms: C_4  and  C_5
REMARK    4  A    between atoms: C_5  and  C_6
REMARK    5  A    between atoms: C_9  and  N_10
REMARK    6  A    between atoms: C_12  and  C_13
REMARK    7  A    between atoms: C_20  and  N_21
REMARK    8  A    between atoms: N_21  and  S_22
REMARK    9  A    between atoms: S_22  and  C_23
REMARK                            x       y       z     vdW  Elec       q    Type
REMARK                         _______ _______ _______ _____ _____    ______ ____
ROOT
ATOM      1  N   UNL     1       0.519  10.409  18.377  0.00  0.00    +0.000 N 
ATOM      2  N   UNL     1      -0.663  10.172  17.630  0.00  0.00    +0.000 NA
ATOM      3  C   UNL     1      -1.556  10.977  18.227  0.00  0.00    +0.000 A 
ATOM      4  C   UNL     1      -0.859  11.817  19.091  0.00  0.00    +0.000 A 
ATOM      5  C   UNL     1       0.480  11.867  18.662  0.00  0.00    +0.000 A 
ATOM      6  C   UNL     1       1.241  13.012  19.377  0.00  0.00    +0.000 A 
ATOM      7  C   UNL     1       1.255  14.380  18.867  0.00  0.00    +0.000 A 
ATOM      8  C   UNL     1       1.427  15.548  19.713  0.00  0.00    +0.000 A 
ATOM      9  C   UNL     1       1.653  15.360  21.068  0.00  0.00    +0.000 A 
ATOM     10  C   UNL     1       1.526  14.083  21.608  0.00  0.00    +0.000 A 
ATOM     11  C   UNL     1       1.136  13.001  20.787  0.00  0.00    +0.000 A 
ATOM     12  C   UNL     1      -0.031  12.157  21.338  0.00  0.00    +0.000 C 
ATOM     13  C   UNL     1      -1.256  12.417  20.391  0.00  0.00    +0.000 C 
ENDROOT
BRANCH   1  17
ATOM     14  C   UNL     1       2.783   6.699  19.383  0.00  0.00    +0.000 A 
ATOM     15  C   UNL     1       2.736   7.237  18.102  0.00  0.00    +0.000 A 
ATOM     16  C   UNL     1       2.009   8.445  17.831  0.00  0.00    +0.000 A 
ATOM     17  C   UNL     1       1.267   9.187  18.807  0.00  0.00    +0.000 A 
ATOM     18  C   UNL     1       1.262   8.606  20.076  0.00  0.00    +0.000 A 
ATOM     19  C   UNL     1       2.004   7.387  20.346  0.00  0.00    +0.000 A 
BRANCH  14  20
ATOM     20  C   UNL     1       3.518   5.390  19.724  0.00  0.00    +0.000 C 
BRANCH  20  21
ATOM     21  C   UNL     1       3.172   4.060  19.017  0.00  0.00    +0.000 C 
BRANCH  21  23
ATOM     22  C   UNL     1       0.783   3.574  19.906  0.00  0.00    +0.000 C 
ATOM     23  C   UNL     1       1.702   3.821  18.737  0.00  0.00    +0.000 C 
ATOM     24  O   UNL     1       1.254   3.930  17.594  0.00  0.00    +0.000 OA
ENDBRANCH  21  23
ENDBRANCH  20  21
ENDBRANCH  14  20
ENDBRANCH   1  17
BRANCH   3  25
ATOM     25  C   UNL     1      -3.019  10.946  18.099  0.00  0.00    +0.000 C 
ATOM     26  N   UNL     1      -3.704  12.106  18.262  0.00  0.00    +0.000 N 
ATOM     27  O   UNL     1      -3.641   9.910  17.833  0.00  0.00    +0.000 OA
ATOM     28  H   UNL     1      -3.214  12.961  18.515  0.00  0.00    +0.000 HD
ATOM     29  H   UNL     1      -4.704  12.072  18.198  0.00  0.00    +0.000 HD
ENDBRANCH   3  25
BRANCH   8  30
ATOM     30  N   UNL     1       0.972  16.871  19.352  0.00  0.00    +0.000 N 
ATOM     31  H   UNL     1       1.646  17.543  18.981  0.00  0.00    +0.000 HD
BRANCH  30  32
ATOM     32  S   UNL     1      -0.587  17.419  19.361  0.00  0.00    +0.000 S 
ATOM     33  C   UNL     1      -0.830  18.609  20.681  0.00  0.00    +0.000 C 
ATOM     34  O   UNL     1      -0.828  18.113  18.109  0.00  0.00    +0.000 OA
ATOM     35  O   UNL     1      -1.405  16.260  19.712  0.00  0.00    +0.000 OA
ENDBRANCH  30  32
ENDBRANCH   8  30
TORSDOF 7
ENDMDL
MODEL 5
REMARK VINA RESULT:      -7.1      0.559      1.005
REMARK  Name = 
REMARK  9 active torsions:
REMARK  status: ('A' for Active; 'I' for Inactive)
REMARK    1  A    between atoms: C_1  and  C_2
REMARK    2  A    between atoms: C_2  and  C_4
REMARK    3  A    between atoms: C_4  and  C_5
REMARK    4  A    between atoms: C_5  and  C_6
REMARK    5  A    between atoms: C_9  and  N_10
REMARK    6  A    between atoms: C_12  and  C_13
REMARK    7  A    between atoms: C_20  and  N_21
REMARK    8  A    between atoms: N_21  and  S_22
REMARK    9  A    between atoms: S_22  and  C_23
REMARK                            x       y       z     vdW  Elec       q    Type
REMARK                         _______ _______ _______ _____ _____    ______ ____
ROOT
ATOM      1  N   UNL     1       0.876  10.976  20.014  0.00  0.00    +0.000 N 
ATOM      2  N   UNL     1       1.900  11.916  20.295  0.00  0.00    +0.000 NA
ATOM      3  C   UNL     1       1.424  13.045  19.746  0.00  0.00    +0.000 A 
ATOM      4  C   UNL     1       0.092  12.823  19.408  0.00  0.00    +0.000 A 
ATOM      5  C   UNL     1      -0.381  11.750  20.186  0.00  0.00    +0.000 A 
ATOM      6  C   UNL     1      -1.924  11.645  20.093  0.00  0.00    +0.000 A 
ATOM      7  C   UNL     1      -2.814  12.394  20.977  0.00  0.00    +0.000 A 
ATOM      8  C   UNL     1      -4.161  12.790  20.608  0.00  0.00    +0.000 A 
ATOM      9  C   UNL     1      -4.660  12.386  19.379  0.00  0.00    +0.000 A 
ATOM     10  C   UNL     1      -3.804  11.779  18.464  0.00  0.00    +0.000 A 
ATOM     11  C   UNL     1      -2.436  11.610  18.776  0.00  0.00    +0.000 A 
ATOM     12  C   UNL     1      -1.458  12.111  17.693  0.00  0.00    +0.000 C 
ATOM     13  C   UNL     1      -0.730  13.364  18.294  0.00  0.00    +0.000 C 
ENDROOT
BRANCH   1  17
ATOM     14  C   UNL     1       2.295   6.979  18.628  0.00  0.00    +0.000 A 
ATOM     15  C   UNL     1       1.969   7.254  19.952  0.00  0.00    +0.000 A 
ATOM     16  C   UNL     1       1.499   8.552  20.347  0.00  0.00    +0.000 A 
ATOM     17  C   UNL     1       1.337   9.665  19.460  0.00  0.00    +0.000 A 
ATOM     18  C   UNL     1       1.728   9.404  18.145  0.00  0.00    +0.000 A 
ATOM     19  C   UNL     1       2.199   8.088  17.750  0.00  0.00    +0.000 A 
BRANCH  14  20
ATOM     20  C   UNL     1       2.835   5.618  18.156  0.00  0.00    +0.000 C 
BRANCH  20  21
ATOM     21  C   UNL     1       1.896   4.414  17.915  0.00  0.00    +0.000 C 
BRANCH  21  23
ATOM     22  C   UNL     1       0.983   3.674  20.228  0.00  0.00    +0.000 C 
ATOM     23  C   UNL     1       1.843   3.383  19.024  0.00  0.00    +0.000 C 
ATOM     24  O   UNL     1       2.403   2.293  18.897  0.00  0.00    +0.000 OA
ENDBRANCH  21  23
ENDBRANCH  20  21
ENDBRANCH  14  20
ENDBRANCH   1  17
BRANCH   3  25
ATOM     25  C   UNL     1       2.162  14.279  19.447  0.00  0.00    +0.000 C 
ATOM     26  N   UNL     1       1.746  15.434  20.024  0.00  0.00    +0.000 N 
ATOM     27  O   UNL     1       3.152  14.298  18.704  0.00  0.00    +0.000 OA
ATOM     28  H   UNL     1       0.913  15.445  20.609  0.00  0.00    +0.000 HD
ATOM     29  H   UNL     1       2.238  16.276  19.796  0.00  0.00    +0.000 HD
ENDBRANCH   3  25
BRANCH   8  30
ATOM     30  N   UNL     1      -4.863  13.899  21.212  0.00  0.00    +0.000 N 
ATOM     31  H   UNL     1      -4.980  14.761  20.677  0.00  0.00    +0.000 HD
BRANCH  30  32
ATOM     32  S   UNL     1      -5.628  13.908  22.677  0.00  0.00    +0.000 S 
ATOM     33  C   UNL     1      -4.623  14.739  23.908  0.00  0.00    +0.000 C 
ATOM     34  O   UNL     1      -6.855  14.671  22.539  0.00  0.00    +0.000 OA
ATOM     35  O   UNL     1      -5.692  12.508  23.090  0.00  0.00    +0.000 OA
ENDBRANCH  30  32
ENDBRANCH   8  30
TORSDOF 7
ENDMDL
MODEL 6
REMARK VINA RESULT:      -7.0      3.505      4.879
REMARK  Name = 
REMARK  9 active torsions:
REMARK  status: ('A' for Active; 'I' for Inactive)
REMARK    1  A    between atoms: C_1  and  C_2
REMARK    2  A    between atoms: C_2  and  C_4
REMARK    3  A    between atoms: C_4  and  C_5
REMARK    4  A    between atoms: C_5  and  C_6
REMARK    5  A    between atoms: C_9  and  N_10
REMARK    6  A    between atoms: C_12  and  C_13
REMARK    7  A    between atoms: C_20  and  N_21
REMARK    8  A    between atoms: N_21  and  S_22
REMARK    9  A    between atoms: S_22  and  C_23
REMARK                            x       y       z     vdW  Elec       q    Type
REMARK                         _______ _______ _______ _____ _____    ______ ____
ROOT
ATOM      1  N   UNL     1       0.326  10.172  19.505  0.00  0.00    +0.000 N 
ATOM      2  N   UNL     1      -0.542   9.679  20.513  0.00  0.00    +0.000 NA
ATOM      3  C   UNL     1      -0.494  10.648  21.442  0.00  0.00    +0.000 A 
ATOM      4  C   UNL     1       0.151  11.745  20.879  0.00  0.00    +0.000 A 
ATOM      5  C   UNL     1       0.057  11.633  19.479  0.00  0.00    +0.000 A 
ATOM      6  C   UNL     1       0.475  12.959  18.795  0.00  0.00    +0.000 A 
ATOM      7  C   UNL     1      -0.470  14.047  18.554  0.00  0.00    +0.000 A 
ATOM      8  C   UNL     1      -0.079  15.443  18.470  0.00  0.00    +0.000 A 
ATOM      9  C   UNL     1       1.267  15.763  18.559  0.00  0.00    +0.000 A 
ATOM     10  C   UNL     1       2.180  14.772  18.909  0.00  0.00    +0.000 A 
ATOM     11  C   UNL     1       1.730  13.464  19.203  0.00  0.00    +0.000 A 
ATOM     12  C   UNL     1       2.257  12.881  20.530  0.00  0.00    +0.000 C 
ATOM     13  C   UNL     1       1.023  12.779  21.495  0.00  0.00    +0.000 C 
ENDROOT
BRANCH   1  17
ATOM     14  C   UNL     1       3.312   7.131  18.184  0.00  0.00    +0.000 A 
ATOM     15  C   UNL     1       2.627   7.051  19.393  0.00  0.00    +0.000 A 
ATOM     16  C   UNL     1       1.661   8.044  19.766  0.00  0.00    +0.000 A 
ATOM     17  C   UNL     1       1.323   9.191  18.975  0.00  0.00    +0.000 A 
ATOM     18  C   UNL     1       2.061   9.304  17.795  0.00  0.00    +0.000 A 
ATOM     19  C   UNL     1       3.034   8.292  17.420  0.00  0.00    +0.000 A 
BRANCH  14  20
ATOM     20  C   UNL     1       4.381   6.114  17.749  0.00  0.00    +0.000 C 
BRANCH  20  21
ATOM     21  C   UNL     1       5.511   6.498  16.767  0.00  0.00    +0.000 C 
BRANCH  21  23
ATOM     22  C   UNL     1       7.492   5.944  18.348  0.00  0.00    +0.000 C 
ATOM     23  C   UNL     1       6.827   6.906  17.396  0.00  0.00    +0.000 C 
ATOM     24  O   UNL     1       7.390   7.949  17.058  0.00  0.00    +0.000 OA
ENDBRANCH  21  23
ENDBRANCH  20  21
ENDBRANCH  14  20
ENDBRANCH   1  17
BRANCH   3  25
ATOM     25  C   UNL     1      -0.940  10.573  22.840  0.00  0.00    +0.000 C 
ATOM     26  N   UNL     1      -0.465   9.566  23.615  0.00  0.00    +0.000 N 
ATOM     27  O   UNL     1      -1.716  11.401  23.335  0.00  0.00    +0.000 OA
ATOM     28  H   UNL     1       0.146   8.856  23.217  0.00  0.00    +0.000 HD
ATOM     29  H   UNL     1      -0.793   9.507  24.560  0.00  0.00    +0.000 HD
ENDBRANCH   3  25
BRANCH   8  30
ATOM     30  N   UNL     1      -0.982  16.543  18.720  0.00  0.00    +0.000 N 
ATOM     31  H   UNL     1      -1.581  16.874  17.963  0.00  0.00    +0.000 HD
BRANCH  30  32
ATOM     32  S   UNL     1      -1.256  17.288  20.170  0.00  0.00    +0.000 S 
ATOM     33  C   UNL     1      -2.960  17.835  20.285  0.00  0.00    +0.000 C 
ATOM     34  O   UNL     1      -1.047  16.312  21.224  0.00  0.00    +0.000 OA
ATOM     35  O   UNL     1      -0.445  18.503  20.142  0.00  0.00    +0.000 OA
ENDBRANCH  30  32
ENDBRANCH   8  30
TORSDOF 7
ENDMDL
MODEL 7
REMARK VINA RESULT:      -7.0      2.377      2.655
REMARK  Name = 
REMARK  9 active torsions:
REMARK  status: ('A' for Active; 'I' for Inactive)
REMARK    1  A    between atoms: C_1  and  C_2
REMARK    2  A    between atoms: C_2  and  C_4
REMARK    3  A    between atoms: C_4  and  C_5
REMARK    4  A    between atoms: C_5  and  C_6
REMARK    5  A    between atoms: C_9  and  N_10
REMARK    6  A    between atoms: C_12  and  C_13
REMARK    7  A    between atoms: C_20  and  N_21
REMARK    8  A    between atoms: N_21  and  S_22
REMARK    9  A    between atoms: S_22  and  C_23
REMARK                            x       y       z     vdW  Elec       q    Type
REMARK                         _______ _______ _______ _____ _____    ______ ____
ROOT
ATOM      1  N   UNL     1      -0.273   9.656  19.982  0.00  0.00    +0.000 N 
ATOM      2  N   UNL     1      -0.143  10.249  21.263  0.00  0.00    +0.000 NA
ATOM      3  C   UNL     1      -0.581  11.501  21.055  0.00  0.00    +0.000 A 
ATOM      4  C   UNL     1      -1.174  11.539  19.796  0.00  0.00    +0.000 A 
ATOM      5  C   UNL     1      -1.538  10.225  19.447  0.00  0.00    +0.000 A 
ATOM      6  C   UNL     1      -2.472  10.227  18.211  0.00  0.00    +0.000 A 
ATOM      7  C   UNL     1      -3.921  10.365  18.326  0.00  0.00    +0.000 A 
ATOM      8  C   UNL     1      -4.757  10.931  17.282  0.00  0.00    +0.000 A 
ATOM      9  C   UNL     1      -4.164  11.304  16.085  0.00  0.00    +0.000 A 
ATOM     10  C   UNL     1      -2.776  11.300  15.984  0.00  0.00    +0.000 A 
ATOM     11  C   UNL     1      -1.983  10.954  17.102  0.00  0.00    +0.000 A 
ATOM     12  C   UNL     1      -0.859  11.956  17.435  0.00  0.00    +0.000 C 
ATOM     13  C   UNL     1      -1.253  12.634  18.794  0.00  0.00    +0.000 C 
ENDROOT
BRANCH   1  17
ATOM     14  C   UNL     1       3.205   7.423  18.302  0.00  0.00    +0.000 A 
ATOM     15  C   UNL     1       2.510   8.396  17.591  0.00  0.00    +0.000 A 
ATOM     16  C   UNL     1       1.408   9.101  18.182  0.00  0.00    +0.000 A 
ATOM     17  C   UNL     1       0.912   8.877  19.507  0.00  0.00    +0.000 A 
ATOM     18  C   UNL     1       1.569   7.853  20.192  0.00  0.00    +0.000 A 
ATOM     19  C   UNL     1       2.687   7.145  19.591  0.00  0.00    +0.000 A 
BRANCH  14  20
ATOM     20  C   UNL     1       4.370   6.613  17.708  0.00  0.00    +0.000 C 
BRANCH  20  21
ATOM     21  C   UNL     1       4.137   5.257  17.002  0.00  0.00    +0.000 C 
BRANCH  21  23
ATOM     22  C   UNL     1       1.975   3.974  17.643  0.00  0.00    +0.000 C 
ATOM     23  C   UNL     1       3.456   4.187  17.830  0.00  0.00    +0.000 C 
ATOM     24  O   UNL     1       4.115   3.441  18.557  0.00  0.00    +0.000 OA
ENDBRANCH  21  23
ENDBRANCH  20  21
ENDBRANCH  14  20
ENDBRANCH   1  17
BRANCH   3  25
ATOM     25  C   UNL     1      -0.402  12.671  21.925  0.00  0.00    +0.000 C 
ATOM     26  N   UNL     1      -1.342  12.918  22.872  0.00  0.00    +0.000 N 
ATOM     27  O   UNL     1       0.576  13.423  21.834  0.00  0.00    +0.000 OA
ATOM     28  H   UNL     1      -2.171  12.332  22.939  0.00  0.00    +0.000 HD
ATOM     29  H   UNL     1      -1.227  13.732  23.445  0.00  0.00    +0.000 HD
ENDBRANCH   3  25
BRANCH   8  30
ATOM     30  N   UNL     1      -6.053  11.521  17.526  0.00  0.00    +0.000 N 
ATOM     31  H   UNL     1      -6.779  11.433  16.813  0.00  0.00    +0.000 HD
BRANCH  30  32
ATOM     32  S   UNL     1      -6.561  12.253  18.917  0.00  0.00    +0.000 S 
ATOM     33  C   UNL     1      -6.985  11.028  20.156  0.00  0.00    +0.000 C 
ATOM     34  O   UNL     1      -5.456  13.032  19.446  0.00  0.00    +0.000 OA
ATOM     35  O   UNL     1      -7.813  12.922  18.570  0.00  0.00    +0.000 OA
ENDBRANCH  30  32
ENDBRANCH   8  30
TORSDOF 7
ENDMDL
MODEL 8
REMARK VINA RESULT:      -7.0      3.660      6.568
REMARK  Name = 
REMARK  9 active torsions:
REMARK  status: ('A' for Active; 'I' for Inactive)
REMARK    1  A    between atoms: C_1  and  C_2
REMARK    2  A    between atoms: C_2  and  C_4
REMARK    3  A    between atoms: C_4  and  C_5
REMARK    4  A    between atoms: C_5  and  C_6
REMARK    5  A    between atoms: C_9  and  N_10
REMARK    6  A    between atoms: C_12  and  C_13
REMARK    7  A    between atoms: C_20  and  N_21
REMARK    8  A    between atoms: N_21  and  S_22
REMARK    9  A    between atoms: S_22  and  C_23
REMARK                            x       y       z     vdW  Elec       q    Type
REMARK                         _______ _______ _______ _____ _____    ______ ____
ROOT
ATOM      1  N   UNL     1      -0.214  12.227  20.125  0.00  0.00    +0.000 N 
ATOM      2  N   UNL     1       0.263  10.930  20.440  0.00  0.00    +0.000 NA
ATOM      3  C   UNL     1      -0.211  10.734  21.681  0.00  0.00    +0.000 A 
ATOM      4  C   UNL     1      -1.124  11.749  21.951  0.00  0.00    +0.000 A 
ATOM      5  C   UNL     1      -1.575  12.267  20.723  0.00  0.00    +0.000 A 
ATOM      6  C   UNL     1      -2.811  13.177  20.933  0.00  0.00    +0.000 A 
ATOM      7  C   UNL     1      -4.173  12.652  20.962  0.00  0.00    +0.000 A 
ATOM      8  C   UNL     1      -5.260  13.285  21.687  0.00  0.00    +0.000 A 
ATOM      9  C   UNL     1      -5.015  14.486  22.337  0.00  0.00    +0.000 A 
ATOM     10  C   UNL     1      -3.707  14.952  22.434  0.00  0.00    +0.000 A 
ATOM     11  C   UNL     1      -2.641  14.190  21.904  0.00  0.00    +0.000 A 
ATOM     12  C   UNL     1      -1.465  13.958  22.875  0.00  0.00    +0.000 C 
ATOM     13  C   UNL     1      -1.471  12.429  23.227  0.00  0.00    +0.000 C 
ENDROOT
BRANCH   1  17
ATOM     14  C   UNL     1       2.963  14.785  18.317  0.00  0.00    +0.000 A 
ATOM     15  C   UNL     1       2.965  13.397  18.234  0.00  0.00    +0.000 A 
ATOM     16  C   UNL     1       1.910  12.617  18.817  0.00  0.00    +0.000 A 
ATOM     17  C   UNL     1       0.794  13.160  19.533  0.00  0.00    +0.000 A 
ATOM     18  C   UNL     1       0.831  14.549  19.671  0.00  0.00    +0.000 A 
ATOM     19  C   UNL     1       1.899  15.334  19.075  0.00  0.00    +0.000 A 
BRANCH  14  20
ATOM     20  C   UNL     1       4.084  15.668  17.741  0.00  0.00    +0.000 C 
BRANCH  20  21
ATOM     21  C   UNL     1       5.524  15.614  18.301  0.00  0.00    +0.000 C 
BRANCH  21  23
ATOM     22  C   UNL     1       7.550  17.217  18.542  0.00  0.00    +0.000 C 
ATOM     23  C   UNL     1       6.092  16.928  18.797  0.00  0.00    +0.000 C 
ATOM     24  O   UNL     1       5.358  17.780  19.302  0.00  0.00    +0.000 OA
ENDBRANCH  21  23
ENDBRANCH  20  21
ENDBRANCH  14  20
ENDBRANCH   1  17
BRANCH   3  25
ATOM     25  C   UNL     1       0.203   9.709  22.649  0.00  0.00    +0.000 C 
ATOM     26  N   UNL     1      -0.759   8.954  23.236  0.00  0.00    +0.000 N 
ATOM     27  O   UNL     1       1.389   9.504  22.933  0.00  0.00    +0.000 OA
ATOM     28  H   UNL     1      -1.742   9.131  23.043  0.00  0.00    +0.000 HD
ATOM     29  H   UNL     1      -0.472   8.274  23.915  0.00  0.00    +0.000 HD
ENDBRANCH   3  25
BRANCH   8  30
ATOM     30  N   UNL     1      -6.438  12.581  22.139  0.00  0.00    +0.000 N 
ATOM     31  H   UNL     1      -7.034  12.120  21.449  0.00  0.00    +0.000 HD
BRANCH  30  32
ATOM     32  S   UNL     1      -6.899  12.324  23.705  0.00  0.00    +0.000 S 
ATOM     33  C   UNL     1      -7.752  13.762  24.354  0.00  0.00    +0.000 C 
ATOM     34  O   UNL     1      -7.844  11.222  23.721  0.00  0.00    +0.000 OA
ATOM     35  O   UNL     1      -5.656  12.219  24.464  0.00  0.00    +0.000 OA
ENDBRANCH  30  32
ENDBRANCH   8  30
TORSDOF 7
ENDMDL
MODEL 9
REMARK VINA RESULT:      -7.0      1.381      1.394
REMARK  Name = 
REMARK  9 active torsions:
REMARK  status: ('A' for Active; 'I' for Inactive)
REMARK    1  A    between atoms: C_1  and  C_2
REMARK    2  A    between atoms: C_2  and  C_4
REMARK    3  A    between atoms: C_4  and  C_5
REMARK    4  A    between atoms: C_5  and  C_6
REMARK    5  A    between atoms: C_9  and  N_10
REMARK    6  A    between atoms: C_12  and  C_13
REMARK    7  A    between atoms: C_20  and  N_21
REMARK    8  A    between atoms: N_21  and  S_22
REMARK    9  A    between atoms: S_22  and  C_23
REMARK                            x       y       z     vdW  Elec       q    Type
REMARK                         _______ _______ _______ _____ _____    ______ ____
ROOT
ATOM      1  N   UNL     1       0.764  11.106  19.963  0.00  0.00    +0.000 N 
ATOM      2  N   UNL     1       1.754  12.119  20.020  0.00  0.00    +0.000 NA
ATOM      3  C   UNL     1       1.259  13.063  19.203  0.00  0.00    +0.000 A 
ATOM      4  C   UNL     1      -0.058  12.721  18.909  0.00  0.00    +0.000 A 
ATOM      5  C   UNL     1      -0.519  11.857  19.919  0.00  0.00    +0.000 A 
ATOM      6  C   UNL     1      -2.056  11.681  19.831  0.00  0.00    +0.000 A 
ATOM      7  C   UNL     1      -2.986  12.594  20.489  0.00  0.00    +0.000 A 
ATOM      8  C   UNL     1      -4.335  12.843  20.013  0.00  0.00    +0.000 A 
ATOM      9  C   UNL     1      -4.794  12.134  18.914  0.00  0.00    +0.000 A 
ATOM     10  C   UNL     1      -3.900  11.349  18.190  0.00  0.00    +0.000 A 
ATOM     11  C   UNL     1      -2.535  11.308  18.555  0.00  0.00    +0.000 A 
ATOM     12  C   UNL     1      -1.547  11.559  17.398  0.00  0.00    +0.000 C 
ATOM     13  C   UNL     1      -0.868  12.945  17.683  0.00  0.00    +0.000 C 
ENDROOT
BRANCH   1  17
ATOM     14  C   UNL     1       2.267   7.003  19.064  0.00  0.00    +0.000 A 
ATOM     15  C   UNL     1       2.183   8.009  18.107  0.00  0.00    +0.000 A 
ATOM     16  C   UNL     1       1.710   9.320  18.449  0.00  0.00    +0.000 A 
ATOM     17  C   UNL     1       1.273   9.715  19.755  0.00  0.00    +0.000 A 
ATOM     18  C   UNL     1       1.295   8.684  20.696  0.00  0.00    +0.000 A 
ATOM     19  C   UNL     1       1.780   7.359  20.346  0.00  0.00    +0.000 A 
BRANCH  14  20
ATOM     20  C   UNL     1       2.734   5.571  18.747  0.00  0.00    +0.000 C 
BRANCH  20  21
ATOM     21  C   UNL     1       1.825   4.571  17.995  0.00  0.00    +0.000 C 
BRANCH  21  23
ATOM     22  C   UNL     1       1.002   3.747  20.313  0.00  0.00    +0.000 C 
ATOM     23  C   UNL     1       1.192   3.485  18.840  0.00  0.00    +0.000 C 
ATOM     24  O   UNL     1       0.750   2.460  18.319  0.00  0.00    +0.000 OA
ENDBRANCH  21  23
ENDBRANCH  20  21
ENDBRANCH  14  20
ENDBRANCH   1  17
BRANCH   3  25
ATOM     25  C   UNL     1       1.969  14.210  18.621  0.00  0.00    +0.000 C 
ATOM     26  N   UNL     1       2.976  13.966  17.745  0.00  0.00    +0.000 N 
ATOM     27  O   UNL     1       1.672  15.380  18.889  0.00  0.00    +0.000 OA
ATOM     28  H   UNL     1       3.258  13.010  17.539  0.00  0.00    +0.000 HD
ATOM     29  H   UNL     1       3.473  14.752  17.372  0.00  0.00    +0.000 HD
ENDBRANCH   3  25
BRANCH   8  30
ATOM     30  N   UNL     1      -5.082  14.044  20.315  0.00  0.00    +0.000 N 
ATOM     31  H   UNL     1      -4.573  14.897  20.549  0.00  0.00    +0.000 HD
BRANCH  30  32
ATOM     32  S   UNL     1      -6.719  14.243  20.212  0.00  0.00    +0.000 S 
ATOM     33  C   UNL     1      -7.240  15.676  21.157  0.00  0.00    +0.000 C 
ATOM     34  O   UNL     1      -7.055  14.502  18.823  0.00  0.00    +0.000 OA
ATOM     35  O   UNL     1      -7.295  13.085  20.890  0.00  0.00    +0.000 OA
ENDBRANCH  30  32
ENDBRANCH   8  30
TORSDOF 7
ENDMDL
