MODEL 1
REMARK VINA RESULT:      -6.8      0.000      0.000
REMARK  Name = 
REMARK  5 active torsions:
REMARK  status: ('A' for Active; 'I' for Inactive)
REMARK    1  A    between atoms: C_2  and  O_3
REMARK    2  A    between atoms: C_2  and  C_4
REMARK    3  A    between atoms: C_4  and  O_5
REMARK    4  A    between atoms: C_6  and  C_7
REMARK    5  A    between atoms: C_7  and  C_9
REMARK                            x       y       z     vdW  Elec       q    Type
REMARK                         _______ _______ _______ _____ _____    ______ ____
ROOT
ATOM      1  C   UNL     1       4.247   4.732  18.032  0.00  0.00    +0.000 C 
ATOM      2  O   UNL     1       4.206   4.525  16.829  0.00  0.00    +0.000 OA
ENDROOT
BRANCH   1   3
ATOM      3  C   UNL     1       3.169   4.231  18.940  0.00  0.00    +0.000 A 
ATOM      4  C   UNL     1       2.479   5.156  19.749  0.00  0.00    +0.000 A 
ATOM      5  C   UNL     1       1.461   4.740  20.610  0.00  0.00    +0.000 A 
ATOM      6  C   UNL     1       1.128   3.393  20.693  0.00  0.00    +0.000 A 
ATOM      7  C   UNL     1       1.820   2.461  19.921  0.00  0.00    +0.000 A 
ATOM      8  C   UNL     1       2.842   2.868  19.051  0.00  0.00    +0.000 A 
ATOM      9 CL   UNL     1       3.601   1.613  18.136  0.00  0.00    +0.000 Cl
ENDBRANCH   1   3
BRANCH   1  11
ATOM     10  C   UNL     1       6.641   5.136  18.621  0.00  0.00    +0.000 C 
ATOM     11  C   UNL     1       5.354   5.522  18.663  0.00  0.00    +0.000 C 
BRANCH  10  13
ATOM     12  O   UNL     1       8.220   6.874  18.788  0.00  0.00    +0.000 OA
ATOM     13  C   UNL     1       7.738   5.873  19.307  0.00  0.00    +0.000 C 
BRANCH  13  14
ATOM     14  O   UNL     1       8.146   5.404  20.502  0.00  0.00    +0.000 OA
ATOM     15  H   UNL     1       9.074   5.581  20.733  0.00  0.00    +0.000 HD
ENDBRANCH  13  14
ENDBRANCH  10  13
BRANCH  10  16
ATOM     16  O   UNL     1       7.019   3.940  18.028  0.00  0.00    +0.000 OA
ATOM     17  H   UNL     1       6.202   3.546  17.654  0.00  0.00    +0.000 HD
ENDBRANCH  10  16
ENDBRANCH   1  11
TORSDOF 5
ENDMDL
MODEL 2
REMARK VINA RESULT:      -6.8      1.897      2.714
REMARK  Name = 
REMARK  5 active torsions:
REMARK  status: ('A' for Active; 'I' for Inactive)
REMARK    1  A    between atoms: C_2  and  O_3
REMARK    2  A    between atoms: C_2  and  C_4
REMARK    3  A    between atoms: C_4  and  O_5
REMARK    4  A    between atoms: C_6  and  C_7
REMARK    5  A    between atoms: C_7  and  C_9
REMARK                            x       y       z     vdW  Elec       q    Type
REMARK                         _______ _______ _______ _____ _____    ______ ____
ROOT
ATOM      1  C   UNL     1       5.218   4.292  18.622  0.00  0.00    +0.000 C 
ATOM      2  O   UNL     1       6.158   4.301  19.401  0.00  0.00    +0.000 OA
ENDROOT
BRANCH   1   3
ATOM      3  C   UNL     1       3.808   4.190  19.111  0.00  0.00    +0.000 A 
ATOM      4  C   UNL     1       3.247   5.285  19.797  0.00  0.00    +0.000 A 
ATOM      5  C   UNL     1       1.934   5.242  20.270  0.00  0.00    +0.000 A 
ATOM      6  C   UNL     1       1.165   4.100  20.083  0.00  0.00    +0.000 A 
ATOM      7  C   UNL     1       1.714   2.996  19.431  0.00  0.00    +0.000 A 
ATOM      8  C   UNL     1       3.031   3.030  18.950  0.00  0.00    +0.000 A 
ATOM      9 CL   UNL     1       3.577   1.603  18.141  0.00  0.00    +0.000 Cl
ENDBRANCH   1   3
BRANCH   1  11
ATOM     10  C   UNL     1       6.635   4.342  16.564  0.00  0.00    +0.000 C 
ATOM     11  C   UNL     1       5.419   4.352  17.137  0.00  0.00    +0.000 C 
BRANCH  10  13
ATOM     12  O   UNL     1       7.530   5.396  14.658  0.00  0.00    +0.000 OA
ATOM     13  C   UNL     1       6.848   4.475  15.096  0.00  0.00    +0.000 C 
BRANCH  13  14
ATOM     14  O   UNL     1       6.285   3.545  14.302  0.00  0.00    +0.000 OA
ATOM     15  H   UNL     1       6.010   2.722  14.741  0.00  0.00    +0.000 HD
ENDBRANCH  13  14
ENDBRANCH  10  13
BRANCH  10  16
ATOM     16  O   UNL     1       7.794   4.330  17.326  0.00  0.00    +0.000 OA
ATOM     17  H   UNL     1       8.195   5.221  17.234  0.00  0.00    +0.000 HD
ENDBRANCH  10  16
ENDBRANCH   1  11
TORSDOF 5
ENDMDL
MODEL 3
REMARK VINA RESULT:      -6.7      2.221      2.992
REMARK  Name = 
REMARK  5 active torsions:
REMARK  status: ('A' for Active; 'I' for Inactive)
REMARK    1  A    between atoms: C_2  and  O_3
REMARK    2  A    between atoms: C_2  and  C_4
REMARK    3  A    between atoms: C_4  and  O_5
REMARK    4  A    between atoms: C_6  and  C_7
REMARK    5  A    between atoms: C_7  and  C_9
REMARK                            x       y       z     vdW  Elec       q    Type
REMARK                         _______ _______ _______ _____ _____    ______ ____
ROOT
ATOM      1  C   UNL     1       5.167   4.212  18.202  0.00  0.00    +0.000 C 
ATOM      2  O   UNL     1       5.995   4.417  19.076  0.00  0.00    +0.000 OA
ENDROOT
BRANCH   1   3
ATOM      3  C   UNL     1       3.787   3.742  18.538  0.00  0.00    +0.000 A 
ATOM      4  C   UNL     1       2.688   4.360  17.908  0.00  0.00    +0.000 A 
ATOM      5  C   UNL     1       1.380   3.955  18.184  0.00  0.00    +0.000 A 
ATOM      6  C   UNL     1       1.146   2.940  19.104  0.00  0.00    +0.000 A 
ATOM      7  C   UNL     1       2.221   2.337  19.757  0.00  0.00    +0.000 A 
ATOM      8  C   UNL     1       3.538   2.735  19.486  0.00  0.00    +0.000 A 
ATOM      9 CL   UNL     1       4.776   1.890  20.348  0.00  0.00    +0.000 Cl
ENDBRANCH   1   3
BRANCH   1  11
ATOM     10  C   UNL     1       6.742   4.329  16.266  0.00  0.00    +0.000 C 
ATOM     11  C   UNL     1       5.489   4.389  16.747  0.00  0.00    +0.000 C 
BRANCH  10  13
ATOM     12  O   UNL     1       7.806   5.517  14.534  0.00  0.00    +0.000 OA
ATOM     13  C   UNL     1       7.081   4.575  14.836  0.00  0.00    +0.000 C 
BRANCH  13  14
ATOM     14  O   UNL     1       6.579   3.720  13.925  0.00  0.00    +0.000 OA
ATOM     15  H   UNL     1       6.715   2.775  14.110  0.00  0.00    +0.000 HD
ENDBRANCH  13  14
ENDBRANCH  10  13
BRANCH  10  16
ATOM     16  O   UNL     1       7.833   4.152  17.104  0.00  0.00    +0.000 OA
ATOM     17  H   UNL     1       7.914   4.975  17.632  0.00  0.00    +0.000 HD
ENDBRANCH  10  16
ENDBRANCH   1  11
TORSDOF 5
ENDMDL
MODEL 4
REMARK VINA RESULT:      -6.7      2.471      3.407
REMARK  Name = 
REMARK  5 active torsions:
REMARK  status: ('A' for Active; 'I' for Inactive)
REMARK    1  A    between atoms: C_2  and  O_3
REMARK    2  A    between atoms: C_2  and  C_4
REMARK    3  A    between atoms: C_4  and  O_5
REMARK    4  A    between atoms: C_6  and  C_7
REMARK    5  A    between atoms: C_7  and  C_9
REMARK                            x       y       z     vdW  Elec       q    Type
REMARK                         _______ _______ _______ _____ _____    ______ ____
ROOT
ATOM      1  C   UNL     1       5.111   4.063  18.139  0.00  0.00    +0.000 C 
ATOM      2  O   UNL     1       5.981   4.209  18.983  0.00  0.00    +0.000 OA
ENDROOT
BRANCH   1   3
ATOM      3  C   UNL     1       3.713   3.695  18.525  0.00  0.00    +0.000 A 
ATOM      4  C   UNL     1       3.317   2.346  18.435  0.00  0.00    +0.000 A 
ATOM      5  C   UNL     1       2.026   1.949  18.787  0.00  0.00    +0.000 A 
ATOM      6  C   UNL     1       1.102   2.894  19.218  0.00  0.00    +0.000 A 
ATOM      7  C   UNL     1       1.468   4.238  19.286  0.00  0.00    +0.000 A 
ATOM      8  C   UNL     1       2.763   4.646  18.936  0.00  0.00    +0.000 A 
ATOM      9 CL   UNL     1       3.090   6.337  19.089  0.00  0.00    +0.000 Cl
ENDBRANCH   1   3
BRANCH   1  11
ATOM     10  C   UNL     1       6.640   4.269  16.174  0.00  0.00    +0.000 C 
ATOM     11  C   UNL     1       5.394   4.212  16.674  0.00  0.00    +0.000 C 
BRANCH  10  13
ATOM     12  O   UNL     1       7.620   5.446  14.385  0.00  0.00    +0.000 OA
ATOM     13  C   UNL     1       6.933   4.491  14.730  0.00  0.00    +0.000 C 
BRANCH  13  14
ATOM     14  O   UNL     1       6.433   3.599  13.854  0.00  0.00    +0.000 OA
ATOM     15  H   UNL     1       6.186   2.734  14.223  0.00  0.00    +0.000 HD
ENDBRANCH  13  14
ENDBRANCH  10  13
BRANCH  10  16
ATOM     16  O   UNL     1       7.754   4.250  17.001  0.00  0.00    +0.000 OA
ATOM     17  H   UNL     1       7.534   4.811  17.775  0.00  0.00    +0.000 HD
ENDBRANCH  10  16
ENDBRANCH   1  11
TORSDOF 5
ENDMDL
MODEL 5
REMARK VINA RESULT:      -6.7      2.983      3.907
REMARK  Name = 
REMARK  5 active torsions:
REMARK  status: ('A' for Active; 'I' for Inactive)
REMARK    1  A    between atoms: C_2  and  O_3
REMARK    2  A    between atoms: C_2  and  C_4
REMARK    3  A    between atoms: C_4  and  O_5
REMARK    4  A    between atoms: C_6  and  C_7
REMARK    5  A    between atoms: C_7  and  C_9
REMARK                            x       y       z     vdW  Elec       q    Type
REMARK                         _______ _______ _______ _____ _____    ______ ____
ROOT
ATOM      1  C   UNL     1       5.618   4.176  17.415  0.00  0.00    +0.000 C 
ATOM      2  O   UNL     1       6.407   4.356  18.329  0.00  0.00    +0.000 OA
ENDROOT
BRANCH   1   3
ATOM      3  C   UNL     1       4.155   4.006  17.678  0.00  0.00    +0.000 A 
ATOM      4  C   UNL     1       3.636   2.701  17.801  0.00  0.00    +0.000 A 
ATOM      5  C   UNL     1       2.278   2.488  18.051  0.00  0.00    +0.000 A 
ATOM      6  C   UNL     1       1.414   3.570  18.164  0.00  0.00    +0.000 A 
ATOM      7  C   UNL     1       1.906   4.866  18.016  0.00  0.00    +0.000 A 
ATOM      8  C   UNL     1       3.268   5.092  17.768  0.00  0.00    +0.000 A 
ATOM      9 CL   UNL     1       3.747   6.747  17.629  0.00  0.00    +0.000 Cl
ENDBRANCH   1   3
BRANCH   1  11
ATOM     10  C   UNL     1       6.894   4.983  15.424  0.00  0.00    +0.000 C 
ATOM     11  C   UNL     1       6.066   4.086  15.987  0.00  0.00    +0.000 C 
BRANCH  10  13
ATOM     12  O   UNL     1       8.190   5.668  13.581  0.00  0.00    +0.000 OA
ATOM     13  C   UNL     1       7.287   4.945  13.988  0.00  0.00    +0.000 C 
BRANCH  13  14
ATOM     14  O   UNL     1       6.628   4.084  13.189  0.00  0.00    +0.000 OA
ATOM     15  H   UNL     1       5.978   4.480  12.583  0.00  0.00    +0.000 HD
ENDBRANCH  13  14
ENDBRANCH  10  13
BRANCH  10  16
ATOM     16  O   UNL     1       7.345   6.091  16.125  0.00  0.00    +0.000 OA
ATOM     17  H   UNL     1       7.093   5.948  17.063  0.00  0.00    +0.000 HD
ENDBRANCH  10  16
ENDBRANCH   1  11
TORSDOF 5
ENDMDL
MODEL 6
REMARK VINA RESULT:      -6.6      1.802      2.370
REMARK  Name = 
REMARK  5 active torsions:
REMARK  status: ('A' for Active; 'I' for Inactive)
REMARK    1  A    between atoms: C_2  and  O_3
REMARK    2  A    between atoms: C_2  and  C_4
REMARK    3  A    between atoms: C_4  and  O_5
REMARK    4  A    between atoms: C_6  and  C_7
REMARK    5  A    between atoms: C_7  and  C_9
REMARK                            x       y       z     vdW  Elec       q    Type
REMARK                         _______ _______ _______ _____ _____    ______ ____
ROOT
ATOM      1  C   UNL     1       4.866   4.833  17.081  0.00  0.00    +0.000 C 
ATOM      2  O   UNL     1       5.121   4.877  15.888  0.00  0.00    +0.000 OA
ENDROOT
BRANCH   1   3
ATOM      3  C   UNL     1       3.661   4.106  17.589  0.00  0.00    +0.000 A 
ATOM      4  C   UNL     1       3.674   2.697  17.602  0.00  0.00    +0.000 A 
ATOM      5  C   UNL     1       2.577   1.971  18.070  0.00  0.00    +0.000 A 
ATOM      6  C   UNL     1       1.442   2.638  18.517  0.00  0.00    +0.000 A 
ATOM      7  C   UNL     1       1.401   4.032  18.484  0.00  0.00    +0.000 A 
ATOM      8  C   UNL     1       2.499   4.770  18.018  0.00  0.00    +0.000 A 
ATOM      9 CL   UNL     1       2.324   6.490  18.054  0.00  0.00    +0.000 Cl
ENDBRANCH   1   3
BRANCH   1  11
ATOM     10  C   UNL     1       7.000   5.184  18.332  0.00  0.00    +0.000 C 
ATOM     11  C   UNL     1       5.721   5.525  18.100  0.00  0.00    +0.000 C 
BRANCH  10  13
ATOM     12  O   UNL     1       7.936   5.278  20.490  0.00  0.00    +0.000 OA
ATOM     13  C   UNL     1       7.836   5.814  19.392  0.00  0.00    +0.000 C 
BRANCH  13  14
ATOM     14  O   UNL     1       8.471   6.960  19.080  0.00  0.00    +0.000 OA
ATOM     15  H   UNL     1       9.318   7.113  19.533  0.00  0.00    +0.000 HD
ENDBRANCH  13  14
ENDBRANCH  10  13
BRANCH  10  16
ATOM     16  O   UNL     1       7.597   4.121  17.670  0.00  0.00    +0.000 OA
ATOM     17  H   UNL     1       6.913   3.422  17.594  0.00  0.00    +0.000 HD
ENDBRANCH  10  16
ENDBRANCH   1  11
TORSDOF 5
ENDMDL
MODEL 7
REMARK VINA RESULT:      -6.5      1.828      2.655
REMARK  Name = 
REMARK  5 active torsions:
REMARK  status: ('A' for Active; 'I' for Inactive)
REMARK    1  A    between atoms: C_2  and  O_3
REMARK    2  A    between atoms: C_2  and  C_4
REMARK    3  A    between atoms: C_4  and  O_5
REMARK    4  A    between atoms: C_6  and  C_7
REMARK    5  A    between atoms: C_7  and  C_9
REMARK                            x       y       z     vdW  Elec       q    Type
REMARK                         _______ _______ _______ _____ _____    ______ ____
ROOT
ATOM      1  C   UNL     1       4.840   4.378  18.868  0.00  0.00    +0.000 C 
ATOM      2  O   UNL     1       5.789   3.876  19.450  0.00  0.00    +0.000 OA
ENDROOT
BRANCH   1   3
ATOM      3  C   UNL     1       3.435   4.119  19.313  0.00  0.00    +0.000 A 
ATOM      4  C   UNL     1       2.799   5.070  20.136  0.00  0.00    +0.000 A 
ATOM      5  C   UNL     1       1.487   4.878  20.575  0.00  0.00    +0.000 A 
ATOM      6  C   UNL     1       0.794   3.729  20.215  0.00  0.00    +0.000 A 
ATOM      7  C   UNL     1       1.419   2.764  19.424  0.00  0.00    +0.000 A 
ATOM      8  C   UNL     1       2.735   2.948  18.976  0.00  0.00    +0.000 A 
ATOM      9 CL   UNL     1       3.379   1.686  17.985  0.00  0.00    +0.000 Cl
ENDBRANCH   1   3
BRANCH   1  11
ATOM     10  C   UNL     1       5.540   4.800  16.507  0.00  0.00    +0.000 C 
ATOM     11  C   UNL     1       5.020   5.251  17.662  0.00  0.00    +0.000 C 
BRANCH  10  13
ATOM     12  O   UNL     1       6.599   5.329  14.472  0.00  0.00    +0.000 OA
ATOM     13  C   UNL     1       5.792   5.675  15.328  0.00  0.00    +0.000 C 
BRANCH  13  14
ATOM     14  O   UNL     1       5.091   6.822  15.248  0.00  0.00    +0.000 OA
ATOM     15  H   UNL     1       5.114   7.389  16.038  0.00  0.00    +0.000 HD
ENDBRANCH  13  14
ENDBRANCH  10  13
BRANCH  10  16
ATOM     16  O   UNL     1       5.996   3.497  16.378  0.00  0.00    +0.000 OA
ATOM     17  H   UNL     1       6.502   3.462  15.538  0.00  0.00    +0.000 HD
ENDBRANCH  10  16
ENDBRANCH   1  11
TORSDOF 5
ENDMDL
MODEL 8
REMARK VINA RESULT:      -6.5      3.000      3.879
REMARK  Name = 
REMARK  5 active torsions:
REMARK  status: ('A' for Active; 'I' for Inactive)
REMARK    1  A    between atoms: C_2  and  O_3
REMARK    2  A    between atoms: C_2  and  C_4
REMARK    3  A    between atoms: C_4  and  O_5
REMARK    4  A    between atoms: C_6  and  C_7
REMARK    5  A    between atoms: C_7  and  C_9
REMARK                            x       y       z     vdW  Elec       q    Type
REMARK                         _______ _______ _______ _____ _____    ______ ____
ROOT
ATOM      1  C   UNL     1       4.981   5.394  17.153  0.00  0.00    +0.000 C 
ATOM      2  O   UNL     1       5.568   6.091  17.967  0.00  0.00    +0.000 OA
ENDROOT
BRANCH   1   3
ATOM      3  C   UNL     1       3.789   4.581  17.548  0.00  0.00    +0.000 A 
ATOM      4  C   UNL     1       3.851   3.179  17.419  0.00  0.00    +0.000 A 
ATOM      5  C   UNL     1       2.767   2.375  17.777  0.00  0.00    +0.000 A 
ATOM      6  C   UNL     1       1.598   2.956  18.253  0.00  0.00    +0.000 A 
ATOM      7  C   UNL     1       1.509   4.343  18.360  0.00  0.00    +0.000 A 
ATOM      8  C   UNL     1       2.592   5.160  18.005  0.00  0.00    +0.000 A 
ATOM      9 CL   UNL     1       2.356   6.861  18.208  0.00  0.00    +0.000 Cl
ENDBRANCH   1   3
BRANCH   1  11
ATOM     10  C   UNL     1       6.672   4.888  15.385  0.00  0.00    +0.000 C 
ATOM     11  C   UNL     1       5.435   5.287  15.728  0.00  0.00    +0.000 C 
BRANCH  10  13
ATOM     12  O   UNL     1       6.603   4.120  13.160  0.00  0.00    +0.000 OA
ATOM     13  C   UNL     1       7.156   4.848  13.977  0.00  0.00    +0.000 C 
BRANCH  13  14
ATOM     14  O   UNL     1       8.192   5.648  13.656  0.00  0.00    +0.000 OA
ATOM     15  H   UNL     1       8.928   5.663  14.292  0.00  0.00    +0.000 HD
ENDBRANCH  13  14
ENDBRANCH  10  13
BRANCH  10  16
ATOM     16  O   UNL     1       7.632   4.600  16.343  0.00  0.00    +0.000 OA
ATOM     17  H   UNL     1       8.094   3.790  16.038  0.00  0.00    +0.000 HD
ENDBRANCH  10  16
ENDBRANCH   1  11
TORSDOF 5
ENDMDL
MODEL 9
REMARK VINA RESULT:      -6.4      2.424      3.032
REMARK  Name = 
REMARK  5 active torsions:
REMARK  status: ('A' for Active; 'I' for Inactive)
REMARK    1  A    between atoms: C_2  and  O_3
REMARK    2  A    between atoms: C_2  and  C_4
REMARK    3  A    between atoms: C_4  and  O_5
REMARK    4  A    between atoms: C_6  and  C_7
REMARK    5  A    between atoms: C_7  and  C_9
REMARK                            x       y       z     vdW  Elec       q    Type
REMARK                         _______ _______ _______ _____ _____    ______ ____
ROOT
ATOM      1  C   UNL     1       3.734   5.621  17.745  0.00  0.00    +0.000 C 
ATOM      2  O   UNL     1       3.425   6.796  17.623  0.00  0.00    +0.000 OA
ENDROOT
BRANCH   1   3
ATOM      3  C   UNL     1       2.778   4.625  18.319  0.00  0.00    +0.000 A 
ATOM      4  C   UNL     1       2.628   3.380  17.676  0.00  0.00    +0.000 A 
ATOM      5  C   UNL     1       1.751   2.413  18.174  0.00  0.00    +0.000 A 
ATOM      6  C   UNL     1       0.997   2.679  19.311  0.00  0.00    +0.000 A 
ATOM      7  C   UNL     1       1.112   3.916  19.943  0.00  0.00    +0.000 A 
ATOM      8  C   UNL     1       1.991   4.893  19.453  0.00  0.00    +0.000 A 
ATOM      9 CL   UNL     1       2.052   6.372  20.345  0.00  0.00    +0.000 Cl
ENDBRANCH   1   3
BRANCH   1  11
ATOM     10  C   UNL     1       5.807   5.641  16.350  0.00  0.00    +0.000 C 
ATOM     11  C   UNL     1       5.092   5.115  17.360  0.00  0.00    +0.000 C 
BRANCH  10  13
ATOM     12  O   UNL     1       7.513   5.292  14.765  0.00  0.00    +0.000 OA
ATOM     13  C   UNL     1       7.123   5.099  15.912  0.00  0.00    +0.000 C 
BRANCH  13  14
ATOM     14  O   UNL     1       7.848   4.422  16.823  0.00  0.00    +0.000 OA
ATOM     15  H   UNL     1       8.460   3.754  16.467  0.00  0.00    +0.000 HD
ENDBRANCH  13  14
ENDBRANCH  10  13
BRANCH  10  16
ATOM     16  O   UNL     1       5.301   6.662  15.560  0.00  0.00    +0.000 OA
ATOM     17  H   UNL     1       4.850   6.230  14.804  0.00  0.00    +0.000 HD
ENDBRANCH  10  16
ENDBRANCH   1  11
TORSDOF 5
ENDMDL
