MODEL 1
REMARK VINA RESULT:      -7.9      0.000      0.000
REMARK  Name = 
REMARK  8 active torsions:
REMARK  status: ('A' for Active; 'I' for Inactive)
REMARK    1  A    between atoms: C_1  and  C_2
REMARK    2  A    between atoms: C_2  and  O_3
REMARK    3  A    between atoms: O_3  and  C_4
REMARK    4  A    between atoms: C_4  and  C_6
REMARK    5  A    between atoms: N_10  and  C_11
REMARK    6  A    between atoms: C_11  and  C_12
REMARK    7  A    between atoms: N_14  and  C_15
REMARK    8  A    between atoms: C_17  and  C_18
REMARK                            x       y       z     vdW  Elec       q    Type
REMARK                         _______ _______ _______ _____ _____    ______ ____
ROOT
ATOM      1  C   UNL     1       2.240   5.326  20.400  0.00  0.00    +0.000 C 
ATOM      2  O   UNL     1       1.029   5.197  20.573  0.00  0.00    +0.000 OA
ATOM      3  N   UNL     1       2.873   6.548  20.198  0.00  0.00    +0.000 N 
ATOM      4  H   UNL     1       3.714   6.570  19.625  0.00  0.00    +0.000 HD
ENDROOT
BRANCH   3   5
ATOM      5  C   UNL     1       2.096   7.736  20.150  0.00  0.00    +0.000 A 
ATOM      6  C   UNL     1       1.385   8.156  21.280  0.00  0.00    +0.000 A 
ATOM      7  C   UNL     1       0.451   9.196  21.197  0.00  0.00    +0.000 A 
ATOM      8  C   UNL     1       0.268   9.841  19.965  0.00  0.00    +0.000 A 
ATOM      9  C   UNL     1       1.031   9.477  18.850  0.00  0.00    +0.000 A 
ATOM     10  C   UNL     1       1.957   8.438  18.946  0.00  0.00    +0.000 A 
ATOM     11 CL   UNL     1       2.824   7.951  17.533  0.00  0.00    +0.000 Cl
BRANCH   7  12
ATOM     12  C   UNL     1      -0.390   9.566  22.398  0.00  0.00    +0.000 C 
ATOM     13  F   UNL     1      -1.274   8.594  22.757  0.00  0.00    +0.000 F 
ATOM     14  F   UNL     1       0.361   9.817  23.501  0.00  0.00    +0.000 F 
ATOM     15  F   UNL     1      -1.132  10.685  22.178  0.00  0.00    +0.000 F 
ENDBRANCH   7  12
ENDBRANCH   3   5
BRANCH   1  16
ATOM     16  C   UNL     1       3.134   4.113  20.308  0.00  0.00    +0.000 C 
BRANCH  16  21
ATOM     17  C   UNL     1       5.881   4.389  17.796  0.00  0.00    +0.000 A 
ATOM     18  C   UNL     1       5.233   4.115  16.597  0.00  0.00    +0.000 A 
ATOM     19  C   UNL     1       3.883   3.783  16.636  0.00  0.00    +0.000 A 
ATOM     20  C   UNL     1       3.211   3.772  17.857  0.00  0.00    +0.000 A 
ATOM     21  N   UNL     1       3.865   4.046  19.017  0.00  0.00    +0.000 N 
ATOM     22  C   UNL     1       5.190   4.319  18.997  0.00  0.00    +0.000 A 
BRANCH  17  23
ATOM     23  C   UNL     1       7.259   4.866  17.898  0.00  0.00    +0.000 C 
ATOM     24  O   UNL     1       8.204   4.094  17.816  0.00  0.00    +0.000 OA
BRANCH  23  25
ATOM     25  O   UNL     1       7.226   6.123  18.376  0.00  0.00    +0.000 OA
BRANCH  25  27
ATOM     26  C   UNL     1       8.056   8.325  17.845  0.00  0.00    +0.000 C 
ATOM     27  C   UNL     1       7.202   7.158  17.378  0.00  0.00    +0.000 C 
ENDBRANCH  25  27
ENDBRANCH  23  25
ENDBRANCH  17  23
ENDBRANCH  16  21
ENDBRANCH   1  16
TORSDOF 7
ENDMDL
MODEL 2
REMARK VINA RESULT:      -7.4      4.079      7.906
REMARK  Name = 
REMARK  8 active torsions:
REMARK  status: ('A' for Active; 'I' for Inactive)
REMARK    1  A    between atoms: C_1  and  C_2
REMARK    2  A    between atoms: C_2  and  O_3
REMARK    3  A    between atoms: O_3  and  C_4
REMARK    4  A    between atoms: C_4  and  C_6
REMARK    5  A    between atoms: N_10  and  C_11
REMARK    6  A    between atoms: C_11  and  C_12
REMARK    7  A    between atoms: N_14  and  C_15
REMARK    8  A    between atoms: C_17  and  C_18
REMARK                            x       y       z     vdW  Elec       q    Type
REMARK                         _______ _______ _______ _____ _____    ______ ____
ROOT
ATOM      1  C   UNL     1       2.356   7.964  18.522  0.00  0.00    +0.000 C 
ATOM      2  O   UNL     1       2.191   7.786  19.728  0.00  0.00    +0.000 OA
ATOM      3  N   UNL     1       2.851   6.999  17.651  0.00  0.00    +0.000 N 
ATOM      4  H   UNL     1       3.385   7.305  16.840  0.00  0.00    +0.000 HD
ENDROOT
BRANCH   3   5
ATOM      5  C   UNL     1       3.232   5.729  18.162  0.00  0.00    +0.000 A 
ATOM      6  C   UNL     1       2.260   4.856  18.665  0.00  0.00    +0.000 A 
ATOM      7  C   UNL     1       2.626   3.698  19.363  0.00  0.00    +0.000 A 
ATOM      8  C   UNL     1       3.989   3.405  19.514  0.00  0.00    +0.000 A 
ATOM      9  C   UNL     1       4.963   4.234  18.947  0.00  0.00    +0.000 A 
ATOM     10  C   UNL     1       4.586   5.385  18.256  0.00  0.00    +0.000 A 
ATOM     11 CL   UNL     1       5.811   6.436  17.641  0.00  0.00    +0.000 Cl
BRANCH   7  12
ATOM     12  C   UNL     1       1.569   2.822  19.997  0.00  0.00    +0.000 C 
ATOM     13  F   UNL     1       1.614   2.822  21.358  0.00  0.00    +0.000 F 
ATOM     14  F   UNL     1       0.309   3.203  19.662  0.00  0.00    +0.000 F 
ATOM     15  F   UNL     1       1.689   1.520  19.618  0.00  0.00    +0.000 F 
ENDBRANCH   7  12
ENDBRANCH   3   5
BRANCH   1  16
ATOM     16  C   UNL     1       2.102   9.319  17.906  0.00  0.00    +0.000 C 
BRANCH  16  21
ATOM     17  C   UNL     1      -1.482  10.319  18.202  0.00  0.00    +0.000 A 
ATOM     18  C   UNL     1      -1.459  11.252  19.233  0.00  0.00    +0.000 A 
ATOM     19  C   UNL     1      -0.248  11.507  19.867  0.00  0.00    +0.000 A 
ATOM     20  C   UNL     1       0.907  10.858  19.433  0.00  0.00    +0.000 A 
ATOM     21  N   UNL     1       0.861   9.951  18.422  0.00  0.00    +0.000 N 
ATOM     22  C   UNL     1      -0.320   9.656  17.832  0.00  0.00    +0.000 A 
BRANCH  17  23
ATOM     23  C   UNL     1      -2.650  10.038  17.370  0.00  0.00    +0.000 C 
ATOM     24  O   UNL     1      -3.598   9.399  17.805  0.00  0.00    +0.000 OA
BRANCH  23  25
ATOM     25  O   UNL     1      -2.325  10.320  16.095  0.00  0.00    +0.000 OA
BRANCH  25  27
ATOM     26  C   UNL     1      -2.966   9.919  13.805  0.00  0.00    +0.000 C 
ATOM     27  C   UNL     1      -3.431  10.375  15.178  0.00  0.00    +0.000 C 
ENDBRANCH  25  27
ENDBRANCH  23  25
ENDBRANCH  17  23
ENDBRANCH  16  21
ENDBRANCH   1  16
TORSDOF 7
ENDMDL
MODEL 3
REMARK VINA RESULT:      -7.4      4.371      8.070
REMARK  Name = 
REMARK  8 active torsions:
REMARK  status: ('A' for Active; 'I' for Inactive)
REMARK    1  A    between atoms: C_1  and  C_2
REMARK    2  A    between atoms: C_2  and  O_3
REMARK    3  A    between atoms: O_3  and  C_4
REMARK    4  A    between atoms: C_4  and  C_6
REMARK    5  A    between atoms: N_10  and  C_11
REMARK    6  A    between atoms: C_11  and  C_12
REMARK    7  A    between atoms: N_14  and  C_15
REMARK    8  A    between atoms: C_17  and  C_18
REMARK                            x       y       z     vdW  Elec       q    Type
REMARK                         _______ _______ _______ _____ _____    ______ ____
ROOT
ATOM      1  C   UNL     1       0.802   8.264  21.367  0.00  0.00    +0.000 C 
ATOM      2  O   UNL     1      -0.281   7.698  21.229  0.00  0.00    +0.000 OA
ATOM      3  N   UNL     1       1.999   7.804  20.826  0.00  0.00    +0.000 N 
ATOM      4  H   UNL     1       2.865   8.005  21.321  0.00  0.00    +0.000 HD
ENDROOT
BRANCH   3   5
ATOM      5  C   UNL     1       2.009   6.587  20.092  0.00  0.00    +0.000 A 
ATOM      6  C   UNL     1       1.817   5.368  20.753  0.00  0.00    +0.000 A 
ATOM      7  C   UNL     1       2.032   4.151  20.094  0.00  0.00    +0.000 A 
ATOM      8  C   UNL     1       2.404   4.174  18.743  0.00  0.00    +0.000 A 
ATOM      9  C   UNL     1       2.523   5.387  18.056  0.00  0.00    +0.000 A 
ATOM     10  C   UNL     1       2.308   6.592  18.724  0.00  0.00    +0.000 A 
ATOM     11 CL   UNL     1       2.546   8.078  17.876  0.00  0.00    +0.000 Cl
BRANCH   7  12
ATOM     12  C   UNL     1       1.930   2.845  20.849  0.00  0.00    +0.000 C 
ATOM     13  F   UNL     1       3.050   2.545  21.563  0.00  0.00    +0.000 F 
ATOM     14  F   UNL     1       0.904   2.838  21.739  0.00  0.00    +0.000 F 
ATOM     15  F   UNL     1       1.722   1.788  20.017  0.00  0.00    +0.000 F 
ENDBRANCH   7  12
ENDBRANCH   3   5
BRANCH   1  16
ATOM     16  C   UNL     1       0.919   9.495  22.235  0.00  0.00    +0.000 C 
BRANCH  16  21
ATOM     17  C   UNL     1      -1.401  11.891  20.559  0.00  0.00    +0.000 A 
ATOM     18  C   UNL     1      -2.174  12.362  21.614  0.00  0.00    +0.000 A 
ATOM     19  C   UNL     1      -1.954  11.836  22.882  0.00  0.00    +0.000 A 
ATOM     20  C   UNL     1      -0.949  10.888  23.070  0.00  0.00    +0.000 A 
ATOM     21  N   UNL     1      -0.204  10.443  22.024  0.00  0.00    +0.000 N 
ATOM     22  C   UNL     1      -0.444  10.909  20.777  0.00  0.00    +0.000 A 
BRANCH  17  23
ATOM     23  C   UNL     1      -1.439  12.433  19.202  0.00  0.00    +0.000 C 
ATOM     24  O   UNL     1      -0.754  13.397  18.888  0.00  0.00    +0.000 OA
BRANCH  23  25
ATOM     25  O   UNL     1      -2.506  11.905  18.576  0.00  0.00    +0.000 OA
BRANCH  25  27
ATOM     26  C   UNL     1      -1.659  10.016  17.339  0.00  0.00    +0.000 C 
ATOM     27  C   UNL     1      -2.256  11.410  17.250  0.00  0.00    +0.000 C 
ENDBRANCH  25  27
ENDBRANCH  23  25
ENDBRANCH  17  23
ENDBRANCH  16  21
ENDBRANCH   1  16
TORSDOF 7
ENDMDL
MODEL 4
REMARK VINA RESULT:      -7.3      2.996      4.095
REMARK  Name = 
REMARK  8 active torsions:
REMARK  status: ('A' for Active; 'I' for Inactive)
REMARK    1  A    between atoms: C_1  and  C_2
REMARK    2  A    between atoms: C_2  and  O_3
REMARK    3  A    between atoms: O_3  and  C_4
REMARK    4  A    between atoms: C_4  and  C_6
REMARK    5  A    between atoms: N_10  and  C_11
REMARK    6  A    between atoms: C_11  and  C_12
REMARK    7  A    between atoms: N_14  and  C_15
REMARK    8  A    between atoms: C_17  and  C_18
REMARK                            x       y       z     vdW  Elec       q    Type
REMARK                         _______ _______ _______ _____ _____    ______ ____
ROOT
ATOM      1  C   UNL     1       2.621   4.251  17.864  0.00  0.00    +0.000 C 
ATOM      2  O   UNL     1       1.418   4.198  17.611  0.00  0.00    +0.000 OA
ATOM      3  N   UNL     1       3.208   5.222  18.669  0.00  0.00    +0.000 N 
ATOM      4  H   UNL     1       4.168   5.498  18.475  0.00  0.00    +0.000 HD
ENDROOT
BRANCH   3   5
ATOM      5  C   UNL     1       2.398   6.252  19.220  0.00  0.00    +0.000 A 
ATOM      6  C   UNL     1       2.193   7.439  18.508  0.00  0.00    +0.000 A 
ATOM      7  C   UNL     1       1.581   8.544  19.112  0.00  0.00    +0.000 A 
ATOM      8  C   UNL     1       1.138   8.427  20.438  0.00  0.00    +0.000 A 
ATOM      9  C   UNL     1       1.273   7.219  21.130  0.00  0.00    +0.000 A 
ATOM     10  C   UNL     1       1.885   6.126  20.517  0.00  0.00    +0.000 A 
ATOM     11 CL   UNL     1       2.116   4.674  21.423  0.00  0.00    +0.000 Cl
BRANCH   7  12
ATOM     12  C   UNL     1       1.464   9.855  18.369  0.00  0.00    +0.000 C 
ATOM     13  F   UNL     1       0.312   9.969  17.652  0.00  0.00    +0.000 F 
ATOM     14  F   UNL     1       1.496  10.929  19.201  0.00  0.00    +0.000 F 
ATOM     15  F   UNL     1       2.478  10.031  17.479  0.00  0.00    +0.000 F 
ENDBRANCH   7  12
ENDBRANCH   3   5
BRANCH   1  16
ATOM     16  C   UNL     1       3.582   3.278  17.224  0.00  0.00    +0.000 C 
BRANCH  16  21
ATOM     17  C   UNL     1       6.613   4.515  15.432  0.00  0.00    +0.000 A 
ATOM     18  C   UNL     1       7.481   4.830  16.471  0.00  0.00    +0.000 A 
ATOM     19  C   UNL     1       7.029   4.678  17.778  0.00  0.00    +0.000 A 
ATOM     20  C   UNL     1       5.747   4.183  18.011  0.00  0.00    +0.000 A 
ATOM     21  N   UNL     1       4.917   3.880  16.979  0.00  0.00    +0.000 N 
ATOM     22  C   UNL     1       5.326   4.073  15.704  0.00  0.00    +0.000 A 
BRANCH  17  23
ATOM     23  C   UNL     1       6.987   4.511  14.018  0.00  0.00    +0.000 C 
ATOM     24  O   UNL     1       7.449   5.509  13.483  0.00  0.00    +0.000 OA
BRANCH  23  25
ATOM     25  O   UNL     1       6.457   3.410  13.456  0.00  0.00    +0.000 OA
BRANCH  25  27
ATOM     26  C   UNL     1       4.798   3.353  11.705  0.00  0.00    +0.000 C 
ATOM     27  C   UNL     1       6.278   3.475  12.031  0.00  0.00    +0.000 C 
ENDBRANCH  25  27
ENDBRANCH  23  25
ENDBRANCH  17  23
ENDBRANCH  16  21
ENDBRANCH   1  16
TORSDOF 7
ENDMDL
MODEL 5
REMARK VINA RESULT:      -7.2      1.897      2.928
REMARK  Name = 
REMARK  8 active torsions:
REMARK  status: ('A' for Active; 'I' for Inactive)
REMARK    1  A    between atoms: C_1  and  C_2
REMARK    2  A    between atoms: C_2  and  O_3
REMARK    3  A    between atoms: O_3  and  C_4
REMARK    4  A    between atoms: C_4  and  C_6
REMARK    5  A    between atoms: N_10  and  C_11
REMARK    6  A    between atoms: C_11  and  C_12
REMARK    7  A    between atoms: N_14  and  C_15
REMARK    8  A    between atoms: C_17  and  C_18
REMARK                            x       y       z     vdW  Elec       q    Type
REMARK                         _______ _______ _______ _____ _____    ______ ____
ROOT
ATOM      1  C   UNL     1       2.636   5.136  18.491  0.00  0.00    +0.000 C 
ATOM      2  O   UNL     1       1.567   5.204  17.886  0.00  0.00    +0.000 OA
ATOM      3  N   UNL     1       3.159   6.162  19.271  0.00  0.00    +0.000 N 
ATOM      4  H   UNL     1       4.171   6.248  19.346  0.00  0.00    +0.000 HD
ENDROOT
BRANCH   3   5
ATOM      5  C   UNL     1       2.455   7.393  19.367  0.00  0.00    +0.000 A 
ATOM      6  C   UNL     1       1.704   7.684  20.511  0.00  0.00    +0.000 A 
ATOM      7  C   UNL     1       0.837   8.784  20.542  0.00  0.00    +0.000 A 
ATOM      8  C   UNL     1       0.765   9.617  19.417  0.00  0.00    +0.000 A 
ATOM      9  C   UNL     1       1.571   9.375  18.298  0.00  0.00    +0.000 A 
ATOM     10  C   UNL     1       2.428   8.275  18.280  0.00  0.00    +0.000 A 
ATOM     11 CL   UNL     1       3.348   7.949  16.853  0.00  0.00    +0.000 Cl
BRANCH   7  12
ATOM     12  C   UNL     1      -0.051   9.024  21.742  0.00  0.00    +0.000 C 
ATOM     13  F   UNL     1      -0.730  10.203  21.683  0.00  0.00    +0.000 F 
ATOM     14  F   UNL     1      -0.992   8.055  21.893  0.00  0.00    +0.000 F 
ATOM     15  F   UNL     1       0.656   9.055  22.904  0.00  0.00    +0.000 F 
ENDBRANCH   7  12
ENDBRANCH   3   5
BRANCH   1  16
ATOM     16  C   UNL     1       3.519   3.919  18.351  0.00  0.00    +0.000 C 
BRANCH  16  21
ATOM     17  C   UNL     1       6.634   4.607  16.414  0.00  0.00    +0.000 A 
ATOM     18  C   UNL     1       7.592   4.754  17.411  0.00  0.00    +0.000 A 
ATOM     19  C   UNL     1       7.183   4.676  18.738  0.00  0.00    +0.000 A 
ATOM     20  C   UNL     1       5.845   4.417  19.033  0.00  0.00    +0.000 A 
ATOM     21  N   UNL     1       4.927   4.274  18.041  0.00  0.00    +0.000 N 
ATOM     22  C   UNL     1       5.303   4.400  16.748  0.00  0.00    +0.000 A 
BRANCH  17  23
ATOM     23  C   UNL     1       6.934   4.545  14.985  0.00  0.00    +0.000 C 
ATOM     24  O   UNL     1       7.588   5.422  14.438  0.00  0.00    +0.000 OA
BRANCH  23  25
ATOM     25  O   UNL     1       6.141   3.606  14.438  0.00  0.00    +0.000 OA
BRANCH  25  27
ATOM     26  C   UNL     1       5.854   3.028  12.113  0.00  0.00    +0.000 C 
ATOM     27  C   UNL     1       5.477   3.995  13.224  0.00  0.00    +0.000 C 
ENDBRANCH  25  27
ENDBRANCH  23  25
ENDBRANCH  17  23
ENDBRANCH  16  21
ENDBRANCH   1  16
TORSDOF 7
ENDMDL
MODEL 6
REMARK VINA RESULT:      -7.2      4.175      8.182
REMARK  Name = 
REMARK  8 active torsions:
REMARK  status: ('A' for Active; 'I' for Inactive)
REMARK    1  A    between atoms: C_1  and  C_2
REMARK    2  A    between atoms: C_2  and  O_3
REMARK    3  A    between atoms: O_3  and  C_4
REMARK    4  A    between atoms: C_4  and  C_6
REMARK    5  A    between atoms: N_10  and  C_11
REMARK    6  A    between atoms: C_11  and  C_12
REMARK    7  A    between atoms: N_14  and  C_15
REMARK    8  A    between atoms: C_17  and  C_18
REMARK                            x       y       z     vdW  Elec       q    Type
REMARK                         _______ _______ _______ _____ _____    ______ ____
ROOT
ATOM      1  C   UNL     1       2.247   8.124  18.558  0.00  0.00    +0.000 C 
ATOM      2  O   UNL     1       2.069   7.852  19.744  0.00  0.00    +0.000 OA
ATOM      3  N   UNL     1       2.693   7.212  17.606  0.00  0.00    +0.000 N 
ATOM      4  H   UNL     1       3.245   7.558  16.824  0.00  0.00    +0.000 HD
ENDROOT
BRANCH   3   5
ATOM      5  C   UNL     1       3.006   5.885  18.006  0.00  0.00    +0.000 A 
ATOM      6  C   UNL     1       1.989   5.026  18.439  0.00  0.00    +0.000 A 
ATOM      7  C   UNL     1       2.293   3.795  19.035  0.00  0.00    +0.000 A 
ATOM      8  C   UNL     1       3.638   3.417  19.153  0.00  0.00    +0.000 A 
ATOM      9  C   UNL     1       4.655   4.238  18.653  0.00  0.00    +0.000 A 
ATOM     10  C   UNL     1       4.339   5.462  18.064  0.00  0.00    +0.000 A 
ATOM     11 CL   UNL     1       5.618   6.495  17.533  0.00  0.00    +0.000 Cl
BRANCH   7  12
ATOM     12  C   UNL     1       1.192   2.926  19.598  0.00  0.00    +0.000 C 
ATOM     13  F   UNL     1       0.269   3.623  20.318  0.00  0.00    +0.000 F 
ATOM     14  F   UNL     1       0.497   2.274  18.629  0.00  0.00    +0.000 F 
ATOM     15  F   UNL     1       1.673   1.967  20.434  0.00  0.00    +0.000 F 
ENDBRANCH   7  12
ENDBRANCH   3   5
BRANCH   1  16
ATOM     16  C   UNL     1       2.065   9.538  18.060  0.00  0.00    +0.000 C 
BRANCH  16  21
ATOM     17  C   UNL     1      -1.548  10.470  18.010  0.00  0.00    +0.000 A 
ATOM     18  C   UNL     1      -1.660  11.334  19.094  0.00  0.00    +0.000 A 
ATOM     19  C   UNL     1      -0.533  11.563  19.876  0.00  0.00    +0.000 A 
ATOM     20  C   UNL     1       0.676  10.958  19.536  0.00  0.00    +0.000 A 
ATOM     21  N   UNL     1       0.762  10.119  18.471  0.00  0.00    +0.000 N 
ATOM     22  C   UNL     1      -0.339   9.847  17.733  0.00  0.00    +0.000 A 
BRANCH  17  23
ATOM     23  C   UNL     1      -2.610  10.229  17.035  0.00  0.00    +0.000 C 
ATOM     24  O   UNL     1      -2.407  10.353  15.835  0.00  0.00    +0.000 OA
BRANCH  23  25
ATOM     25  O   UNL     1      -3.778  10.179  17.701  0.00  0.00    +0.000 OA
BRANCH  25  27
ATOM     26  C   UNL     1      -5.733  11.428  18.361  0.00  0.00    +0.000 C 
ATOM     27  C   UNL     1      -4.798  11.070  17.218  0.00  0.00    +0.000 C 
ENDBRANCH  25  27
ENDBRANCH  23  25
ENDBRANCH  17  23
ENDBRANCH  16  21
ENDBRANCH   1  16
TORSDOF 7
ENDMDL
MODEL 7
REMARK VINA RESULT:      -7.2      3.760      7.705
REMARK  Name = 
REMARK  8 active torsions:
REMARK  status: ('A' for Active; 'I' for Inactive)
REMARK    1  A    between atoms: C_1  and  C_2
REMARK    2  A    between atoms: C_2  and  O_3
REMARK    3  A    between atoms: O_3  and  C_4
REMARK    4  A    between atoms: C_4  and  C_6
REMARK    5  A    between atoms: N_10  and  C_11
REMARK    6  A    between atoms: C_11  and  C_12
REMARK    7  A    between atoms: N_14  and  C_15
REMARK    8  A    between atoms: C_17  and  C_18
REMARK                            x       y       z     vdW  Elec       q    Type
REMARK                         _______ _______ _______ _____ _____    ______ ____
ROOT
ATOM      1  C   UNL     1       2.391   7.927  18.440  0.00  0.00    +0.000 C 
ATOM      2  O   UNL     1       2.174   7.689  19.627  0.00  0.00    +0.000 OA
ATOM      3  N   UNL     1       2.869   6.990  17.530  0.00  0.00    +0.000 N 
ATOM      4  H   UNL     1       3.446   7.314  16.757  0.00  0.00    +0.000 HD
ENDROOT
BRANCH   3   5
ATOM      5  C   UNL     1       3.169   5.675  17.978  0.00  0.00    +0.000 A 
ATOM      6  C   UNL     1       2.133   4.784  18.282  0.00  0.00    +0.000 A 
ATOM      7  C   UNL     1       2.395   3.566  18.921  0.00  0.00    +0.000 A 
ATOM      8  C   UNL     1       3.725   3.234  19.217  0.00  0.00    +0.000 A 
ATOM      9  C   UNL     1       4.772   4.086  18.848  0.00  0.00    +0.000 A 
ATOM     10  C   UNL     1       4.496   5.296  18.213  0.00  0.00    +0.000 A 
ATOM     11 CL   UNL     1       5.800   6.369  17.845  0.00  0.00    +0.000 Cl
BRANCH   7  12
ATOM     12  C   UNL     1       1.258   2.663  19.343  0.00  0.00    +0.000 C 
ATOM     13  F   UNL     1       0.626   3.084  20.474  0.00  0.00    +0.000 F 
ATOM     14  F   UNL     1       0.295   2.562  18.390  0.00  0.00    +0.000 F 
ATOM     15  F   UNL     1       1.679   1.395  19.598  0.00  0.00    +0.000 F 
ENDBRANCH   7  12
ENDBRANCH   3   5
BRANCH   1  16
ATOM     16  C   UNL     1       2.224   9.326  17.896  0.00  0.00    +0.000 C 
BRANCH  16  21
ATOM     17  C   UNL     1      -0.328  11.239  19.834  0.00  0.00    +0.000 A 
ATOM     18  C   UNL     1      -1.510  10.945  19.164  0.00  0.00    +0.000 A 
ATOM     19  C   UNL     1      -1.445  10.146  18.027  0.00  0.00    +0.000 A 
ATOM     20  C   UNL     1      -0.215   9.635  17.614  0.00  0.00    +0.000 A 
ATOM     21  N   UNL     1       0.927   9.934  18.287  0.00  0.00    +0.000 N 
ATOM     22  C   UNL     1       0.883  10.752  19.363  0.00  0.00    +0.000 A 
BRANCH  17  23
ATOM     23  C   UNL     1      -0.257  11.962  21.103  0.00  0.00    +0.000 C 
ATOM     24  O   UNL     1       0.779  12.498  21.468  0.00  0.00    +0.000 OA
BRANCH  23  25
ATOM     25  O   UNL     1      -1.352  11.645  21.818  0.00  0.00    +0.000 OA
BRANCH  25  27
ATOM     26  C   UNL     1      -0.649   9.744  23.127  0.00  0.00    +0.000 C 
ATOM     27  C   UNL     1      -1.099  11.196  23.160  0.00  0.00    +0.000 C 
ENDBRANCH  25  27
ENDBRANCH  23  25
ENDBRANCH  17  23
ENDBRANCH  16  21
ENDBRANCH   1  16
TORSDOF 7
ENDMDL
MODEL 8
REMARK VINA RESULT:      -7.2      3.455      4.644
REMARK  Name = 
REMARK  8 active torsions:
REMARK  status: ('A' for Active; 'I' for Inactive)
REMARK    1  A    between atoms: C_1  and  C_2
REMARK    2  A    between atoms: C_2  and  O_3
REMARK    3  A    between atoms: O_3  and  C_4
REMARK    4  A    between atoms: C_4  and  C_6
REMARK    5  A    between atoms: N_10  and  C_11
REMARK    6  A    between atoms: C_11  and  C_12
REMARK    7  A    between atoms: N_14  and  C_15
REMARK    8  A    between atoms: C_17  and  C_18
REMARK                            x       y       z     vdW  Elec       q    Type
REMARK                         _______ _______ _______ _____ _____    ______ ____
ROOT
ATOM      1  C   UNL     1       3.089   4.078  17.825  0.00  0.00    +0.000 C 
ATOM      2  O   UNL     1       1.928   4.018  17.420  0.00  0.00    +0.000 OA
ATOM      3  N   UNL     1       3.551   5.023  18.735  0.00  0.00    +0.000 N 
ATOM      4  H   UNL     1       4.522   5.320  18.675  0.00  0.00    +0.000 HD
ENDROOT
BRANCH   3   5
ATOM      5  C   UNL     1       2.659   6.018  19.219  0.00  0.00    +0.000 A 
ATOM      6  C   UNL     1       2.473   7.203  18.499  0.00  0.00    +0.000 A 
ATOM      7  C   UNL     1       1.770   8.280  19.055  0.00  0.00    +0.000 A 
ATOM      8  C   UNL     1       1.219   8.135  20.335  0.00  0.00    +0.000 A 
ATOM      9  C   UNL     1       1.337   6.926  21.030  0.00  0.00    +0.000 A 
ATOM     10  C   UNL     1       2.040   5.862  20.466  0.00  0.00    +0.000 A 
ATOM     11 CL   UNL     1       2.245   4.410  21.380  0.00  0.00    +0.000 Cl
BRANCH   7  12
ATOM     12  C   UNL     1       1.671   9.593  18.312  0.00  0.00    +0.000 C 
ATOM     13  F   UNL     1       2.750   9.848  17.520  0.00  0.00    +0.000 F 
ATOM     14  F   UNL     1       0.586   9.647  17.495  0.00  0.00    +0.000 F 
ATOM     15  F   UNL     1       1.567  10.653  19.157  0.00  0.00    +0.000 F 
ENDBRANCH   7  12
ENDBRANCH   3   5
BRANCH   1  16
ATOM     16  C   UNL     1       4.141   3.145  17.274  0.00  0.00    +0.000 C 
BRANCH  16  21
ATOM     17  C   UNL     1       6.121   4.233  14.303  0.00  0.00    +0.000 A 
ATOM     18  C   UNL     1       7.122   5.015  14.868  0.00  0.00    +0.000 A 
ATOM     19  C   UNL     1       7.103   5.222  16.243  0.00  0.00    +0.000 A 
ATOM     20  C   UNL     1       6.114   4.617  17.017  0.00  0.00    +0.000 A 
ATOM     21  N   UNL     1       5.146   3.855  16.443  0.00  0.00    +0.000 N 
ATOM     22  C   UNL     1       5.124   3.689  15.101  0.00  0.00    +0.000 A 
BRANCH  17  23
ATOM     23  C   UNL     1       6.081   3.833  12.898  0.00  0.00    +0.000 C 
ATOM     24  O   UNL     1       7.042   4.010  12.162  0.00  0.00    +0.000 OA
BRANCH  23  25
ATOM     25  O   UNL     1       4.800   3.575  12.579  0.00  0.00    +0.000 OA
BRANCH  25  27
ATOM     26  C   UNL     1       3.433   3.467  10.594  0.00  0.00    +0.000 C 
ATOM     27  C   UNL     1       4.606   2.860  11.347  0.00  0.00    +0.000 C 
ENDBRANCH  25  27
ENDBRANCH  23  25
ENDBRANCH  17  23
ENDBRANCH  16  21
ENDBRANCH   1  16
TORSDOF 7
ENDMDL
MODEL 9
REMARK VINA RESULT:      -7.1      4.448      6.061
REMARK  Name = 
REMARK  8 active torsions:
REMARK  status: ('A' for Active; 'I' for Inactive)
REMARK    1  A    between atoms: C_1  and  C_2
REMARK    2  A    between atoms: C_2  and  O_3
REMARK    3  A    between atoms: O_3  and  C_4
REMARK    4  A    between atoms: C_4  and  C_6
REMARK    5  A    between atoms: N_10  and  C_11
REMARK    6  A    between atoms: C_11  and  C_12
REMARK    7  A    between atoms: N_14  and  C_15
REMARK    8  A    between atoms: C_17  and  C_18
REMARK                            x       y       z     vdW  Elec       q    Type
REMARK                         _______ _______ _______ _____ _____    ______ ____
ROOT
ATOM      1  C   UNL     1       5.684   4.486  16.699  0.00  0.00    +0.000 C 
ATOM      2  O   UNL     1       4.654   4.326  16.045  0.00  0.00    +0.000 OA
ATOM      3  N   UNL     1       5.710   4.906  18.024  0.00  0.00    +0.000 N 
ATOM      4  H   UNL     1       6.509   5.447  18.347  0.00  0.00    +0.000 HD
ENDROOT
BRANCH   3   5
ATOM      5  C   UNL     1       4.488   5.212  18.682  0.00  0.00    +0.000 A 
ATOM      6  C   UNL     1       3.955   4.322  19.622  0.00  0.00    +0.000 A 
ATOM      7  C   UNL     1       2.659   4.496  20.123  0.00  0.00    +0.000 A 
ATOM      8  C   UNL     1       1.915   5.605  19.696  0.00  0.00    +0.000 A 
ATOM      9  C   UNL     1       2.470   6.540  18.815  0.00  0.00    +0.000 A 
ATOM     10  C   UNL     1       3.762   6.354  18.322  0.00  0.00    +0.000 A 
ATOM     11 CL   UNL     1       4.391   7.476  17.169  0.00  0.00    +0.000 Cl
BRANCH   7  12
ATOM     12  C   UNL     1       2.055   3.468  21.052  0.00  0.00    +0.000 C 
ATOM     13  F   UNL     1       2.486   2.199  20.807  0.00  0.00    +0.000 F 
ATOM     14  F   UNL     1       2.340   3.716  22.357  0.00  0.00    +0.000 F 
ATOM     15  F   UNL     1       0.698   3.427  20.958  0.00  0.00    +0.000 F 
ENDBRANCH   7  12
ENDBRANCH   3   5
BRANCH   1  16
ATOM     16  C   UNL     1       7.037   4.309  16.052  0.00  0.00    +0.000 C 
BRANCH  16  21
ATOM     17  C   UNL     1       6.101   3.703  12.490  0.00  0.00    +0.000 A 
ATOM     18  C   UNL     1       6.969   4.538  11.795  0.00  0.00    +0.000 A 
ATOM     19  C   UNL     1       7.834   5.348  12.525  0.00  0.00    +0.000 A 
ATOM     20  C   UNL     1       7.837   5.274  13.917  0.00  0.00    +0.000 A 
ATOM     21  N   UNL     1       6.980   4.448  14.575  0.00  0.00    +0.000 N 
ATOM     22  C   UNL     1       6.099   3.695  13.878  0.00  0.00    +0.000 A 
BRANCH  17  23
ATOM     23  C   UNL     1       5.226   2.717  11.860  0.00  0.00    +0.000 C 
ATOM     24  O   UNL     1       5.685   1.742  11.281  0.00  0.00    +0.000 OA
BRANCH  23  25
ATOM     25  O   UNL     1       3.991   3.246  11.791  0.00  0.00    +0.000 OA
BRANCH  25  27
ATOM     26  C   UNL     1       3.206   4.243   9.739  0.00  0.00    +0.000 C 
ATOM     27  C   UNL     1       3.274   2.975  10.575  0.00  0.00    +0.000 C 
ENDBRANCH  25  27
ENDBRANCH  23  25
ENDBRANCH  17  23
ENDBRANCH  16  21
ENDBRANCH   1  16
TORSDOF 7
ENDMDL
