MODEL 1
REMARK VINA RESULT:      -8.5      0.000      0.000
REMARK  Name = 
REMARK  7 active torsions:
REMARK  status: ('A' for Active; 'I' for Inactive)
REMARK    1  A    between atoms: C_1  and  O_2
REMARK    2  A    between atoms: O_2  and  C_3
REMARK    3  A    between atoms: C_6  and  N_7
REMARK    4  A    between atoms: C_11  and  C_13
REMARK    5  A    between atoms: C_13  and  N_14
REMARK    6  A    between atoms: C_18  and  C_19
REMARK    7  A    between atoms: C_18  and  C_20
REMARK                            x       y       z     vdW  Elec       q    Type
REMARK                         _______ _______ _______ _____ _____    ______ ____
ROOT
ATOM      1  N   UNL     1      -0.940  12.335  21.993  0.00  0.00    +0.000 N 
ATOM      2  C   UNL     1      -1.466  11.522  22.939  0.00  0.00    +0.000 C 
ATOM      3  O   UNL     1      -0.938  10.560  23.473  0.00  0.00    +0.000 OA
ATOM      4  N   UNL     1      -2.704  11.990  23.296  0.00  0.00    +0.000 N 
ATOM      5  C   UNL     1      -3.046  13.241  22.650  0.00  0.00    +0.000 C 
ATOM      6  C   UNL     1      -3.242  14.341  23.688  0.00  0.00    +0.000 C 
ATOM      7  C   UNL     1      -1.709  13.461  21.885  0.00  0.00    +0.000 C 
ATOM      8  O   UNL     1      -1.379  14.497  21.321  0.00  0.00    +0.000 OA
ATOM      9  H   UNL     1      -3.214  11.565  24.057  0.00  0.00    +0.000 HD
ENDROOT
BRANCH   5  10
ATOM     10  C   UNL     1      -4.247  13.092  21.716  0.00  0.00    +0.000 A 
ATOM     11  C   UNL     1      -5.540  13.407  22.161  0.00  0.00    +0.000 A 
ATOM     12  C   UNL     1      -6.631  13.386  21.289  0.00  0.00    +0.000 A 
ATOM     13  C   UNL     1      -6.471  13.022  19.949  0.00  0.00    +0.000 A 
ATOM     14  C   UNL     1      -7.546  13.080  19.048  0.00  0.00    +0.000 A 
ATOM     15  C   UNL     1      -7.379  12.708  17.715  0.00  0.00    +0.000 A 
ATOM     16  C   UNL     1      -6.145  12.238  17.276  0.00  0.00    +0.000 A 
ATOM     17  C   UNL     1      -5.064  12.182  18.161  0.00  0.00    +0.000 A 
ATOM     18  C   UNL     1      -5.202  12.600  19.498  0.00  0.00    +0.000 A 
ATOM     19  C   UNL     1      -4.107  12.635  20.390  0.00  0.00    +0.000 A 
ENDBRANCH   5  10
BRANCH   1  20
ATOM     20  C   UNL     1       0.395  12.208  21.452  0.00  0.00    +0.000 C 
BRANCH  20  25
ATOM     21  N   UNL     1       1.998   7.575  19.763  0.00  0.00    +0.000 N 
ATOM     22  C   UNL     1       2.063   8.545  18.658  0.00  0.00    +0.000 C 
ATOM     23  C   UNL     1       0.856   9.498  18.735  0.00  0.00    +0.000 C 
ATOM     24  N   UNL     1       0.765  10.146  20.050  0.00  0.00    +0.000 N 
ATOM     25  C   UNL     1       0.408  11.485  20.102  0.00  0.00    +0.000 C 
ATOM     26  O   UNL     1       0.122  12.109  19.076  0.00  0.00    +0.000 OA
ATOM     27  C   UNL     1       0.756   9.204  21.179  0.00  0.00    +0.000 C 
ATOM     28  C   UNL     1       1.900   8.170  21.106  0.00  0.00    +0.000 C 
BRANCH  21  32
ATOM     29  C   UNL     1       2.067   3.417  19.010  0.00  0.00    +0.000 A 
ATOM     30  C   UNL     1       2.496   4.320  18.043  0.00  0.00    +0.000 A 
ATOM     31  C   UNL     1       2.500   5.695  18.310  0.00  0.00    +0.000 A 
ATOM     32  C   UNL     1       2.056   6.217  19.534  0.00  0.00    +0.000 A 
ATOM     33  C   UNL     1       1.636   5.284  20.491  0.00  0.00    +0.000 A 
ATOM     34  C   UNL     1       1.633   3.903  20.237  0.00  0.00    +0.000 A 
BRANCH  29  36
ATOM     35  C   UNL     1       3.303   1.617  18.114  0.00  0.00    +0.000 C 
ATOM     36  O   UNL     1       2.070   2.106  18.628  0.00  0.00    +0.000 OA
ENDBRANCH  29  36
ENDBRANCH  21  32
ENDBRANCH  20  25
ENDBRANCH   1  20
TORSDOF 5
ENDMDL
MODEL 2
REMARK VINA RESULT:      -7.6      6.059     10.637
REMARK  Name = 
REMARK  7 active torsions:
REMARK  status: ('A' for Active; 'I' for Inactive)
REMARK    1  A    between atoms: C_1  and  O_2
REMARK    2  A    between atoms: O_2  and  C_3
REMARK    3  A    between atoms: C_6  and  N_7
REMARK    4  A    between atoms: C_11  and  C_13
REMARK    5  A    between atoms: C_13  and  N_14
REMARK    6  A    between atoms: C_18  and  C_19
REMARK    7  A    between atoms: C_18  and  C_20
REMARK                            x       y       z     vdW  Elec       q    Type
REMARK                         _______ _______ _______ _____ _____    ______ ____
ROOT
ATOM      1  N   UNL     1       4.973  14.761  21.962  0.00  0.00    +0.000 N 
ATOM      2  C   UNL     1       5.688  15.902  21.826  0.00  0.00    +0.000 C 
ATOM      3  O   UNL     1       5.272  17.012  21.537  0.00  0.00    +0.000 OA
ATOM      4  N   UNL     1       6.997  15.654  22.150  0.00  0.00    +0.000 N 
ATOM      5  C   UNL     1       7.218  14.303  22.625  0.00  0.00    +0.000 C 
ATOM      6  C   UNL     1       7.728  14.321  24.063  0.00  0.00    +0.000 C 
ATOM      7  C   UNL     1       5.740  13.818  22.590  0.00  0.00    +0.000 C 
ATOM      8  O   UNL     1       5.324  12.780  23.091  0.00  0.00    +0.000 OA
ATOM      9  H   UNL     1       7.667  16.409  22.196  0.00  0.00    +0.000 HD
ENDROOT
BRANCH   5  10
ATOM     10  C   UNL     1       8.126  13.509  21.687  0.00  0.00    +0.000 A 
ATOM     11  C   UNL     1       8.548  12.215  22.030  0.00  0.00    +0.000 A 
ATOM     12  C   UNL     1       9.283  11.433  21.136  0.00  0.00    +0.000 A 
ATOM     13  C   UNL     1       9.645  11.928  19.880  0.00  0.00    +0.000 A 
ATOM     14  C   UNL     1      10.309  11.119  18.945  0.00  0.00    +0.000 A 
ATOM     15  C   UNL     1      10.674  11.623  17.697  0.00  0.00    +0.000 A 
ATOM     16  C   UNL     1      10.410  12.953  17.384  0.00  0.00    +0.000 A 
ATOM     17  C   UNL     1       9.743  13.768  18.303  0.00  0.00    +0.000 A 
ATOM     18  C   UNL     1       9.324  13.261  19.547  0.00  0.00    +0.000 A 
ATOM     19  C   UNL     1       8.574  14.036  20.460  0.00  0.00    +0.000 A 
ENDBRANCH   5  10
BRANCH   1  20
ATOM     20  C   UNL     1       3.539  14.667  21.802  0.00  0.00    +0.000 C 
BRANCH  20  25
ATOM     21  N   UNL     1      -0.447  12.103  19.697  0.00  0.00    +0.000 N 
ATOM     22  C   UNL     1       0.747  11.923  18.855  0.00  0.00    +0.000 C 
ATOM     23  C   UNL     1       1.552  13.235  18.812  0.00  0.00    +0.000 C 
ATOM     24  N   UNL     1       1.881  13.709  20.162  0.00  0.00    +0.000 N 
ATOM     25  C   UNL     1       3.139  14.250  20.384  0.00  0.00    +0.000 C 
ATOM     26  O   UNL     1       3.948  14.378  19.461  0.00  0.00    +0.000 OA
ATOM     27  C   UNL     1       0.713  13.845  21.047  0.00  0.00    +0.000 C 
ATOM     28  C   UNL     1      -0.177  12.583  21.061  0.00  0.00    +0.000 C 
BRANCH  21  32
ATOM     29  C   UNL     1      -4.305  11.286  18.177  0.00  0.00    +0.000 A 
ATOM     30  C   UNL     1      -3.183  10.664  17.638  0.00  0.00    +0.000 A 
ATOM     31  C   UNL     1      -1.911  10.915  18.166  0.00  0.00    +0.000 A 
ATOM     32  C   UNL     1      -1.709  11.808  19.228  0.00  0.00    +0.000 A 
ATOM     33  C   UNL     1      -2.857  12.415  19.756  0.00  0.00    +0.000 A 
ATOM     34  C   UNL     1      -4.138  12.167  19.238  0.00  0.00    +0.000 A 
BRANCH  29  36
ATOM     35  C   UNL     1      -6.621  10.905  18.413  0.00  0.00    +0.000 C 
ATOM     36  O   UNL     1      -5.487  10.997  17.560  0.00  0.00    +0.000 OA
ENDBRANCH  29  36
ENDBRANCH  21  32
ENDBRANCH  20  25
ENDBRANCH   1  20
TORSDOF 5
ENDMDL
MODEL 3
REMARK VINA RESULT:      -7.6      3.586      5.039
REMARK  Name = 
REMARK  7 active torsions:
REMARK  status: ('A' for Active; 'I' for Inactive)
REMARK    1  A    between atoms: C_1  and  O_2
REMARK    2  A    between atoms: O_2  and  C_3
REMARK    3  A    between atoms: C_6  and  N_7
REMARK    4  A    between atoms: C_11  and  C_13
REMARK    5  A    between atoms: C_13  and  N_14
REMARK    6  A    between atoms: C_18  and  C_19
REMARK    7  A    between atoms: C_18  and  C_20
REMARK                            x       y       z     vdW  Elec       q    Type
REMARK                         _______ _______ _______ _____ _____    ______ ____
ROOT
ATOM      1  N   UNL     1      -1.739  13.478  21.558  0.00  0.00    +0.000 N 
ATOM      2  C   UNL     1      -2.668  14.453  21.685  0.00  0.00    +0.000 C 
ATOM      3  O   UNL     1      -3.880  14.326  21.744  0.00  0.00    +0.000 OA
ATOM      4  N   UNL     1      -2.035  15.661  21.826  0.00  0.00    +0.000 N 
ATOM      5  C   UNL     1      -0.592  15.541  21.894  0.00  0.00    +0.000 C 
ATOM      6  C   UNL     1      -0.078  16.050  23.238  0.00  0.00    +0.000 C 
ATOM      7  C   UNL     1      -0.502  13.989  21.842  0.00  0.00    +0.000 C 
ATOM      8  O   UNL     1       0.505  13.330  22.071  0.00  0.00    +0.000 OA
ATOM      9  H   UNL     1      -2.563  16.499  22.025  0.00  0.00    +0.000 HD
ENDROOT
BRANCH   5  10
ATOM     10  C   UNL     1       0.095  16.216  20.708  0.00  0.00    +0.000 A 
ATOM     11  C   UNL     1       1.489  16.161  20.565  0.00  0.00    +0.000 A 
ATOM     12  C   UNL     1       2.121  16.672  19.429  0.00  0.00    +0.000 A 
ATOM     13  C   UNL     1       1.383  17.282  18.411  0.00  0.00    +0.000 A 
ATOM     14  C   UNL     1       2.001  17.722  17.230  0.00  0.00    +0.000 A 
ATOM     15  C   UNL     1       1.259  18.337  16.223  0.00  0.00    +0.000 A 
ATOM     16  C   UNL     1      -0.105  18.551  16.400  0.00  0.00    +0.000 A 
ATOM     17  C   UNL     1      -0.734  18.112  17.569  0.00  0.00    +0.000 A 
ATOM     18  C   UNL     1      -0.009  17.445  18.574  0.00  0.00    +0.000 A 
ATOM     19  C   UNL     1      -0.634  16.915  19.725  0.00  0.00    +0.000 A 
ENDBRANCH   5  10
BRANCH   1  20
ATOM     20  C   UNL     1      -2.037  12.064  21.490  0.00  0.00    +0.000 C 
BRANCH  20  25
ATOM     21  N   UNL     1       1.515   8.859  19.490  0.00  0.00    +0.000 N 
ATOM     22  C   UNL     1       1.030   9.767  18.437  0.00  0.00    +0.000 C 
ATOM     23  C   UNL     1      -0.480  10.003  18.614  0.00  0.00    +0.000 C 
ATOM     24  N   UNL     1      -0.795  10.488  19.965  0.00  0.00    +0.000 N 
ATOM     25  C   UNL     1      -1.757  11.477  20.103  0.00  0.00    +0.000 C 
ATOM     26  O   UNL     1      -2.373  11.909  19.125  0.00  0.00    +0.000 OA
ATOM     27  C   UNL     1      -0.274   9.631  21.041  0.00  0.00    +0.000 C 
ATOM     28  C   UNL     1       1.223   9.293  20.866  0.00  0.00    +0.000 C 
BRANCH  21  32
ATOM     29  C   UNL     1       3.754   5.383  18.618  0.00  0.00    +0.000 A 
ATOM     30  C   UNL     1       2.986   5.460  19.775  0.00  0.00    +0.000 A 
ATOM     31  C   UNL     1       2.221   6.602  20.042  0.00  0.00    +0.000 A 
ATOM     32  C   UNL     1       2.215   7.712  19.185  0.00  0.00    +0.000 A 
ATOM     33  C   UNL     1       2.993   7.604  18.024  0.00  0.00    +0.000 A 
ATOM     34  C   UNL     1       3.759   6.462  17.743  0.00  0.00    +0.000 A 
BRANCH  29  36
ATOM     35  C   UNL     1       5.552   4.303  17.537  0.00  0.00    +0.000 C 
ATOM     36  O   UNL     1       4.488   4.240  18.478  0.00  0.00    +0.000 OA
ENDBRANCH  29  36
ENDBRANCH  21  32
ENDBRANCH  20  25
ENDBRANCH   1  20
TORSDOF 5
ENDMDL
MODEL 4
REMARK VINA RESULT:      -7.4      6.288     11.022
REMARK  Name = 
REMARK  7 active torsions:
REMARK  status: ('A' for Active; 'I' for Inactive)
REMARK    1  A    between atoms: C_1  and  O_2
REMARK    2  A    between atoms: O_2  and  C_3
REMARK    3  A    between atoms: C_6  and  N_7
REMARK    4  A    between atoms: C_11  and  C_13
REMARK    5  A    between atoms: C_13  and  N_14
REMARK    6  A    between atoms: C_18  and  C_19
REMARK    7  A    between atoms: C_18  and  C_20
REMARK                            x       y       z     vdW  Elec       q    Type
REMARK                         _______ _______ _______ _____ _____    ______ ____
ROOT
ATOM      1  N   UNL     1       4.627  15.499  20.385  0.00  0.00    +0.000 N 
ATOM      2  C   UNL     1       5.154  16.610  19.821  0.00  0.00    +0.000 C 
ATOM      3  O   UNL     1       4.557  17.531  19.289  0.00  0.00    +0.000 OA
ATOM      4  N   UNL     1       6.513  16.606  20.006  0.00  0.00    +0.000 N 
ATOM      5  C   UNL     1       6.972  15.494  20.813  0.00  0.00    +0.000 C 
ATOM      6  C   UNL     1       7.632  16.000  22.092  0.00  0.00    +0.000 C 
ATOM      7  C   UNL     1       5.583  14.874  21.138  0.00  0.00    +0.000 C 
ATOM      8  O   UNL     1       5.374  14.003  21.973  0.00  0.00    +0.000 OA
ATOM      9  H   UNL     1       7.071  17.402  19.732  0.00  0.00    +0.000 HD
ENDROOT
BRANCH   5  10
ATOM     10  C   UNL     1       7.874  14.547  20.021  0.00  0.00    +0.000 A 
ATOM     11  C   UNL     1       7.638  14.310  18.658  0.00  0.00    +0.000 A 
ATOM     12  C   UNL     1       8.517  13.540  17.894  0.00  0.00    +0.000 A 
ATOM     13  C   UNL     1       9.648  12.957  18.473  0.00  0.00    +0.000 A 
ATOM     14  C   UNL     1      10.581  12.253  17.695  0.00  0.00    +0.000 A 
ATOM     15  C   UNL     1      11.702  11.668  18.281  0.00  0.00    +0.000 A 
ATOM     16  C   UNL     1      11.885  11.750  19.659  0.00  0.00    +0.000 A 
ATOM     17  C   UNL     1      10.968  12.454  20.445  0.00  0.00    +0.000 A 
ATOM     18  C   UNL     1       9.857  13.092  19.862  0.00  0.00    +0.000 A 
ATOM     19  C   UNL     1       8.962  13.881  20.619  0.00  0.00    +0.000 A 
ENDBRANCH   5  10
BRANCH   1  20
ATOM     20  C   UNL     1       3.210  15.216  20.473  0.00  0.00    +0.000 C 
BRANCH  20  25
ATOM     21  N   UNL     1      -1.120  12.525  19.530  0.00  0.00    +0.000 N 
ATOM     22  C   UNL     1       0.027  11.828  18.926  0.00  0.00    +0.000 C 
ATOM     23  C   UNL     1       1.009  12.860  18.342  0.00  0.00    +0.000 C 
ATOM     24  N   UNL     1       1.416  13.847  19.351  0.00  0.00    +0.000 N 
ATOM     25  C   UNL     1       2.740  14.259  19.374  0.00  0.00    +0.000 C 
ATOM     26  O   UNL     1       3.550  13.849  18.538  0.00  0.00    +0.000 OA
ATOM     27  C   UNL     1       0.289  14.520  20.014  0.00  0.00    +0.000 C 
ATOM     28  C   UNL     1      -0.770  13.530  20.546  0.00  0.00    +0.000 C 
BRANCH  21  32
ATOM     29  C   UNL     1      -5.087  11.483  18.511  0.00  0.00    +0.000 A 
ATOM     30  C   UNL     1      -4.820  12.217  19.662  0.00  0.00    +0.000 A 
ATOM     31  C   UNL     1      -3.507  12.587  19.978  0.00  0.00    +0.000 A 
ATOM     32  C   UNL     1      -2.416  12.218  19.176  0.00  0.00    +0.000 A 
ATOM     33  C   UNL     1      -2.716  11.484  18.021  0.00  0.00    +0.000 A 
ATOM     34  C   UNL     1      -4.029  11.113  17.691  0.00  0.00    +0.000 A 
BRANCH  29  36
ATOM     35  C   UNL     1      -6.890  10.103  19.154  0.00  0.00    +0.000 C 
ATOM     36  O   UNL     1      -6.397  11.147  18.323  0.00  0.00    +0.000 OA
ENDBRANCH  29  36
ENDBRANCH  21  32
ENDBRANCH  20  25
ENDBRANCH   1  20
TORSDOF 5
ENDMDL
MODEL 5
REMARK VINA RESULT:      -7.4      6.757     10.876
REMARK  Name = 
REMARK  7 active torsions:
REMARK  status: ('A' for Active; 'I' for Inactive)
REMARK    1  A    between atoms: C_1  and  O_2
REMARK    2  A    between atoms: O_2  and  C_3
REMARK    3  A    between atoms: C_6  and  N_7
REMARK    4  A    between atoms: C_11  and  C_13
REMARK    5  A    between atoms: C_13  and  N_14
REMARK    6  A    between atoms: C_18  and  C_19
REMARK    7  A    between atoms: C_18  and  C_20
REMARK                            x       y       z     vdW  Elec       q    Type
REMARK                         _______ _______ _______ _____ _____    ______ ____
ROOT
ATOM      1  N   UNL     1       6.161  15.897  21.802  0.00  0.00    +0.000 N 
ATOM      2  C   UNL     1       7.227  16.693  22.051  0.00  0.00    +0.000 C 
ATOM      3  O   UNL     1       7.277  17.911  21.995  0.00  0.00    +0.000 OA
ATOM      4  N   UNL     1       8.277  15.919  22.472  0.00  0.00    +0.000 N 
ATOM      5  C   UNL     1       7.928  14.520  22.620  0.00  0.00    +0.000 C 
ATOM      6  C   UNL     1       8.096  14.080  24.071  0.00  0.00    +0.000 C 
ATOM      7  C   UNL     1       6.416  14.637  22.270  0.00  0.00    +0.000 C 
ATOM      8  O   UNL     1       5.581  13.757  22.438  0.00  0.00    +0.000 OA
ATOM      9  H   UNL     1       9.134  16.346  22.793  0.00  0.00    +0.000 HD
ENDROOT
BRANCH   5  10
ATOM     10  C   UNL     1       8.697  13.632  21.643  0.00  0.00    +0.000 A 
ATOM     11  C   UNL     1       8.790  12.249  21.858  0.00  0.00    +0.000 A 
ATOM     12  C   UNL     1       9.389  11.409  20.917  0.00  0.00    +0.000 A 
ATOM     13  C   UNL     1       9.941  11.927  19.742  0.00  0.00    +0.000 A 
ATOM     14  C   UNL     1      10.469  11.081  18.754  0.00  0.00    +0.000 A 
ATOM     15  C   UNL     1      11.026  11.606  17.588  0.00  0.00    +0.000 A 
ATOM     16  C   UNL     1      11.093  12.985  17.413  0.00  0.00    +0.000 A 
ATOM     17  C   UNL     1      10.564  13.839  18.386  0.00  0.00    +0.000 A 
ATOM     18  C   UNL     1       9.955  13.324  19.546  0.00  0.00    +0.000 A 
ATOM     19  C   UNL     1       9.337  14.159  20.504  0.00  0.00    +0.000 A 
ENDBRANCH   5  10
BRANCH   1  20
ATOM     20  C   UNL     1       4.846  16.377  21.436  0.00  0.00    +0.000 C 
BRANCH  20  25
ATOM     21  N   UNL     1       1.838  12.740  19.287  0.00  0.00    +0.000 N 
ATOM     22  C   UNL     1       2.912  13.102  18.347  0.00  0.00    +0.000 C 
ATOM     23  C   UNL     1       3.179  14.616  18.426  0.00  0.00    +0.000 C 
ATOM     24  N   UNL     1       3.468  15.041  19.802  0.00  0.00    +0.000 N 
ATOM     25  C   UNL     1       4.463  15.985  20.005  0.00  0.00    +0.000 C 
ATOM     26  O   UNL     1       5.060  16.497  19.055  0.00  0.00    +0.000 OA
ATOM     27  C   UNL     1       2.439  14.644  20.776  0.00  0.00    +0.000 C 
ATOM     28  C   UNL     1       2.072  13.147  20.682  0.00  0.00    +0.000 C 
BRANCH  21  32
ATOM     29  C   UNL     1      -1.546  10.622  17.901  0.00  0.00    +0.000 A 
ATOM     30  C   UNL     1      -0.360   9.954  18.190  0.00  0.00    +0.000 A 
ATOM     31  C   UNL     1       0.748  10.657  18.679  0.00  0.00    +0.000 A 
ATOM     32  C   UNL     1       0.722  12.046  18.872  0.00  0.00    +0.000 A 
ATOM     33  C   UNL     1      -0.487  12.691  18.579  0.00  0.00    +0.000 A 
ATOM     34  C   UNL     1      -1.606  11.996  18.094  0.00  0.00    +0.000 A 
BRANCH  29  36
ATOM     35  C   UNL     1      -3.842  10.431  17.393  0.00  0.00    +0.000 C 
ATOM     36  O   UNL     1      -2.547   9.844  17.395  0.00  0.00    +0.000 OA
ENDBRANCH  29  36
ENDBRANCH  21  32
ENDBRANCH  20  25
ENDBRANCH   1  20
TORSDOF 5
ENDMDL
MODEL 6
REMARK VINA RESULT:      -7.4      4.013      7.070
REMARK  Name = 
REMARK  7 active torsions:
REMARK  status: ('A' for Active; 'I' for Inactive)
REMARK    1  A    between atoms: C_1  and  O_2
REMARK    2  A    between atoms: O_2  and  C_3
REMARK    3  A    between atoms: C_6  and  N_7
REMARK    4  A    between atoms: C_11  and  C_13
REMARK    5  A    between atoms: C_13  and  N_14
REMARK    6  A    between atoms: C_18  and  C_19
REMARK    7  A    between atoms: C_18  and  C_20
REMARK                            x       y       z     vdW  Elec       q    Type
REMARK                         _______ _______ _______ _____ _____    ______ ____
ROOT
ATOM      1  N   UNL     1       0.136  14.005  20.107  0.00  0.00    +0.000 N 
ATOM      2  C   UNL     1      -0.020  15.303  19.757  0.00  0.00    +0.000 C 
ATOM      3  O   UNL     1      -1.014  15.836  19.292  0.00  0.00    +0.000 OA
ATOM      4  N   UNL     1       1.118  15.995  20.082  0.00  0.00    +0.000 N 
ATOM      5  C   UNL     1       2.097  15.184  20.777  0.00  0.00    +0.000 C 
ATOM      6  C   UNL     1       2.352  15.738  22.175  0.00  0.00    +0.000 C 
ATOM      7  C   UNL     1       1.266  13.872  20.866  0.00  0.00    +0.000 C 
ATOM      8  O   UNL     1       1.553  12.897  21.551  0.00  0.00    +0.000 OA
ATOM      9  H   UNL     1       1.156  16.999  19.979  0.00  0.00    +0.000 HD
ENDROOT
BRANCH   5  10
ATOM     10  C   UNL     1       3.382  15.018  19.966  0.00  0.00    +0.000 A 
ATOM     11  C   UNL     1       3.330  14.854  18.573  0.00  0.00    +0.000 A 
ATOM     12  C   UNL     1       4.496  14.816  17.805  0.00  0.00    +0.000 A 
ATOM     13  C   UNL     1       5.754  14.914  18.406  0.00  0.00    +0.000 A 
ATOM     14  C   UNL     1       6.925  14.963  17.633  0.00  0.00    +0.000 A 
ATOM     15  C   UNL     1       8.177  15.052  18.241  0.00  0.00    +0.000 A 
ATOM     16  C   UNL     1       8.274  15.058  19.629  0.00  0.00    +0.000 A 
ATOM     17  C   UNL     1       7.115  15.017  20.410  0.00  0.00    +0.000 A 
ATOM     18  C   UNL     1       5.842  14.976  19.812  0.00  0.00    +0.000 A 
ATOM     19  C   UNL     1       4.653  15.021  20.575  0.00  0.00    +0.000 A 
ENDBRANCH   5  10
BRANCH   1  20
ATOM     20  C   UNL     1      -0.898  12.998  20.005  0.00  0.00    +0.000 C 
BRANCH  20  25
ATOM     21  N   UNL     1       1.650   8.529  19.354  0.00  0.00    +0.000 N 
ATOM     22  C   UNL     1       1.606   9.255  18.074  0.00  0.00    +0.000 C 
ATOM     23  C   UNL     1       0.241   9.948  17.921  0.00  0.00    +0.000 C 
ATOM     24  N   UNL     1      -0.057  10.813  19.070  0.00  0.00    +0.000 N 
ATOM     25  C   UNL     1      -0.661  12.039  18.834  0.00  0.00    +0.000 C 
ATOM     26  O   UNL     1      -0.989  12.379  17.694  0.00  0.00    +0.000 OA
ATOM     27  C   UNL     1       0.035  10.129  20.369  0.00  0.00    +0.000 C 
ATOM     28  C   UNL     1       1.354   9.346  20.542  0.00  0.00    +0.000 C 
BRANCH  21  32
ATOM     29  C   UNL     1       2.544   4.400  19.481  0.00  0.00    +0.000 A 
ATOM     30  C   UNL     1       2.841   5.156  18.352  0.00  0.00    +0.000 A 
ATOM     31  C   UNL     1       2.572   6.530  18.328  0.00  0.00    +0.000 A 
ATOM     32  C   UNL     1       1.976   7.191  19.412  0.00  0.00    +0.000 A 
ATOM     33  C   UNL     1       1.693   6.406  20.538  0.00  0.00    +0.000 A 
ATOM     34  C   UNL     1       1.964   5.029  20.576  0.00  0.00    +0.000 A 
BRANCH  29  36
ATOM     35  C   UNL     1       2.269   2.413  18.240  0.00  0.00    +0.000 C 
ATOM     36  O   UNL     1       2.814   3.066  19.379  0.00  0.00    +0.000 OA
ENDBRANCH  29  36
ENDBRANCH  21  32
ENDBRANCH  20  25
ENDBRANCH   1  20
TORSDOF 5
ENDMDL
MODEL 7
REMARK VINA RESULT:      -7.4      4.184      7.280
REMARK  Name = 
REMARK  7 active torsions:
REMARK  status: ('A' for Active; 'I' for Inactive)
REMARK    1  A    between atoms: C_1  and  O_2
REMARK    2  A    between atoms: O_2  and  C_3
REMARK    3  A    between atoms: C_6  and  N_7
REMARK    4  A    between atoms: C_11  and  C_13
REMARK    5  A    between atoms: C_13  and  N_14
REMARK    6  A    between atoms: C_18  and  C_19
REMARK    7  A    between atoms: C_18  and  C_20
REMARK                            x       y       z     vdW  Elec       q    Type
REMARK                         _______ _______ _______ _____ _____    ______ ____
ROOT
ATOM      1  N   UNL     1       0.252  14.332  20.056  0.00  0.00    +0.000 N 
ATOM      2  C   UNL     1       0.105  15.567  19.523  0.00  0.00    +0.000 C 
ATOM      3  O   UNL     1      -0.879  16.027  18.968  0.00  0.00    +0.000 OA
ATOM      4  N   UNL     1       1.236  16.301  19.772  0.00  0.00    +0.000 N 
ATOM      5  C   UNL     1       2.200  15.598  20.594  0.00  0.00    +0.000 C 
ATOM      6  C   UNL     1       2.426  16.344  21.906  0.00  0.00    +0.000 C 
ATOM      7  C   UNL     1       1.366  14.310  20.850  0.00  0.00    +0.000 C 
ATOM      8  O   UNL     1       1.638  13.442  21.671  0.00  0.00    +0.000 OA
ATOM      9  H   UNL     1       1.277  17.281  19.529  0.00  0.00    +0.000 HD
ENDROOT
BRANCH   5  10
ATOM     10  C   UNL     1       3.501  15.323  19.841  0.00  0.00    +0.000 A 
ATOM     11  C   UNL     1       3.502  15.183  18.445  0.00  0.00    +0.000 A 
ATOM     12  C   UNL     1       4.694  15.046  17.732  0.00  0.00    +0.000 A 
ATOM     13  C   UNL     1       5.926  15.016  18.393  0.00  0.00    +0.000 A 
ATOM     14  C   UNL     1       7.133  14.963  17.678  0.00  0.00    +0.000 A 
ATOM     15  C   UNL     1       8.356  14.925  18.345  0.00  0.00    +0.000 A 
ATOM     16  C   UNL     1       8.386  14.902  19.736  0.00  0.00    +0.000 A 
ATOM     17  C   UNL     1       7.192  14.961  20.461  0.00  0.00    +0.000 A 
ATOM     18  C   UNL     1       5.951  15.049  19.803  0.00  0.00    +0.000 A 
ATOM     19  C   UNL     1       4.736  15.196  20.510  0.00  0.00    +0.000 A 
ENDBRANCH   5  10
BRANCH   1  20
ATOM     20  C   UNL     1      -0.780  13.318  20.076  0.00  0.00    +0.000 C 
BRANCH  20  25
ATOM     21  N   UNL     1       1.621   8.764  19.458  0.00  0.00    +0.000 N 
ATOM     22  C   UNL     1       1.528   9.446  18.156  0.00  0.00    +0.000 C 
ATOM     23  C   UNL     1       0.173  10.169  18.048  0.00  0.00    +0.000 C 
ATOM     24  N   UNL     1      -0.043  11.081  19.179  0.00  0.00    +0.000 N 
ATOM     25  C   UNL     1      -0.628  12.313  18.930  0.00  0.00    +0.000 C 
ATOM     26  O   UNL     1      -1.008  12.622  17.797  0.00  0.00    +0.000 OA
ATOM     27  C   UNL     1       0.101  10.441  20.496  0.00  0.00    +0.000 C 
ATOM     28  C   UNL     1       1.408   9.630  20.628  0.00  0.00    +0.000 C 
BRANCH  21  32
ATOM     29  C   UNL     1       2.630   4.674  19.793  0.00  0.00    +0.000 A 
ATOM     30  C   UNL     1       1.885   5.305  20.784  0.00  0.00    +0.000 A 
ATOM     31  C   UNL     1       1.527   6.652  20.652  0.00  0.00    +0.000 A 
ATOM     32  C   UNL     1       1.918   7.421  19.547  0.00  0.00    +0.000 A 
ATOM     33  C   UNL     1       2.662   6.759  18.561  0.00  0.00    +0.000 A 
ATOM     34  C   UNL     1       3.023   5.408  18.680  0.00  0.00    +0.000 A 
BRANCH  29  36
ATOM     35  C   UNL     1       2.483   2.848  21.279  0.00  0.00    +0.000 C 
ATOM     36  O   UNL     1       2.954   3.372  20.044  0.00  0.00    +0.000 OA
ENDBRANCH  29  36
ENDBRANCH  21  32
ENDBRANCH  20  25
ENDBRANCH   1  20
TORSDOF 5
ENDMDL
MODEL 8
REMARK VINA RESULT:      -7.2      3.476     11.481
REMARK  Name = 
REMARK  7 active torsions:
REMARK  status: ('A' for Active; 'I' for Inactive)
REMARK    1  A    between atoms: C_1  and  O_2
REMARK    2  A    between atoms: O_2  and  C_3
REMARK    3  A    between atoms: C_6  and  N_7
REMARK    4  A    between atoms: C_11  and  C_13
REMARK    5  A    between atoms: C_13  and  N_14
REMARK    6  A    between atoms: C_18  and  C_19
REMARK    7  A    between atoms: C_18  and  C_20
REMARK                            x       y       z     vdW  Elec       q    Type
REMARK                         _______ _______ _______ _____ _____    ______ ____
ROOT
ATOM      1  N   UNL     1       2.851   4.932  19.281  0.00  0.00    +0.000 N 
ATOM      2  C   UNL     1       3.817   4.198  19.882  0.00  0.00    +0.000 C 
ATOM      3  O   UNL     1       4.107   4.175  21.066  0.00  0.00    +0.000 OA
ATOM      4  N   UNL     1       4.404   3.381  18.950  0.00  0.00    +0.000 N 
ATOM      5  C   UNL     1       3.777   3.463  17.647  0.00  0.00    +0.000 C 
ATOM      6  C   UNL     1       3.191   2.111  17.251  0.00  0.00    +0.000 C 
ATOM      7  C   UNL     1       2.634   4.451  18.019  0.00  0.00    +0.000 C 
ATOM      8  O   UNL     1       1.668   4.713  17.313  0.00  0.00    +0.000 OA
ATOM      9  H   UNL     1       5.087   2.691  19.230  0.00  0.00    +0.000 HD
ENDROOT
BRANCH   5  10
ATOM     10  C   UNL     1       4.727   4.025  16.590  0.00  0.00    +0.000 A 
ATOM     11  C   UNL     1       5.648   5.030  16.921  0.00  0.00    +0.000 A 
ATOM     12  C   UNL     1       6.599   5.473  15.999  0.00  0.00    +0.000 A 
ATOM     13  C   UNL     1       6.643   4.946  14.705  0.00  0.00    +0.000 A 
ATOM     14  C   UNL     1       7.648   5.325  13.801  0.00  0.00    +0.000 A 
ATOM     15  C   UNL     1       7.679   4.801  12.509  0.00  0.00    +0.000 A 
ATOM     16  C   UNL     1       6.685   3.919  12.095  0.00  0.00    +0.000 A 
ATOM     17  C   UNL     1       5.683   3.528  12.988  0.00  0.00    +0.000 A 
ATOM     18  C   UNL     1       5.664   4.010  14.310  0.00  0.00    +0.000 A 
ATOM     19  C   UNL     1       4.714   3.566  15.258  0.00  0.00    +0.000 A 
ENDBRANCH   5  10
BRANCH   1  20
ATOM     20  C   UNL     1       1.954   5.831  19.973  0.00  0.00    +0.000 C 
BRANCH  20  25
ATOM     21  N   UNL     1      -0.280  10.354  21.174  0.00  0.00    +0.000 N 
ATOM     22  C   UNL     1       0.198  10.401  19.782  0.00  0.00    +0.000 C 
ATOM     23  C   UNL     1       1.544   9.663  19.673  0.00  0.00    +0.000 C 
ATOM     24  N   UNL     1       1.450   8.291  20.190  0.00  0.00    +0.000 N 
ATOM     25  C   UNL     1       2.112   7.281  19.508  0.00  0.00    +0.000 C 
ATOM     26  O   UNL     1       2.806   7.530  18.519  0.00  0.00    +0.000 OA
ATOM     27  C   UNL     1       0.921   8.207  21.561  0.00  0.00    +0.000 C 
ATOM     28  C   UNL     1      -0.390   9.003  21.746  0.00  0.00    +0.000 C 
BRANCH  21  32
ATOM     29  C   UNL     1      -1.409  13.897  23.181  0.00  0.00    +0.000 A 
ATOM     30  C   UNL     1      -2.084  12.704  23.414  0.00  0.00    +0.000 A 
ATOM     31  C   UNL     1      -1.685  11.526  22.770  0.00  0.00    +0.000 A 
ATOM     32  C   UNL     1      -0.622  11.501  21.856  0.00  0.00    +0.000 A 
ATOM     33  C   UNL     1       0.043  12.717  21.645  0.00  0.00    +0.000 A 
ATOM     34  C   UNL     1      -0.344  13.902  22.289  0.00  0.00    +0.000 A 
BRANCH  29  36
ATOM     35  C   UNL     1      -1.220  15.363  25.020  0.00  0.00    +0.000 C 
ATOM     36  O   UNL     1      -1.908  14.988  23.833  0.00  0.00    +0.000 OA
ENDBRANCH  29  36
ENDBRANCH  21  32
ENDBRANCH  20  25
ENDBRANCH   1  20
TORSDOF 5
ENDMDL
MODEL 9
REMARK VINA RESULT:      -7.2      6.768     11.104
REMARK  Name = 
REMARK  7 active torsions:
REMARK  status: ('A' for Active; 'I' for Inactive)
REMARK    1  A    between atoms: C_1  and  O_2
REMARK    2  A    between atoms: O_2  and  C_3
REMARK    3  A    between atoms: C_6  and  N_7
REMARK    4  A    between atoms: C_11  and  C_13
REMARK    5  A    between atoms: C_13  and  N_14
REMARK    6  A    between atoms: C_18  and  C_19
REMARK    7  A    between atoms: C_18  and  C_20
REMARK                            x       y       z     vdW  Elec       q    Type
REMARK                         _______ _______ _______ _____ _____    ______ ____
ROOT
ATOM      1  N   UNL     1       5.526  15.800  20.693  0.00  0.00    +0.000 N 
ATOM      2  C   UNL     1       6.137  16.814  20.036  0.00  0.00    +0.000 C 
ATOM      3  O   UNL     1       5.625  17.635  19.292  0.00  0.00    +0.000 OA
ATOM      4  N   UNL     1       7.459  16.850  20.395  0.00  0.00    +0.000 N 
ATOM      5  C   UNL     1       7.796  15.882  21.419  0.00  0.00    +0.000 C 
ATOM      6  C   UNL     1       8.289  16.589  22.678  0.00  0.00    +0.000 C 
ATOM      7  C   UNL     1       6.368  15.309  21.652  0.00  0.00    +0.000 C 
ATOM      8  O   UNL     1       6.042  14.578  22.580  0.00  0.00    +0.000 OA
ATOM      9  H   UNL     1       8.058  17.599  20.076  0.00  0.00    +0.000 HD
ENDROOT
BRANCH   5  10
ATOM     10  C   UNL     1       8.782  14.831  20.910  0.00  0.00    +0.000 A 
ATOM     11  C   UNL     1       9.271  13.836  21.770  0.00  0.00    +0.000 A 
ATOM     12  C   UNL     1      10.081  12.802  21.295  0.00  0.00    +0.000 A 
ATOM     13  C   UNL     1      10.452  12.744  19.949  0.00  0.00    +0.000 A 
ATOM     14  C   UNL     1      11.195  11.663  19.447  0.00  0.00    +0.000 A 
ATOM     15  C   UNL     1      11.569  11.617  18.105  0.00  0.00    +0.000 A 
ATOM     16  C   UNL     1      11.235  12.668  17.256  0.00  0.00    +0.000 A 
ATOM     17  C   UNL     1      10.489  13.747  17.741  0.00  0.00    +0.000 A 
ATOM     18  C   UNL     1      10.062  13.786  19.081  0.00  0.00    +0.000 A 
ATOM     19  C   UNL     1       9.236  14.820  19.576  0.00  0.00    +0.000 A 
ENDBRANCH   5  10
BRANCH   1  20
ATOM     20  C   UNL     1       4.108  15.523  20.638  0.00  0.00    +0.000 C 
BRANCH  20  25
ATOM     21  N   UNL     1       0.154  12.362  19.512  0.00  0.00    +0.000 N 
ATOM     22  C   UNL     1       1.367  11.889  18.823  0.00  0.00    +0.000 C 
ATOM     23  C   UNL     1       2.182  13.097  18.326  0.00  0.00    +0.000 C 
ATOM     24  N   UNL     1       2.482  14.031  19.419  0.00  0.00    +0.000 N 
ATOM     25  C   UNL     1       3.738  14.617  19.459  0.00  0.00    +0.000 C 
ATOM     26  O   UNL     1       4.571  14.402  18.574  0.00  0.00    +0.000 OA
ATOM     27  C   UNL     1       1.295  14.478  20.163  0.00  0.00    +0.000 C 
ATOM     28  C   UNL     1       0.396  13.306  20.615  0.00  0.00    +0.000 C 
BRANCH  21  32
ATOM     29  C   UNL     1      -3.678  11.051  18.305  0.00  0.00    +0.000 A 
ATOM     30  C   UNL     1      -2.538  10.342  17.941  0.00  0.00    +0.000 A 
ATOM     31  C   UNL     1      -1.273  10.763  18.370  0.00  0.00    +0.000 A 
ATOM     32  C   UNL     1      -1.098  11.914  19.152  0.00  0.00    +0.000 A 
ATOM     33  C   UNL     1      -2.264  12.605  19.509  0.00  0.00    +0.000 A 
ATOM     34  C   UNL     1      -3.537  12.189  19.089  0.00  0.00    +0.000 A 
BRANCH  29  36
ATOM     35  C   UNL     1      -5.965  10.615  18.682  0.00  0.00    +0.000 C 
ATOM     36  O   UNL     1      -4.851  10.571  17.799  0.00  0.00    +0.000 OA
ENDBRANCH  29  36
ENDBRANCH  21  32
ENDBRANCH  20  25
ENDBRANCH   1  20
TORSDOF 5
ENDMDL
