MODEL 1
REMARK VINA RESULT:      -7.6      0.000      0.000
REMARK  Name = 
REMARK  6 active torsions:
REMARK  status: ('A' for Active; 'I' for Inactive)
REMARK    1  A    between atoms: C_1  and  C_2
REMARK    2  A    between atoms: C_2  and  C_3
REMARK    3  A    between atoms: C_2  and  C_4
REMARK    4  A    between atoms: C_4  and  N_5
REMARK    5  A    between atoms: C_4  and  C_13
REMARK    6  A    between atoms: C_6  and  C_8
REMARK                            x       y       z     vdW  Elec       q    Type
REMARK                         _______ _______ _______ _____ _____    ______ ____
ROOT
ATOM      1  C   UNL     1       6.754   6.280  17.129  0.00  0.00    +0.000 C 
ENDROOT
BRANCH   1   2
ATOM      2  C   UNL     1       6.493   5.053  18.078  0.00  0.00    +0.000 C 
ATOM      3  O   UNL     1       7.346   4.170  18.197  0.00  0.00    +0.000 OA
ATOM      4  N   UNL     1       5.326   5.045  18.852  0.00  0.00    +0.000 N 
ATOM      5  C   UNL     1       5.161   4.043  19.914  0.00  0.00    +0.000 C 
ATOM      6  C   UNL     1       4.057   3.044  19.578  0.00  0.00    +0.000 C 
ATOM      7  C   UNL     1       2.756   3.756  19.205  0.00  0.00    +0.000 C 
ATOM      8  C   UNL     1       3.012   4.795  18.108  0.00  0.00    +0.000 C 
ATOM      9  C   UNL     1       4.101   5.774  18.524  0.00  0.00    +0.000 C 
ATOM     10  O   UNL     1       2.217   4.410  20.371  0.00  0.00    +0.000 OA
ATOM     11  C   UNL     1       0.819   4.122  20.337  0.00  0.00    +0.000 C 
ATOM     12  C   UNL     1       0.756   2.771  19.680  0.00  0.00    +0.000 C 
ATOM     13  O   UNL     1       1.801   2.810  18.709  0.00  0.00    +0.000 OA
ENDBRANCH   1   2
BRANCH   1  14
ATOM     14  N   UNL     1       7.023   5.812  15.760  0.00  0.00    +0.000 N 
ATOM     15  C   UNL     1       6.169   4.979  15.074  0.00  0.00    +0.000 C 
ATOM     16  O   UNL     1       5.096   4.593  15.548  0.00  0.00    +0.000 OA
ATOM     17  H   UNL     1       7.854   6.152  15.280  0.00  0.00    +0.000 HD
BRANCH  15  18
ATOM     18  C   UNL     1       6.607   4.614  13.737  0.00  0.00    +0.000 A 
ATOM     19  C   UNL     1       6.208   3.594  12.891  0.00  0.00    +0.000 A 
ATOM     20  C   UNL     1       6.927   3.754  11.682  0.00  0.00    +0.000 A 
ATOM     21  C   UNL     1       7.750   4.839  11.872  0.00  0.00    +0.000 A 
ATOM     22  O   UNL     1       7.570   5.366  13.110  0.00  0.00    +0.000 OA
ENDBRANCH  15  18
ENDBRANCH   1  14
BRANCH   1  24
ATOM     23  C   UNL     1       7.592   8.679  17.599  0.00  0.00    +0.000 C 
ATOM     24  C   UNL     1       7.911   7.175  17.659  0.00  0.00    +0.000 C 
ATOM     25  C   UNL     1       8.280   6.861  19.114  0.00  0.00    +0.000 C 
ENDBRANCH   1  24
TORSDOF 4
ENDMDL
MODEL 2
REMARK VINA RESULT:      -7.3      2.306      4.854
REMARK  Name = 
REMARK  6 active torsions:
REMARK  status: ('A' for Active; 'I' for Inactive)
REMARK    1  A    between atoms: C_1  and  C_2
REMARK    2  A    between atoms: C_2  and  C_3
REMARK    3  A    between atoms: C_2  and  C_4
REMARK    4  A    between atoms: C_4  and  N_5
REMARK    5  A    between atoms: C_4  and  C_13
REMARK    6  A    between atoms: C_6  and  C_8
REMARK                            x       y       z     vdW  Elec       q    Type
REMARK                         _______ _______ _______ _____ _____    ______ ____
ROOT
ATOM      1  C   UNL     1       6.284   6.295  17.111  0.00  0.00    +0.000 C 
ENDROOT
BRANCH   1   2
ATOM      2  C   UNL     1       4.745   6.430  17.404  0.00  0.00    +0.000 C 
ATOM      3  O   UNL     1       4.169   7.504  17.210  0.00  0.00    +0.000 OA
ATOM      4  N   UNL     1       4.035   5.285  17.789  0.00  0.00    +0.000 N 
ATOM      5  C   UNL     1       2.568   5.318  17.843  0.00  0.00    +0.000 C 
ATOM      6  C   UNL     1       2.056   5.211  19.277  0.00  0.00    +0.000 C 
ATOM      7  C   UNL     1       2.665   4.008  19.998  0.00  0.00    +0.000 C 
ATOM      8  C   UNL     1       4.193   4.034  19.882  0.00  0.00    +0.000 C 
ATOM      9  C   UNL     1       4.630   4.110  18.426  0.00  0.00    +0.000 C 
ATOM     10  O   UNL     1       2.158   2.792  19.413  0.00  0.00    +0.000 OA
ATOM     11  C   UNL     1       1.851   1.952  20.526  0.00  0.00    +0.000 C 
ATOM     12  C   UNL     1       1.459   2.926  21.602  0.00  0.00    +0.000 C 
ATOM     13  O   UNL     1       2.323   4.042  21.389  0.00  0.00    +0.000 OA
ENDBRANCH   1   2
BRANCH   1  14
ATOM     14  N   UNL     1       6.953   7.589  17.316  0.00  0.00    +0.000 N 
ATOM     15  C   UNL     1       7.944   7.779  18.251  0.00  0.00    +0.000 C 
ATOM     16  O   UNL     1       8.368   6.862  18.963  0.00  0.00    +0.000 OA
ATOM     17  H   UNL     1       6.705   8.370  16.711  0.00  0.00    +0.000 HD
BRANCH  15  18
ATOM     18  C   UNL     1       8.480   9.128  18.317  0.00  0.00    +0.000 A 
ATOM     19  C   UNL     1       8.269  10.235  17.515  0.00  0.00    +0.000 A 
ATOM     20  C   UNL     1       8.998  11.306  18.086  0.00  0.00    +0.000 A 
ATOM     21  C   UNL     1       9.642  10.782  19.183  0.00  0.00    +0.000 A 
ATOM     22  O   UNL     1       9.340   9.466  19.333  0.00  0.00    +0.000 OA
ENDBRANCH  15  18
ENDBRANCH   1  14
BRANCH   1  24
ATOM     23  C   UNL     1       7.081   4.301  15.673  0.00  0.00    +0.000 C 
ATOM     24  C   UNL     1       6.545   5.743  15.680  0.00  0.00    +0.000 C 
ATOM     25  C   UNL     1       5.283   5.747  14.807  0.00  0.00    +0.000 C 
ENDBRANCH   1  24
TORSDOF 4
ENDMDL
MODEL 3
REMARK VINA RESULT:      -7.3      2.907      7.375
REMARK  Name = 
REMARK  6 active torsions:
REMARK  status: ('A' for Active; 'I' for Inactive)
REMARK    1  A    between atoms: C_1  and  C_2
REMARK    2  A    between atoms: C_2  and  C_3
REMARK    3  A    between atoms: C_2  and  C_4
REMARK    4  A    between atoms: C_4  and  N_5
REMARK    5  A    between atoms: C_4  and  C_13
REMARK    6  A    between atoms: C_6  and  C_8
REMARK                            x       y       z     vdW  Elec       q    Type
REMARK                         _______ _______ _______ _____ _____    ______ ____
ROOT
ATOM      1  C   UNL     1       2.699   4.860  19.370  0.00  0.00    +0.000 C 
ENDROOT
BRANCH   1   2
ATOM      2  C   UNL     1       4.256   4.949  19.169  0.00  0.00    +0.000 C 
ATOM      3  O   UNL     1       4.964   5.470  20.035  0.00  0.00    +0.000 OA
ATOM      4  N   UNL     1       4.820   4.335  18.043  0.00  0.00    +0.000 N 
ATOM      5  C   UNL     1       6.279   4.193  17.942  0.00  0.00    +0.000 C 
ATOM      6  C   UNL     1       6.853   5.069  16.831  0.00  0.00    +0.000 C 
ATOM      7  C   UNL     1       6.125   4.837  15.506  0.00  0.00    +0.000 C 
ATOM      8  C   UNL     1       4.611   4.984  15.697  0.00  0.00    +0.000 C 
ATOM      9  C   UNL     1       4.106   4.061  16.797  0.00  0.00    +0.000 C 
ATOM     10  O   UNL     1       6.423   3.512  15.021  0.00  0.00    +0.000 OA
ATOM     11  C   UNL     1       6.673   3.684  13.626  0.00  0.00    +0.000 C 
ATOM     12  C   UNL     1       7.258   5.066  13.542  0.00  0.00    +0.000 C 
ATOM     13  O   UNL     1       6.548   5.803  14.536  0.00  0.00    +0.000 OA
ENDBRANCH   1   2
BRANCH   1  14
ATOM     14  N   UNL     1       2.210   6.062  20.065  0.00  0.00    +0.000 N 
ATOM     15  C   UNL     1       2.013   7.265  19.428  0.00  0.00    +0.000 C 
ATOM     16  O   UNL     1       2.199   7.412  18.216  0.00  0.00    +0.000 OA
ATOM     17  H   UNL     1       1.964   5.992  21.051  0.00  0.00    +0.000 HD
BRANCH  15  18
ATOM     18  C   UNL     1       1.536   8.342  20.280  0.00  0.00    +0.000 A 
ATOM     19  C   UNL     1       1.353   8.412  21.649  0.00  0.00    +0.000 A 
ATOM     20  C   UNL     1       0.929   9.729  21.945  0.00  0.00    +0.000 A 
ATOM     21  C   UNL     1       0.842  10.379  20.735  0.00  0.00    +0.000 A 
ATOM     22  O   UNL     1       1.203   9.551  19.721  0.00  0.00    +0.000 OA
ENDBRANCH  15  18
ENDBRANCH   1  14
BRANCH   1  24
ATOM     23  C   UNL     1       2.198   3.757  21.652  0.00  0.00    +0.000 C 
ATOM     24  C   UNL     1       2.295   3.563  20.129  0.00  0.00    +0.000 C 
ATOM     25  C   UNL     1       0.941   3.008  19.670  0.00  0.00    +0.000 C 
ENDBRANCH   1  24
TORSDOF 4
ENDMDL
MODEL 4
REMARK VINA RESULT:      -7.2      1.552      2.323
REMARK  Name = 
REMARK  6 active torsions:
REMARK  status: ('A' for Active; 'I' for Inactive)
REMARK    1  A    between atoms: C_1  and  C_2
REMARK    2  A    between atoms: C_2  and  C_3
REMARK    3  A    between atoms: C_2  and  C_4
REMARK    4  A    between atoms: C_4  and  N_5
REMARK    5  A    between atoms: C_4  and  C_13
REMARK    6  A    between atoms: C_6  and  C_8
REMARK                            x       y       z     vdW  Elec       q    Type
REMARK                         _______ _______ _______ _____ _____    ______ ____
ROOT
ATOM      1  C   UNL     1       5.982   6.251  16.861  0.00  0.00    +0.000 C 
ENDROOT
BRANCH   1   2
ATOM      2  C   UNL     1       4.557   6.570  17.444  0.00  0.00    +0.000 C 
ATOM      3  O   UNL     1       4.165   7.738  17.518  0.00  0.00    +0.000 OA
ATOM      4  N   UNL     1       3.717   5.500  17.777  0.00  0.00    +0.000 N 
ATOM      5  C   UNL     1       2.306   5.752  18.100  0.00  0.00    +0.000 C 
ATOM      6  C   UNL     1       2.008   5.474  19.571  0.00  0.00    +0.000 C 
ATOM      7  C   UNL     1       2.488   4.082  19.984  0.00  0.00    +0.000 C 
ATOM      8  C   UNL     1       3.959   3.890  19.599  0.00  0.00    +0.000 C 
ATOM      9  C   UNL     1       4.175   4.153  18.115  0.00  0.00    +0.000 C 
ATOM     10  O   UNL     1       1.683   3.083  19.327  0.00  0.00    +0.000 OA
ATOM     11  C   UNL     1       1.401   2.118  20.340  0.00  0.00    +0.000 C 
ATOM     12  C   UNL     1       1.364   2.935  21.602  0.00  0.00    +0.000 C 
ATOM     13  O   UNL     1       2.375   3.922  21.404  0.00  0.00    +0.000 OA
ENDBRANCH   1   2
BRANCH   1  14
ATOM     14  N   UNL     1       5.862   5.365  15.692  0.00  0.00    +0.000 N 
ATOM     15  C   UNL     1       6.808   5.311  14.694  0.00  0.00    +0.000 C 
ATOM     16  O   UNL     1       7.846   5.979  14.728  0.00  0.00    +0.000 OA
ATOM     17  H   UNL     1       5.067   4.731  15.637  0.00  0.00    +0.000 HD
BRANCH  15  18
ATOM     18  C   UNL     1       6.512   4.385  13.614  0.00  0.00    +0.000 A 
ATOM     19  C   UNL     1       5.419   3.570  13.382  0.00  0.00    +0.000 A 
ATOM     20  C   UNL     1       5.635   2.929  12.139  0.00  0.00    +0.000 A 
ATOM     21  C   UNL     1       6.865   3.361  11.700  0.00  0.00    +0.000 A 
ATOM     22  O   UNL     1       7.408   4.238  12.583  0.00  0.00    +0.000 OA
ENDBRANCH  15  18
ENDBRANCH   1  14
BRANCH   1  24
ATOM     23  C   UNL     1       7.697   4.408  17.444  0.00  0.00    +0.000 C 
ATOM     24  C   UNL     1       6.916   5.636  17.942  0.00  0.00    +0.000 C 
ATOM     25  C   UNL     1       7.957   6.637  18.461  0.00  0.00    +0.000 C 
ENDBRANCH   1  24
TORSDOF 4
ENDMDL
MODEL 5
REMARK VINA RESULT:      -7.0      4.624      6.159
REMARK  Name = 
REMARK  6 active torsions:
REMARK  status: ('A' for Active; 'I' for Inactive)
REMARK    1  A    between atoms: C_1  and  C_2
REMARK    2  A    between atoms: C_2  and  C_3
REMARK    3  A    between atoms: C_2  and  C_4
REMARK    4  A    between atoms: C_4  and  N_5
REMARK    5  A    between atoms: C_4  and  C_13
REMARK    6  A    between atoms: C_6  and  C_8
REMARK                            x       y       z     vdW  Elec       q    Type
REMARK                         _______ _______ _______ _____ _____    ______ ____
ROOT
ATOM      1  C   UNL     1       2.950   6.771  18.852  0.00  0.00    +0.000 C 
ENDROOT
BRANCH   1   2
ATOM      2  C   UNL     1       2.296   8.104  18.333  0.00  0.00    +0.000 C 
ATOM      3  O   UNL     1       2.621   8.568  17.237  0.00  0.00    +0.000 OA
ATOM      4  N   UNL     1       1.272   8.684  19.093  0.00  0.00    +0.000 N 
ATOM      5  C   UNL     1       0.481   9.788  18.531  0.00  0.00    +0.000 C 
ATOM      6  C   UNL     1       0.754  11.102  19.259  0.00  0.00    +0.000 C 
ATOM      7  C   UNL     1       0.592  10.945  20.772  0.00  0.00    +0.000 C 
ATOM      8  C   UNL     1       1.430   9.766  21.278  0.00  0.00    +0.000 C 
ATOM      9  C   UNL     1       1.084   8.486  20.530  0.00  0.00    +0.000 C 
ATOM     10  O   UNL     1      -0.798  10.717  21.084  0.00  0.00    +0.000 OA
ATOM     11  C   UNL     1      -1.056  11.546  22.217  0.00  0.00    +0.000 C 
ATOM     12  C   UNL     1      -0.129  12.712  22.018  0.00  0.00    +0.000 C 
ATOM     13  O   UNL     1       1.039  12.130  21.441  0.00  0.00    +0.000 OA
ENDBRANCH   1   2
BRANCH   1  14
ATOM     14  N   UNL     1       3.776   6.168  17.794  0.00  0.00    +0.000 N 
ATOM     15  C   UNL     1       4.987   5.563  18.044  0.00  0.00    +0.000 C 
ATOM     16  O   UNL     1       5.449   5.452  19.183  0.00  0.00    +0.000 OA
ATOM     17  H   UNL     1       3.420   6.158  16.840  0.00  0.00    +0.000 HD
BRANCH  15  18
ATOM     18  C   UNL     1       5.664   5.035  16.872  0.00  0.00    +0.000 A 
ATOM     19  C   UNL     1       5.331   4.005  16.010  0.00  0.00    +0.000 A 
ATOM     20  C   UNL     1       6.324   3.971  15.002  0.00  0.00    +0.000 A 
ATOM     21  C   UNL     1       7.226   4.957  15.326  0.00  0.00    +0.000 A 
ATOM     22  O   UNL     1       6.842   5.605  16.455  0.00  0.00    +0.000 OA
ENDBRANCH  15  18
ENDBRANCH   1  14
BRANCH   1  24
ATOM     23  C   UNL     1       1.590   4.624  18.386  0.00  0.00    +0.000 C 
ATOM     24  C   UNL     1       1.875   5.772  19.369  0.00  0.00    +0.000 C 
ATOM     25  C   UNL     1       2.266   5.122  20.702  0.00  0.00    +0.000 C 
ENDBRANCH   1  24
TORSDOF 4
ENDMDL
MODEL 6
REMARK VINA RESULT:      -6.9      2.983      7.552
REMARK  Name = 
REMARK  6 active torsions:
REMARK  status: ('A' for Active; 'I' for Inactive)
REMARK    1  A    between atoms: C_1  and  C_2
REMARK    2  A    between atoms: C_2  and  C_3
REMARK    3  A    between atoms: C_2  and  C_4
REMARK    4  A    between atoms: C_4  and  N_5
REMARK    5  A    between atoms: C_4  and  C_13
REMARK    6  A    between atoms: C_6  and  C_8
REMARK                            x       y       z     vdW  Elec       q    Type
REMARK                         _______ _______ _______ _____ _____    ______ ____
ROOT
ATOM      1  C   UNL     1       1.804   4.867  19.579  0.00  0.00    +0.000 C 
ENDROOT
BRANCH   1   2
ATOM      2  C   UNL     1       3.358   4.629  19.623  0.00  0.00    +0.000 C 
ATOM      3  O   UNL     1       3.981   4.796  20.674  0.00  0.00    +0.000 OA
ATOM      4  N   UNL     1       3.989   4.129  18.476  0.00  0.00    +0.000 N 
ATOM      5  C   UNL     1       5.384   3.674  18.549  0.00  0.00    +0.000 C 
ATOM      6  C   UNL     1       6.315   4.589  17.758  0.00  0.00    +0.000 C 
ATOM      7  C   UNL     1       5.814   4.791  16.327  0.00  0.00    +0.000 C 
ATOM      8  C   UNL     1       4.350   5.246  16.334  0.00  0.00    +0.000 C 
ATOM      9  C   UNL     1       3.478   4.272  17.113  0.00  0.00    +0.000 C 
ATOM     10  O   UNL     1       5.930   3.551  15.599  0.00  0.00    +0.000 OA
ATOM     11  C   UNL     1       6.463   3.924  14.329  0.00  0.00    +0.000 C 
ATOM     12  C   UNL     1       7.314   5.123  14.643  0.00  0.00    +0.000 C 
ATOM     13  O   UNL     1       6.591   5.800  15.670  0.00  0.00    +0.000 OA
ENDBRANCH   1   2
BRANCH   1  14
ATOM     14  N   UNL     1       1.464   6.110  20.290  0.00  0.00    +0.000 N 
ATOM     15  C   UNL     1       1.744   7.360  19.788  0.00  0.00    +0.000 C 
ATOM     16  O   UNL     1       2.272   7.527  18.684  0.00  0.00    +0.000 OA
ATOM     17  H   UNL     1       0.959   6.047  21.173  0.00  0.00    +0.000 HD
BRANCH  15  18
ATOM     18  C   UNL     1       1.344   8.469  20.637  0.00  0.00    +0.000 A 
ATOM     19  C   UNL     1       0.865   9.730  20.328  0.00  0.00    +0.000 A 
ATOM     20  C   UNL     1       0.573  10.375  21.553  0.00  0.00    +0.000 A 
ATOM     21  C   UNL     1       0.925   9.485  22.542  0.00  0.00    +0.000 A 
ATOM     22  O   UNL     1       1.395   8.331  22.002  0.00  0.00    +0.000 OA
ENDBRANCH  15  18
ENDBRANCH   1  14
BRANCH   1  24
ATOM     23  C   UNL     1       0.869   2.496  19.156  0.00  0.00    +0.000 C 
ATOM     24  C   UNL     1       1.025   3.652  20.159  0.00  0.00    +0.000 C 
ATOM     25  C   UNL     1       1.694   3.063  21.407  0.00  0.00    +0.000 C 
ENDBRANCH   1  24
TORSDOF 4
ENDMDL
MODEL 7
REMARK VINA RESULT:      -6.9      1.697      4.550
REMARK  Name = 
REMARK  6 active torsions:
REMARK  status: ('A' for Active; 'I' for Inactive)
REMARK    1  A    between atoms: C_1  and  C_2
REMARK    2  A    between atoms: C_2  and  C_3
REMARK    3  A    between atoms: C_2  and  C_4
REMARK    4  A    between atoms: C_4  and  N_5
REMARK    5  A    between atoms: C_4  and  C_13
REMARK    6  A    between atoms: C_6  and  C_8
REMARK                            x       y       z     vdW  Elec       q    Type
REMARK                         _______ _______ _______ _____ _____    ______ ____
ROOT
ATOM      1  C   UNL     1       6.736   5.106  16.416  0.00  0.00    +0.000 C 
ENDROOT
BRANCH   1   2
ATOM      2  C   UNL     1       5.165   5.170  16.465  0.00  0.00    +0.000 C 
ATOM      3  O   UNL     1       4.554   5.965  15.745  0.00  0.00    +0.000 OA
ATOM      4  N   UNL     1       4.484   4.241  17.261  0.00  0.00    +0.000 N 
ATOM      5  C   UNL     1       3.024   4.116  17.153  0.00  0.00    +0.000 C 
ATOM      6  C   UNL     1       2.323   4.600  18.420  0.00  0.00    +0.000 C 
ATOM      7  C   UNL     1       2.900   3.930  19.667  0.00  0.00    +0.000 C 
ATOM      8  C   UNL     1       4.425   4.087  19.699  0.00  0.00    +0.000 C 
ATOM      9  C   UNL     1       5.057   3.556  18.420  0.00  0.00    +0.000 C 
ATOM     10  O   UNL     1       2.560   2.529  19.659  0.00  0.00    +0.000 OA
ATOM     11  C   UNL     1       2.154   2.245  20.998  0.00  0.00    +0.000 C 
ATOM     12  C   UNL     1       1.553   3.541  21.464  0.00  0.00    +0.000 C 
ATOM     13  O   UNL     1       2.364   4.540  20.848  0.00  0.00    +0.000 OA
ENDBRANCH   1   2
BRANCH   1  14
ATOM     14  N   UNL     1       7.305   6.424  16.739  0.00  0.00    +0.000 N 
ATOM     15  C   UNL     1       7.561   6.832  18.028  0.00  0.00    +0.000 C 
ATOM     16  O   UNL     1       7.362   6.103  19.006  0.00  0.00    +0.000 OA
ATOM     17  H   UNL     1       7.564   7.047  15.976  0.00  0.00    +0.000 HD
BRANCH  15  18
ATOM     18  C   UNL     1       8.114   8.170  18.153  0.00  0.00    +0.000 A 
ATOM     19  C   UNL     1       7.916   9.314  17.401  0.00  0.00    +0.000 A 
ATOM     20  C   UNL     1       8.660  10.349  18.017  0.00  0.00    +0.000 A 
ATOM     21  C   UNL     1       9.299   9.768  19.089  0.00  0.00    +0.000 A 
ATOM     22  O   UNL     1       8.980   8.452  19.180  0.00  0.00    +0.000 OA
ENDBRANCH  15  18
ENDBRANCH   1  14
BRANCH   1  24
ATOM     23  C   UNL     1       6.207   3.733  14.291  0.00  0.00    +0.000 C 
ATOM     24  C   UNL     1       7.242   4.593  15.037  0.00  0.00    +0.000 C 
ATOM     25  C   UNL     1       7.628   5.735  14.088  0.00  0.00    +0.000 C 
ENDBRANCH   1  24
TORSDOF 4
ENDMDL
MODEL 8
REMARK VINA RESULT:      -6.8      1.759      2.334
REMARK  Name = 
REMARK  6 active torsions:
REMARK  status: ('A' for Active; 'I' for Inactive)
REMARK    1  A    between atoms: C_1  and  C_2
REMARK    2  A    between atoms: C_2  and  C_3
REMARK    3  A    between atoms: C_2  and  C_4
REMARK    4  A    between atoms: C_4  and  N_5
REMARK    5  A    between atoms: C_4  and  C_13
REMARK    6  A    between atoms: C_6  and  C_8
REMARK                            x       y       z     vdW  Elec       q    Type
REMARK                         _______ _______ _______ _____ _____    ______ ____
ROOT
ATOM      1  C   UNL     1       6.293   6.255  16.279  0.00  0.00    +0.000 C 
ENDROOT
BRANCH   1   2
ATOM      2  C   UNL     1       4.998   6.608  17.097  0.00  0.00    +0.000 C 
ATOM      3  O   UNL     1       4.807   7.762  17.488  0.00  0.00    +0.000 OA
ATOM      4  N   UNL     1       4.029   5.611  17.277  0.00  0.00    +0.000 N 
ATOM      5  C   UNL     1       2.713   5.962  17.826  0.00  0.00    +0.000 C 
ATOM      6  C   UNL     1       2.509   5.371  19.219  0.00  0.00    +0.000 C 
ATOM      7  C   UNL     1       2.795   3.868  19.234  0.00  0.00    +0.000 C 
ATOM      8  C   UNL     1       4.174   3.582  18.631  0.00  0.00    +0.000 C 
ATOM      9  C   UNL     1       4.294   4.173  17.233  0.00  0.00    +0.000 C 
ATOM     10  O   UNL     1       1.783   3.181  18.471  0.00  0.00    +0.000 OA
ATOM     11  C   UNL     1       1.443   2.042  19.261  0.00  0.00    +0.000 C 
ATOM     12  C   UNL     1       1.653   2.518  20.672  0.00  0.00    +0.000 C 
ATOM     13  O   UNL     1       2.787   3.379  20.581  0.00  0.00    +0.000 OA
ENDBRANCH   1   2
BRANCH   1  14
ATOM     14  N   UNL     1       5.974   5.281  15.223  0.00  0.00    +0.000 N 
ATOM     15  C   UNL     1       6.798   5.049  14.145  0.00  0.00    +0.000 C 
ATOM     16  O   UNL     1       7.885   5.620  14.007  0.00  0.00    +0.000 OA
ATOM     17  H   UNL     1       5.129   4.720  15.312  0.00  0.00    +0.000 HD
BRANCH  15  18
ATOM     18  C   UNL     1       6.311   4.060  13.199  0.00  0.00    +0.000 A 
ATOM     19  C   UNL     1       5.030   3.630  12.903  0.00  0.00    +0.000 A 
ATOM     20  C   UNL     1       5.140   2.693  11.849  0.00  0.00    +0.000 A 
ATOM     21  C   UNL     1       6.485   2.576  11.586  0.00  0.00    +0.000 A 
ATOM     22  O   UNL     1       7.204   3.393  12.397  0.00  0.00    +0.000 OA
ENDBRANCH  15  18
ENDBRANCH   1  14
BRANCH   1  24
ATOM     23  C   UNL     1       7.307   6.235  18.656  0.00  0.00    +0.000 C 
ATOM     24  C   UNL     1       7.428   5.732  17.206  0.00  0.00    +0.000 C 
ATOM     25  C   UNL     1       7.476   4.201  17.275  0.00  0.00    +0.000 C 
ENDBRANCH   1  24
TORSDOF 4
ENDMDL
MODEL 9
REMARK VINA RESULT:      -6.7      3.585      6.114
REMARK  Name = 
REMARK  6 active torsions:
REMARK  status: ('A' for Active; 'I' for Inactive)
REMARK    1  A    between atoms: C_1  and  C_2
REMARK    2  A    between atoms: C_2  and  C_3
REMARK    3  A    between atoms: C_2  and  C_4
REMARK    4  A    between atoms: C_4  and  N_5
REMARK    5  A    between atoms: C_4  and  C_13
REMARK    6  A    between atoms: C_6  and  C_8
REMARK                            x       y       z     vdW  Elec       q    Type
REMARK                         _______ _______ _______ _____ _____    ______ ____
ROOT
ATOM      1  C   UNL     1       2.722   4.790  19.426  0.00  0.00    +0.000 C 
ENDROOT
BRANCH   1   2
ATOM      2  C   UNL     1       1.840   5.750  20.305  0.00  0.00    +0.000 C 
ATOM      3  O   UNL     1       1.089   5.286  21.167  0.00  0.00    +0.000 OA
ATOM      4  N   UNL     1       2.006   7.133  20.156  0.00  0.00    +0.000 N 
ATOM      5  C   UNL     1       1.379   8.053  21.114  0.00  0.00    +0.000 C 
ATOM      6  C   UNL     1       0.262   8.867  20.465  0.00  0.00    +0.000 C 
ATOM      7  C   UNL     1       0.746   9.555  19.187  0.00  0.00    +0.000 C 
ATOM      8  C   UNL     1       1.402   8.536  18.249  0.00  0.00    +0.000 C 
ATOM      9  C   UNL     1       2.524   7.786  18.953  0.00  0.00    +0.000 C 
ATOM     10  O   UNL     1       1.699  10.581  19.527  0.00  0.00    +0.000 OA
ATOM     11  C   UNL     1       1.334  11.700  18.719  0.00  0.00    +0.000 C 
ATOM     12  C   UNL     1      -0.156  11.557  18.575  0.00  0.00    +0.000 C 
ATOM     13  O   UNL     1      -0.362  10.147  18.498  0.00  0.00    +0.000 OA
ENDBRANCH   1   2
BRANCH   1  14
ATOM     14  N   UNL     1       3.921   5.499  18.951  0.00  0.00    +0.000 N 
ATOM     15  C   UNL     1       5.189   4.975  19.053  0.00  0.00    +0.000 C 
ATOM     16  O   UNL     1       5.406   3.852  19.520  0.00  0.00    +0.000 OA
ATOM     17  H   UNL     1       3.807   6.398  18.487  0.00  0.00    +0.000 HD
BRANCH  15  18
ATOM     18  C   UNL     1       6.251   5.824  18.541  0.00  0.00    +0.000 A 
ATOM     19  C   UNL     1       6.321   6.616  17.409  0.00  0.00    +0.000 A 
ATOM     20  C   UNL     1       7.572   7.278  17.443  0.00  0.00    +0.000 A 
ATOM     21  C   UNL     1       8.209   6.824  18.575  0.00  0.00    +0.000 A 
ATOM     22  O   UNL     1       7.423   5.943  19.246  0.00  0.00    +0.000 OA
ENDBRANCH  15  18
ENDBRANCH   1  14
BRANCH   1  24
ATOM     23  C   UNL     1       2.794   3.728  17.071  0.00  0.00    +0.000 C 
ATOM     24  C   UNL     1       1.909   4.197  18.239  0.00  0.00    +0.000 C 
ATOM     25  C   UNL     1       1.054   2.993  18.653  0.00  0.00    +0.000 C 
ENDBRANCH   1  24
TORSDOF 4
ENDMDL
