MODEL 1
REMARK VINA RESULT:      -6.7      0.000      0.000
REMARK  Name = 
REMARK  10 active torsions:
REMARK  status: ('A' for Active; 'I' for Inactive)
REMARK    1  A    between atoms: C_1  and  C_2
REMARK    2  A    between atoms: C_2  and  O_3
REMARK    3  A    between atoms: O_3  and  C_4
REMARK    4  A    between atoms: C_6  and  C_7
REMARK    5  A    between atoms: C_7  and  N_8
REMARK    6  A    between atoms: N_8  and  C_9
REMARK    7  A    between atoms: C_9  and  C_10
REMARK    8  A    between atoms: C_19  and  O_20
REMARK    9  A    between atoms: O_20  and  C_21
REMARK   10  A    between atoms: C_21  and  C_22
REMARK                            x       y       z     vdW  Elec       q    Type
REMARK                         _______ _______ _______ _____ _____    ______ ____
ROOT
ATOM      1  C   UNL     1       2.900   5.342  19.605  0.00  0.00    +0.000 A 
ATOM      2  C   UNL     1       4.223   5.765  19.411  0.00  0.00    +0.000 A 
ATOM      3  C   UNL     1       5.153   4.952  18.764  0.00  0.00    +0.000 A 
ATOM      4  C   UNL     1       4.736   3.709  18.293  0.00  0.00    +0.000 A 
ATOM      5  C   UNL     1       3.411   3.269  18.451  0.00  0.00    +0.000 A 
ATOM      6 CL   UNL     1       3.130   1.704  17.761  0.00  0.00    +0.000 Cl
ATOM      7  C   UNL     1       2.466   4.077  19.114  0.00  0.00    +0.000 A 
ENDROOT
BRANCH   1   8
ATOM      8  O   UNL     1       1.957   6.111  20.256  0.00  0.00    +0.000 OA
BRANCH   8  10
ATOM      9  C   UNL     1       1.139   8.213  21.159  0.00  0.00    +0.000 C 
ATOM     10  C   UNL     1       1.985   7.531  20.097  0.00  0.00    +0.000 C 
ENDBRANCH   8  10
ENDBRANCH   1   8
BRANCH   3  11
ATOM     11  C   UNL     1       6.580   5.411  18.577  0.00  0.00    +0.000 C 
BRANCH  11  12
ATOM     12  N   UNL     1       7.155   4.819  17.377  0.00  0.00    +0.000 NA
ATOM     13  H   UNL     1       6.578   4.029  17.083  0.00  0.00    +0.000 HD
BRANCH  12  14
ATOM     14  C   UNL     1       7.189   5.790  16.277  0.00  0.00    +0.000 C 
BRANCH  14  15
ATOM     15  C   UNL     1       6.987   5.129  14.929  0.00  0.00    +0.000 A 
ATOM     16  C   UNL     1       5.974   4.184  14.758  0.00  0.00    +0.000 A 
ATOM     17  C   UNL     1       5.809   3.593  13.510  0.00  0.00    +0.000 A 
ATOM     18  C   UNL     1       6.651   3.956  12.468  0.00  0.00    +0.000 A 
ATOM     19  C   UNL     1       7.633   4.902  12.720  0.00  0.00    +0.000 A 
ATOM     20  N   UNL     1       7.817   5.495  13.920  0.00  0.00    +0.000 NA
ENDBRANCH  14  15
ENDBRANCH  12  14
ENDBRANCH  11  12
ENDBRANCH   3  11
BRANCH   7  21
ATOM     21  O   UNL     1       1.137   3.815  19.367  0.00  0.00    +0.000 OA
BRANCH  21  22
ATOM     22  C   UNL     1       0.759   2.675  20.127  0.00  0.00    +0.000 C 
ATOM     23  C   UNL     1       1.376   2.744  21.514  0.00  0.00    +0.000 C 
ENDBRANCH  21  22
ENDBRANCH   7  21
TORSDOF 8
ENDMDL
MODEL 2
REMARK VINA RESULT:      -6.7      1.348      1.484
REMARK  Name = 
REMARK  10 active torsions:
REMARK  status: ('A' for Active; 'I' for Inactive)
REMARK    1  A    between atoms: C_1  and  C_2
REMARK    2  A    between atoms: C_2  and  O_3
REMARK    3  A    between atoms: O_3  and  C_4
REMARK    4  A    between atoms: C_6  and  C_7
REMARK    5  A    between atoms: C_7  and  N_8
REMARK    6  A    between atoms: N_8  and  C_9
REMARK    7  A    between atoms: C_9  and  C_10
REMARK    8  A    between atoms: C_19  and  O_20
REMARK    9  A    between atoms: O_20  and  C_21
REMARK   10  A    between atoms: C_21  and  C_22
REMARK                            x       y       z     vdW  Elec       q    Type
REMARK                         _______ _______ _______ _____ _____    ______ ____
ROOT
ATOM      1  C   UNL     1       3.209   5.883  18.321  0.00  0.00    +0.000 A 
ATOM      2  C   UNL     1       4.462   6.413  17.979  0.00  0.00    +0.000 A 
ATOM      3  C   UNL     1       5.639   5.720  18.257  0.00  0.00    +0.000 A 
ATOM      4  C   UNL     1       5.547   4.472  18.868  0.00  0.00    +0.000 A 
ATOM      5  C   UNL     1       4.306   3.904  19.201  0.00  0.00    +0.000 A 
ATOM      6 CL   UNL     1       4.449   2.338  19.929  0.00  0.00    +0.000 Cl
ATOM      7  C   UNL     1       3.110   4.602  18.936  0.00  0.00    +0.000 A 
ENDROOT
BRANCH   1   8
ATOM      8  O   UNL     1       2.025   6.548  18.079  0.00  0.00    +0.000 OA
BRANCH   8  10
ATOM      9  C   UNL     1       2.046   8.966  17.843  0.00  0.00    +0.000 C 
ATOM     10  C   UNL     1       1.767   7.782  18.753  0.00  0.00    +0.000 C 
ENDBRANCH   8  10
ENDBRANCH   1   8
BRANCH   3  11
ATOM     11  C   UNL     1       6.983   6.309  17.899  0.00  0.00    +0.000 C 
BRANCH  11  12
ATOM     12  N   UNL     1       7.232   6.185  16.468  0.00  0.00    +0.000 NA
ATOM     13  H   UNL     1       8.166   6.540  16.258  0.00  0.00    +0.000 HD
BRANCH  12  14
ATOM     14  C   UNL     1       7.174   4.780  16.046  0.00  0.00    +0.000 C 
BRANCH  14  15
ATOM     15  C   UNL     1       7.136   4.642  14.538  0.00  0.00    +0.000 A 
ATOM     16  C   UNL     1       6.259   3.735  13.941  0.00  0.00    +0.000 A 
ATOM     17  C   UNL     1       6.244   3.629  12.554  0.00  0.00    +0.000 A 
ATOM     18  C   UNL     1       7.096   4.423  11.800  0.00  0.00    +0.000 A 
ATOM     19  C   UNL     1       7.936   5.299  12.471  0.00  0.00    +0.000 A 
ATOM     20  N   UNL     1       7.974   5.427  13.815  0.00  0.00    +0.000 NA
ENDBRANCH  14  15
ENDBRANCH  12  14
ENDBRANCH  11  12
ENDBRANCH   3  11
BRANCH   7  21
ATOM     21  O   UNL     1       1.814   4.214  19.193  0.00  0.00    +0.000 OA
BRANCH  21  22
ATOM     22  C   UNL     1       1.298   4.253  20.517  0.00  0.00    +0.000 C 
ATOM     23  C   UNL     1       1.218   2.847  21.088  0.00  0.00    +0.000 C 
ENDBRANCH  21  22
ENDBRANCH   7  21
TORSDOF 8
ENDMDL
MODEL 3
REMARK VINA RESULT:      -6.6      2.461      4.295
REMARK  Name = 
REMARK  10 active torsions:
REMARK  status: ('A' for Active; 'I' for Inactive)
REMARK    1  A    between atoms: C_1  and  C_2
REMARK    2  A    between atoms: C_2  and  O_3
REMARK    3  A    between atoms: O_3  and  C_4
REMARK    4  A    between atoms: C_6  and  C_7
REMARK    5  A    between atoms: C_7  and  N_8
REMARK    6  A    between atoms: N_8  and  C_9
REMARK    7  A    between atoms: C_9  and  C_10
REMARK    8  A    between atoms: C_19  and  O_20
REMARK    9  A    between atoms: O_20  and  C_21
REMARK   10  A    between atoms: C_21  and  C_22
REMARK                            x       y       z     vdW  Elec       q    Type
REMARK                         _______ _______ _______ _____ _____    ______ ____
ROOT
ATOM      1  C   UNL     1       2.433   5.209  20.030  0.00  0.00    +0.000 A 
ATOM      2  C   UNL     1       2.980   4.365  19.052  0.00  0.00    +0.000 A 
ATOM      3  C   UNL     1       3.348   4.856  17.800  0.00  0.00    +0.000 A 
ATOM      4  C   UNL     1       3.181   6.215  17.543  0.00  0.00    +0.000 A 
ATOM      5  C   UNL     1       2.659   7.088  18.511  0.00  0.00    +0.000 A 
ATOM      6 CL   UNL     1       2.570   8.731  17.965  0.00  0.00    +0.000 Cl
ATOM      7  C   UNL     1       2.271   6.601  19.776  0.00  0.00    +0.000 A 
ENDROOT
BRANCH   1   8
ATOM      8  O   UNL     1       2.040   4.756  21.273  0.00  0.00    +0.000 OA
BRANCH   8  10
ATOM      9  C   UNL     1       1.284   2.489  21.712  0.00  0.00    +0.000 C 
ATOM     10  C   UNL     1       2.455   3.458  21.705  0.00  0.00    +0.000 C 
ENDBRANCH   8  10
ENDBRANCH   1   8
BRANCH   3  11
ATOM     11  C   UNL     1       3.920   3.934  16.749  0.00  0.00    +0.000 C 
BRANCH  11  12
ATOM     12  N   UNL     1       5.295   3.578  17.074  0.00  0.00    +0.000 NA
ATOM     13  H   UNL     1       5.444   2.590  16.864  0.00  0.00    +0.000 HD
BRANCH  12  14
ATOM     14  C   UNL     1       6.243   4.361  16.273  0.00  0.00    +0.000 C 
BRANCH  14  15
ATOM     15  C   UNL     1       6.919   5.443  17.090  0.00  0.00    +0.000 A 
ATOM     16  C   UNL     1       7.475   5.135  18.333  0.00  0.00    +0.000 A 
ATOM     17  C   UNL     1       8.090   6.147  19.062  0.00  0.00    +0.000 A 
ATOM     18  C   UNL     1       8.139   7.432  18.539  0.00  0.00    +0.000 A 
ATOM     19  C   UNL     1       7.563   7.654  17.298  0.00  0.00    +0.000 A 
ATOM     20  N   UNL     1       6.959   6.693  16.564  0.00  0.00    +0.000 NA
ENDBRANCH  14  15
ENDBRANCH  12  14
ENDBRANCH  11  12
ENDBRANCH   3  11
BRANCH   7  21
ATOM     21  O   UNL     1       1.740   7.297  20.839  0.00  0.00    +0.000 OA
BRANCH  21  22
ATOM     22  C   UNL     1       1.188   8.593  20.650  0.00  0.00    +0.000 C 
ATOM     23  C   UNL     1      -0.045   8.768  21.521  0.00  0.00    +0.000 C 
ENDBRANCH  21  22
ENDBRANCH   7  21
TORSDOF 8
ENDMDL
MODEL 4
REMARK VINA RESULT:      -6.6      2.586      4.365
REMARK  Name = 
REMARK  10 active torsions:
REMARK  status: ('A' for Active; 'I' for Inactive)
REMARK    1  A    between atoms: C_1  and  C_2
REMARK    2  A    between atoms: C_2  and  O_3
REMARK    3  A    between atoms: O_3  and  C_4
REMARK    4  A    between atoms: C_6  and  C_7
REMARK    5  A    between atoms: C_7  and  N_8
REMARK    6  A    between atoms: N_8  and  C_9
REMARK    7  A    between atoms: C_9  and  C_10
REMARK    8  A    between atoms: C_19  and  O_20
REMARK    9  A    between atoms: O_20  and  C_21
REMARK   10  A    between atoms: C_21  and  C_22
REMARK                            x       y       z     vdW  Elec       q    Type
REMARK                         _______ _______ _______ _____ _____    ______ ____
ROOT
ATOM      1  C   UNL     1       2.511   5.310  20.072  0.00  0.00    +0.000 A 
ATOM      2  C   UNL     1       3.000   4.449  19.079  0.00  0.00    +0.000 A 
ATOM      3  C   UNL     1       3.309   4.920  17.803  0.00  0.00    +0.000 A 
ATOM      4  C   UNL     1       3.139   6.276  17.536  0.00  0.00    +0.000 A 
ATOM      5  C   UNL     1       2.675   7.168  18.517  0.00  0.00    +0.000 A 
ATOM      6 CL   UNL     1       2.571   8.804  17.954  0.00  0.00    +0.000 Cl
ATOM      7  C   UNL     1       2.348   6.700  19.807  0.00  0.00    +0.000 A 
ENDROOT
BRANCH   1   8
ATOM      8  O   UNL     1       2.178   4.878  21.339  0.00  0.00    +0.000 OA
BRANCH   8  10
ATOM      9  C   UNL     1       1.184   2.663  21.449  0.00  0.00    +0.000 C 
ATOM     10  C   UNL     1       2.418   3.514  21.696  0.00  0.00    +0.000 C 
ENDBRANCH   8  10
ENDBRANCH   1   8
BRANCH   3  11
ATOM     11  C   UNL     1       3.818   3.979  16.737  0.00  0.00    +0.000 C 
BRANCH  11  12
ATOM     12  N   UNL     1       5.124   3.447  17.106  0.00  0.00    +0.000 NA
ATOM     13  H   UNL     1       5.160   2.454  16.871  0.00  0.00    +0.000 HD
BRANCH  12  14
ATOM     14  C   UNL     1       6.195   4.127  16.369  0.00  0.00    +0.000 C 
BRANCH  14  15
ATOM     15  C   UNL     1       6.887   5.178  17.213  0.00  0.00    +0.000 A 
ATOM     16  C   UNL     1       6.993   6.489  16.748  0.00  0.00    +0.000 A 
ATOM     17  C   UNL     1       7.633   7.435  17.543  0.00  0.00    +0.000 A 
ATOM     18  C   UNL     1       8.146   7.054  18.775  0.00  0.00    +0.000 A 
ATOM     19  C   UNL     1       7.999   5.731  19.163  0.00  0.00    +0.000 A 
ATOM     20  N   UNL     1       7.383   4.790  18.415  0.00  0.00    +0.000 NA
ENDBRANCH  14  15
ENDBRANCH  12  14
ENDBRANCH  11  12
ENDBRANCH   3  11
BRANCH   7  21
ATOM     21  O   UNL     1       1.877   7.415  20.886  0.00  0.00    +0.000 OA
BRANCH  21  22
ATOM     22  C   UNL     1       1.124   8.605  20.690  0.00  0.00    +0.000 C 
ATOM     23  C   UNL     1      -0.161   8.549  21.500  0.00  0.00    +0.000 C 
ENDBRANCH  21  22
ENDBRANCH   7  21
TORSDOF 8
ENDMDL
MODEL 5
REMARK VINA RESULT:      -6.6      1.762      2.994
REMARK  Name = 
REMARK  10 active torsions:
REMARK  status: ('A' for Active; 'I' for Inactive)
REMARK    1  A    between atoms: C_1  and  C_2
REMARK    2  A    between atoms: C_2  and  O_3
REMARK    3  A    between atoms: O_3  and  C_4
REMARK    4  A    between atoms: C_6  and  C_7
REMARK    5  A    between atoms: C_7  and  N_8
REMARK    6  A    between atoms: N_8  and  C_9
REMARK    7  A    between atoms: C_9  and  C_10
REMARK    8  A    between atoms: C_19  and  O_20
REMARK    9  A    between atoms: O_20  and  C_21
REMARK   10  A    between atoms: C_21  and  C_22
REMARK                            x       y       z     vdW  Elec       q    Type
REMARK                         _______ _______ _______ _____ _____    ______ ____
ROOT
ATOM      1  C   UNL     1       2.837   5.398  18.974  0.00  0.00    +0.000 A 
ATOM      2  C   UNL     1       3.290   5.367  17.647  0.00  0.00    +0.000 A 
ATOM      3  C   UNL     1       4.123   4.345  17.193  0.00  0.00    +0.000 A 
ATOM      4  C   UNL     1       4.485   3.337  18.084  0.00  0.00    +0.000 A 
ATOM      5  C   UNL     1       4.027   3.328  19.411  0.00  0.00    +0.000 A 
ATOM      6 CL   UNL     1       4.592   1.961  20.315  0.00  0.00    +0.000 Cl
ATOM      7  C   UNL     1       3.194   4.363  19.885  0.00  0.00    +0.000 A 
ENDROOT
BRANCH   1   8
ATOM      8  O   UNL     1       2.027   6.402  19.464  0.00  0.00    +0.000 OA
BRANCH   8  10
ATOM      9  C   UNL     1       1.325   8.708  19.770  0.00  0.00    +0.000 C 
ATOM     10  C   UNL     1       2.262   7.751  19.053  0.00  0.00    +0.000 C 
ENDBRANCH   8  10
ENDBRANCH   1   8
BRANCH   3  11
ATOM     11  C   UNL     1       4.619   4.332  15.766  0.00  0.00    +0.000 C 
BRANCH  11  12
ATOM     12  N   UNL     1       5.868   3.589  15.666  0.00  0.00    +0.000 NA
ATOM     13  H   UNL     1       5.803   2.925  14.893  0.00  0.00    +0.000 HD
BRANCH  12  14
ATOM     14  C   UNL     1       6.995   4.491  15.395  0.00  0.00    +0.000 C 
BRANCH  14  15
ATOM     15  C   UNL     1       7.348   5.336  16.602  0.00  0.00    +0.000 A 
ATOM     16  C   UNL     1       7.621   4.725  17.827  0.00  0.00    +0.000 A 
ATOM     17  C   UNL     1       7.944   5.524  18.919  0.00  0.00    +0.000 A 
ATOM     18  C   UNL     1       7.989   6.902  18.765  0.00  0.00    +0.000 A 
ATOM     19  C   UNL     1       7.705   7.430  17.515  0.00  0.00    +0.000 A 
ATOM     20  N   UNL     1       7.389   6.682  16.435  0.00  0.00    +0.000 NA
ENDBRANCH  14  15
ENDBRANCH  12  14
ENDBRANCH  11  12
ENDBRANCH   3  11
BRANCH   7  21
ATOM     21  O   UNL     1       2.657   4.526  21.142  0.00  0.00    +0.000 OA
BRANCH  21  22
ATOM     22  C   UNL     1       1.857   3.504  21.723  0.00  0.00    +0.000 C 
ATOM     23  C   UNL     1       0.945   2.894  20.672  0.00  0.00    +0.000 C 
ENDBRANCH  21  22
ENDBRANCH   7  21
TORSDOF 8
ENDMDL
MODEL 6
REMARK VINA RESULT:      -6.4      3.611      7.575
REMARK  Name = 
REMARK  10 active torsions:
REMARK  status: ('A' for Active; 'I' for Inactive)
REMARK    1  A    between atoms: C_1  and  C_2
REMARK    2  A    between atoms: C_2  and  O_3
REMARK    3  A    between atoms: O_3  and  C_4
REMARK    4  A    between atoms: C_6  and  C_7
REMARK    5  A    between atoms: C_7  and  N_8
REMARK    6  A    between atoms: N_8  and  C_9
REMARK    7  A    between atoms: C_9  and  C_10
REMARK    8  A    between atoms: C_19  and  O_20
REMARK    9  A    between atoms: O_20  and  C_21
REMARK   10  A    between atoms: C_21  and  C_22
REMARK                            x       y       z     vdW  Elec       q    Type
REMARK                         _______ _______ _______ _____ _____    ______ ____
ROOT
ATOM      1  C   UNL     1       4.642   5.447  17.980  0.00  0.00    +0.000 A 
ATOM      2  C   UNL     1       4.100   6.670  17.559  0.00  0.00    +0.000 A 
ATOM      3  C   UNL     1       3.014   7.244  18.220  0.00  0.00    +0.000 A 
ATOM      4  C   UNL     1       2.486   6.584  19.327  0.00  0.00    +0.000 A 
ATOM      5  C   UNL     1       3.023   5.371  19.787  0.00  0.00    +0.000 A 
ATOM      6 CL   UNL     1       2.213   4.759  21.192  0.00  0.00    +0.000 Cl
ATOM      7  C   UNL     1       4.113   4.775  19.119  0.00  0.00    +0.000 A 
ENDROOT
BRANCH   1   8
ATOM      8  O   UNL     1       5.704   4.840  17.341  0.00  0.00    +0.000 OA
BRANCH   8  10
ATOM      9  C   UNL     1       5.801   5.022  14.920  0.00  0.00    +0.000 C 
ATOM     10  C   UNL     1       5.473   4.142  16.115  0.00  0.00    +0.000 C 
ENDBRANCH   8  10
ENDBRANCH   1   8
BRANCH   3  11
ATOM     11  C   UNL     1       2.428   8.553  17.745  0.00  0.00    +0.000 C 
BRANCH  11  12
ATOM     12  N   UNL     1       1.181   8.837  18.444  0.00  0.00    +0.000 NA
ATOM     13  H   UNL     1       1.054   8.158  19.195  0.00  0.00    +0.000 HD
BRANCH  12  14
ATOM     14  C   UNL     1       1.209  10.177  19.043  0.00  0.00    +0.000 C 
BRANCH  14  15
ATOM     15  C   UNL     1       0.527  10.208  20.396  0.00  0.00    +0.000 A 
ATOM     16  C   UNL     1       0.303   9.021  21.093  0.00  0.00    +0.000 A 
ATOM     17  C   UNL     1      -0.325   9.078  22.333  0.00  0.00    +0.000 A 
ATOM     18  C   UNL     1      -0.710  10.309  22.845  0.00  0.00    +0.000 A 
ATOM     19  C   UNL     1      -0.451  11.442  22.089  0.00  0.00    +0.000 A 
ATOM     20  N   UNL     1       0.158  11.420  20.883  0.00  0.00    +0.000 NA
ENDBRANCH  14  15
ENDBRANCH  12  14
ENDBRANCH  11  12
ENDBRANCH   3  11
BRANCH   7  21
ATOM     21  O   UNL     1       4.764   3.598  19.416  0.00  0.00    +0.000 OA
BRANCH  21  22
ATOM     22  C   UNL     1       4.037   2.383  19.536  0.00  0.00    +0.000 C 
ATOM     23  C   UNL     1       3.341   2.059  18.225  0.00  0.00    +0.000 C 
ENDBRANCH  21  22
ENDBRANCH   7  21
TORSDOF 8
ENDMDL
MODEL 7
REMARK VINA RESULT:      -6.3      1.410      1.599
REMARK  Name = 
REMARK  10 active torsions:
REMARK  status: ('A' for Active; 'I' for Inactive)
REMARK    1  A    between atoms: C_1  and  C_2
REMARK    2  A    between atoms: C_2  and  O_3
REMARK    3  A    between atoms: O_3  and  C_4
REMARK    4  A    between atoms: C_6  and  C_7
REMARK    5  A    between atoms: C_7  and  N_8
REMARK    6  A    between atoms: N_8  and  C_9
REMARK    7  A    between atoms: C_9  and  C_10
REMARK    8  A    between atoms: C_19  and  O_20
REMARK    9  A    between atoms: O_20  and  C_21
REMARK   10  A    between atoms: C_21  and  C_22
REMARK                            x       y       z     vdW  Elec       q    Type
REMARK                         _______ _______ _______ _____ _____    ______ ____
ROOT
ATOM      1  C   UNL     1       2.804   6.656  18.983  0.00  0.00    +0.000 A 
ATOM      2  C   UNL     1       3.649   7.084  17.948  0.00  0.00    +0.000 A 
ATOM      3  C   UNL     1       4.216   6.175  17.057  0.00  0.00    +0.000 A 
ATOM      4  C   UNL     1       3.912   4.823  17.202  0.00  0.00    +0.000 A 
ATOM      5  C   UNL     1       3.051   4.367  18.213  0.00  0.00    +0.000 A 
ATOM      6 CL   UNL     1       2.808   2.651  18.174  0.00  0.00    +0.000 Cl
ATOM      7  C   UNL     1       2.481   5.276  19.128  0.00  0.00    +0.000 A 
ENDROOT
BRANCH   1   8
ATOM      8  O   UNL     1       2.239   7.523  19.895  0.00  0.00    +0.000 OA
BRANCH   8  10
ATOM      9  C   UNL     1       1.707   9.575  18.707  0.00  0.00    +0.000 C 
ATOM     10  C   UNL     1       1.172   8.378  19.475  0.00  0.00    +0.000 C 
ENDBRANCH   8  10
ENDBRANCH   1   8
BRANCH   3  11
ATOM     11  C   UNL     1       5.138   6.647  15.957  0.00  0.00    +0.000 C 
BRANCH  11  12
ATOM     12  N   UNL     1       6.530   6.531  16.371  0.00  0.00    +0.000 NA
ATOM     13  H   UNL     1       6.599   6.718  17.373  0.00  0.00    +0.000 HD
BRANCH  12  14
ATOM     14  C   UNL     1       7.039   5.177  16.126  0.00  0.00    +0.000 C 
BRANCH  14  15
ATOM     15  C   UNL     1       7.019   4.820  14.653  0.00  0.00    +0.000 A 
ATOM     16  C   UNL     1       6.174   3.811  14.190  0.00  0.00    +0.000 A 
ATOM     17  C   UNL     1       6.175   3.505  12.833  0.00  0.00    +0.000 A 
ATOM     18  C   UNL     1       7.011   4.207  11.976  0.00  0.00    +0.000 A 
ATOM     19  C   UNL     1       7.820   5.195  12.517  0.00  0.00    +0.000 A 
ATOM     20  N   UNL     1       7.841   5.517  13.828  0.00  0.00    +0.000 NA
ENDBRANCH  14  15
ENDBRANCH  12  14
ENDBRANCH  11  12
ENDBRANCH   3  11
BRANCH   7  21
ATOM     21  O   UNL     1       1.628   5.017  20.178  0.00  0.00    +0.000 OA
BRANCH  21  22
ATOM     22  C   UNL     1       2.086   4.310  21.322  0.00  0.00    +0.000 C 
ATOM     23  C   UNL     1       1.378   2.969  21.425  0.00  0.00    +0.000 C 
ENDBRANCH  21  22
ENDBRANCH   7  21
TORSDOF 8
ENDMDL
MODEL 8
REMARK VINA RESULT:      -6.3      4.455      7.437
REMARK  Name = 
REMARK  10 active torsions:
REMARK  status: ('A' for Active; 'I' for Inactive)
REMARK    1  A    between atoms: C_1  and  C_2
REMARK    2  A    between atoms: C_2  and  O_3
REMARK    3  A    between atoms: O_3  and  C_4
REMARK    4  A    between atoms: C_6  and  C_7
REMARK    5  A    between atoms: C_7  and  N_8
REMARK    6  A    between atoms: N_8  and  C_9
REMARK    7  A    between atoms: C_9  and  C_10
REMARK    8  A    between atoms: C_19  and  O_20
REMARK    9  A    between atoms: O_20  and  C_21
REMARK   10  A    between atoms: C_21  and  C_22
REMARK                            x       y       z     vdW  Elec       q    Type
REMARK                         _______ _______ _______ _____ _____    ______ ____
ROOT
ATOM      1  C   UNL     1       2.917   5.951  19.354  0.00  0.00    +0.000 A 
ATOM      2  C   UNL     1       2.375   7.238  19.222  0.00  0.00    +0.000 A 
ATOM      3  C   UNL     1       2.741   8.070  18.165  0.00  0.00    +0.000 A 
ATOM      4  C   UNL     1       3.649   7.590  17.224  0.00  0.00    +0.000 A 
ATOM      5  C   UNL     1       4.190   6.297  17.316  0.00  0.00    +0.000 A 
ATOM      6 CL   UNL     1       5.274   5.920  16.017  0.00  0.00    +0.000 Cl
ATOM      7  C   UNL     1       3.836   5.451  18.387  0.00  0.00    +0.000 A 
ENDROOT
BRANCH   1   8
ATOM      8  O   UNL     1       2.593   5.107  20.396  0.00  0.00    +0.000 OA
BRANCH   8  10
ATOM      9  C   UNL     1       1.150   3.170  20.663  0.00  0.00    +0.000 C 
ATOM     10  C   UNL     1       1.236   4.682  20.553  0.00  0.00    +0.000 C 
ENDBRANCH   8  10
ENDBRANCH   1   8
BRANCH   3  11
ATOM     11  C   UNL     1       2.164   9.461  18.043  0.00  0.00    +0.000 C 
BRANCH  11  12
ATOM     12  N   UNL     1       0.740   9.398  17.741  0.00  0.00    +0.000 NA
ATOM     13  H   UNL     1       0.389   8.465  17.965  0.00  0.00    +0.000 HD
BRANCH  12  14
ATOM     14  C   UNL     1      -0.011  10.370  18.544  0.00  0.00    +0.000 C 
BRANCH  14  15
ATOM     15  C   UNL     1      -1.438  10.526  18.060  0.00  0.00    +0.000 A 
ATOM     16  C   UNL     1      -2.308  11.396  18.718  0.00  0.00    +0.000 A 
ATOM     17  C   UNL     1      -3.613  11.521  18.252  0.00  0.00    +0.000 A 
ATOM     18  C   UNL     1      -4.016  10.784  17.148  0.00  0.00    +0.000 A 
ATOM     19  C   UNL     1      -3.090   9.942  16.551  0.00  0.00    +0.000 A 
ATOM     20  N   UNL     1      -1.816   9.799  16.978  0.00  0.00    +0.000 NA
ENDBRANCH  14  15
ENDBRANCH  12  14
ENDBRANCH  11  12
ENDBRANCH   3  11
BRANCH   7  21
ATOM     21  O   UNL     1       4.263   4.167  18.646  0.00  0.00    +0.000 OA
BRANCH  21  22
ATOM     22  C   UNL     1       3.927   3.104  17.765  0.00  0.00    +0.000 C 
ATOM     23  C   UNL     1       2.502   3.273  17.263  0.00  0.00    +0.000 C 
ENDBRANCH  21  22
ENDBRANCH   7  21
TORSDOF 8
ENDMDL
MODEL 9
REMARK VINA RESULT:      -6.3      3.558      7.679
REMARK  Name = 
REMARK  10 active torsions:
REMARK  status: ('A' for Active; 'I' for Inactive)
REMARK    1  A    between atoms: C_1  and  C_2
REMARK    2  A    between atoms: C_2  and  O_3
REMARK    3  A    between atoms: O_3  and  C_4
REMARK    4  A    between atoms: C_6  and  C_7
REMARK    5  A    between atoms: C_7  and  N_8
REMARK    6  A    between atoms: N_8  and  C_9
REMARK    7  A    between atoms: C_9  and  C_10
REMARK    8  A    between atoms: C_19  and  O_20
REMARK    9  A    between atoms: O_20  and  C_21
REMARK   10  A    between atoms: C_21  and  C_22
REMARK                            x       y       z     vdW  Elec       q    Type
REMARK                         _______ _______ _______ _____ _____    ______ ____
ROOT
ATOM      1  C   UNL     1       4.288   5.545  17.630  0.00  0.00    +0.000 A 
ATOM      2  C   UNL     1       3.836   6.850  17.384  0.00  0.00    +0.000 A 
ATOM      3  C   UNL     1       2.913   7.466  18.229  0.00  0.00    +0.000 A 
ATOM      4  C   UNL     1       2.458   6.762  19.342  0.00  0.00    +0.000 A 
ATOM      5  C   UNL     1       2.911   5.464  19.628  0.00  0.00    +0.000 A 
ATOM      6 CL   UNL     1       2.220   4.808  21.076  0.00  0.00    +0.000 Cl
ATOM      7  C   UNL     1       3.834   4.827  18.774  0.00  0.00    +0.000 A 
ENDROOT
BRANCH   1   8
ATOM      8  O   UNL     1       5.186   4.898  16.808  0.00  0.00    +0.000 OA
BRANCH   8  10
ATOM      9  C   UNL     1       7.490   4.723  17.563  0.00  0.00    +0.000 C 
ATOM     10  C   UNL     1       6.502   5.435  16.653  0.00  0.00    +0.000 C 
ENDBRANCH   8  10
ENDBRANCH   1   8
BRANCH   3  11
ATOM     11  C   UNL     1       2.421   8.865  17.943  0.00  0.00    +0.000 C 
BRANCH  11  12
ATOM     12  N   UNL     1       1.100   9.071  18.522  0.00  0.00    +0.000 NA
ATOM     13  H   UNL     1       0.935   8.366  19.242  0.00  0.00    +0.000 HD
BRANCH  12  14
ATOM     14  C   UNL     1       1.002  10.393  19.151  0.00  0.00    +0.000 C 
BRANCH  14  15
ATOM     15  C   UNL     1       0.380  10.322  20.530  0.00  0.00    +0.000 A 
ATOM     16  C   UNL     1      -0.107  11.480  21.138  0.00  0.00    +0.000 A 
ATOM     17  C   UNL     1      -0.674  11.386  22.405  0.00  0.00    +0.000 A 
ATOM     18  C   UNL     1      -0.743  10.149  23.031  0.00  0.00    +0.000 A 
ATOM     19  C   UNL     1      -0.236   9.047  22.359  0.00  0.00    +0.000 A 
ATOM     20  N   UNL     1       0.319   9.105  21.128  0.00  0.00    +0.000 NA
ENDBRANCH  14  15
ENDBRANCH  12  14
ENDBRANCH  11  12
ENDBRANCH   3  11
BRANCH   7  21
ATOM     21  O   UNL     1       4.382   3.568  18.886  0.00  0.00    +0.000 OA
BRANCH  21  22
ATOM     22  C   UNL     1       3.545   2.424  18.993  0.00  0.00    +0.000 C 
ATOM     23  C   UNL     1       2.709   2.270  17.733  0.00  0.00    +0.000 C 
ENDBRANCH  21  22
ENDBRANCH   7  21
TORSDOF 8
ENDMDL
