MODEL 1
REMARK VINA RESULT:      -9.3      0.000      0.000
REMARK  Name = 
REMARK  5 active torsions:
REMARK  status: ('A' for Active; 'I' for Inactive)
REMARK    1  A    between atoms: C_1  and  C_2
REMARK    2  A    between atoms: C_5  and  C_6
REMARK    3  A    between atoms: C_8  and  C_9
REMARK    4  A    between atoms: C_10  and  C_11
REMARK    5  A    between atoms: C_21  and  C_22
REMARK                            x       y       z     vdW  Elec       q    Type
REMARK                         _______ _______ _______ _____ _____    ______ ____
ROOT
ATOM      1  C   UNL     1       7.605   6.885  17.405  0.00  0.00    +0.000 C 
ATOM      2  C   UNL     1       7.014   5.870  18.105  0.00  0.00    +0.000 C 
ATOM      3  C   UNL     1       6.609   4.389  17.557  0.00  0.00    +0.000 C 
ATOM      4  C   UNL     1       6.763   4.548  16.019  0.00  0.00    +0.000 A 
ATOM      5  C   UNL     1       6.380   3.855  14.842  0.00  0.00    +0.000 A 
ATOM      6  N   UNL     1       5.633   2.759  14.770  0.00  0.00    +0.000 N 
ATOM      7  N   UNL     1       6.824   4.414  13.716  0.00  0.00    +0.000 NA
ATOM      8  N   UNL     1       7.507   5.485  14.134  0.00  0.00    +0.000 N 
ATOM      9  C   UNL     1       7.452   5.634  15.482  0.00  0.00    +0.000 A 
ATOM     10  O   UNL     1       7.971   6.703  16.077  0.00  0.00    +0.000 OA
ATOM     11  H   UNL     1       5.762   2.055  15.459  0.00  0.00    +0.000 HD
ATOM     12  H   UNL     1       5.654   2.343  13.830  0.00  0.00    +0.000 HD
ATOM     13  H   UNL     1       7.965   6.088  13.457  0.00  0.00    +0.000 HD
ENDROOT
BRANCH   3  14
ATOM     14  C   UNL     1       5.166   4.031  18.166  0.00  0.00    +0.000 A 
ATOM     15  C   UNL     1       4.226   4.859  17.590  0.00  0.00    +0.000 A 
ATOM     16  N   UNL     1       3.660   3.836  16.798  0.00  0.00    +0.000 N 
ATOM     17  C   UNL     1       3.004   3.153  17.812  0.00  0.00    +0.000 A 
ATOM     18  C   UNL     1       1.610   3.165  17.977  0.00  0.00    +0.000 A 
ATOM     19  C   UNL     1       1.113   3.196  19.260  0.00  0.00    +0.000 A 
ATOM     20  C   UNL     1       1.965   3.022  20.347  0.00  0.00    +0.000 A 
ATOM     21  C   UNL     1       1.228   3.015  21.679  0.00  0.00    +0.000 C 
ATOM     22  C   UNL     1       3.407   2.900  20.126  0.00  0.00    +0.000 A 
ATOM     23  C   UNL     1       4.055   3.019  18.776  0.00  0.00    +0.000 A 
ATOM     24  H   UNL     1       4.262   3.267  16.216  0.00  0.00    +0.000 HD
BRANCH  15  25
ATOM     25  C   UNL     1       3.575   5.941  18.308  0.00  0.00    +0.000 A 
ATOM     26  C   UNL     1       2.994   7.032  17.617  0.00  0.00    +0.000 A 
ATOM     27  C   UNL     1       2.195   7.931  18.293  0.00  0.00    +0.000 A 
ATOM     28  C   UNL     1       2.017   7.761  19.659  0.00  0.00    +0.000 A 
ATOM     29  C   UNL     1       2.669   6.732  20.352  0.00  0.00    +0.000 A 
ATOM     30  C   UNL     1       3.456   5.822  19.672  0.00  0.00    +0.000 A 
ENDBRANCH  15  25
ENDBRANCH   3  14
BRANCH   1  35
ATOM     31  C   UNL     1       9.362  12.208  19.191  0.00  0.00    +0.000 C 
ATOM     32  C   UNL     1       8.808  10.865  18.799  0.00  0.00    +0.000 A 
ATOM     33  C   UNL     1       9.231   9.705  19.446  0.00  0.00    +0.000 A 
ATOM     34  C   UNL     1       8.798   8.436  19.026  0.00  0.00    +0.000 A 
ATOM     35  C   UNL     1       7.932   8.266  17.939  0.00  0.00    +0.000 A 
ATOM     36  C   UNL     1       7.461   9.454  17.330  0.00  0.00    +0.000 A 
ATOM     37  C   UNL     1       7.888  10.734  17.756  0.00  0.00    +0.000 A 
ENDBRANCH   1  35
TORSDOF 3
ENDMDL
MODEL 2
REMARK VINA RESULT:      -8.9      7.005      9.443
REMARK  Name = 
REMARK  5 active torsions:
REMARK  status: ('A' for Active; 'I' for Inactive)
REMARK    1  A    between atoms: C_1  and  C_2
REMARK    2  A    between atoms: C_5  and  C_6
REMARK    3  A    between atoms: C_8  and  C_9
REMARK    4  A    between atoms: C_10  and  C_11
REMARK    5  A    between atoms: C_21  and  C_22
REMARK                            x       y       z     vdW  Elec       q    Type
REMARK                         _______ _______ _______ _____ _____    ______ ____
ROOT
ATOM      1  C   UNL     1       3.393  15.485  18.297  0.00  0.00    +0.000 C 
ATOM      2  C   UNL     1       2.674  14.325  18.215  0.00  0.00    +0.000 C 
ATOM      3  C   UNL     1       1.058  14.147  18.327  0.00  0.00    +0.000 C 
ATOM      4  C   UNL     1       0.605  15.536  18.859  0.00  0.00    +0.000 A 
ATOM      5  C   UNL     1      -0.547  16.117  19.447  0.00  0.00    +0.000 A 
ATOM      6  N   UNL     1      -1.672  15.494  19.784  0.00  0.00    +0.000 N 
ATOM      7  N   UNL     1      -0.432  17.423  19.687  0.00  0.00    +0.000 NA
ATOM      8  N   UNL     1       0.799  17.724  19.259  0.00  0.00    +0.000 N 
ATOM      9  C   UNL     1       1.467  16.630  18.813  0.00  0.00    +0.000 A 
ATOM     10  O   UNL     1       2.746  16.704  18.456  0.00  0.00    +0.000 OA
ATOM     11  H   UNL     1      -2.014  14.783  19.179  0.00  0.00    +0.000 HD
ATOM     12  H   UNL     1      -2.422  16.157  20.013  0.00  0.00    +0.000 HD
ATOM     13  H   UNL     1       1.136  18.680  19.321  0.00  0.00    +0.000 HD
ENDROOT
BRANCH   3  14
ATOM     14  C   UNL     1       0.780  12.840  19.220  0.00  0.00    +0.000 A 
ATOM     15  C   UNL     1       0.270  11.850  18.405  0.00  0.00    +0.000 A 
ATOM     16  N   UNL     1       1.452  11.079  18.429  0.00  0.00    +0.000 N 
ATOM     17  C   UNL     1       1.343  10.605  19.729  0.00  0.00    +0.000 A 
ATOM     18  C   UNL     1       1.017   9.277  20.044  0.00  0.00    +0.000 A 
ATOM     19  C   UNL     1       0.200   9.054  21.129  0.00  0.00    +0.000 A 
ATOM     20  C   UNL     1      -0.122  10.097  21.992  0.00  0.00    +0.000 A 
ATOM     21  C   UNL     1      -0.972   9.648  23.171  0.00  0.00    +0.000 C 
ATOM     22  C   UNL     1       0.334  11.455  21.689  0.00  0.00    +0.000 A 
ATOM     23  C   UNL     1       1.089  11.821  20.443  0.00  0.00    +0.000 A 
ATOM     24  H   UNL     1       2.337  11.517  18.205  0.00  0.00    +0.000 HD
BRANCH  15  25
ATOM     25  C   UNL     1      -1.117  11.420  18.452  0.00  0.00    +0.000 A 
ATOM     26  C   UNL     1      -2.093  12.175  19.148  0.00  0.00    +0.000 A 
ATOM     27  C   UNL     1      -3.432  11.875  19.001  0.00  0.00    +0.000 A 
ATOM     28  C   UNL     1      -3.785  10.800  18.197  0.00  0.00    +0.000 A 
ATOM     29  C   UNL     1      -2.808  10.003  17.585  0.00  0.00    +0.000 A 
ATOM     30  C   UNL     1      -1.468  10.312  17.719  0.00  0.00    +0.000 A 
ENDBRANCH  15  25
ENDBRANCH   3  14
BRANCH   1  35
ATOM     31  C   UNL     1       9.261  15.809  18.570  0.00  0.00    +0.000 C 
ATOM     32  C   UNL     1       7.769  15.757  18.380  0.00  0.00    +0.000 A 
ATOM     33  C   UNL     1       6.963  16.815  18.795  0.00  0.00    +0.000 A 
ATOM     34  C   UNL     1       5.562  16.741  18.715  0.00  0.00    +0.000 A 
ATOM     35  C   UNL     1       4.902  15.607  18.226  0.00  0.00    +0.000 A 
ATOM     36  C   UNL     1       5.733  14.564  17.750  0.00  0.00    +0.000 A 
ATOM     37  C   UNL     1       7.145  14.640  17.822  0.00  0.00    +0.000 A 
ENDBRANCH   1  35
TORSDOF 3
ENDMDL
MODEL 3
REMARK VINA RESULT:      -8.8      7.329      9.780
REMARK  Name = 
REMARK  5 active torsions:
REMARK  status: ('A' for Active; 'I' for Inactive)
REMARK    1  A    between atoms: C_1  and  C_2
REMARK    2  A    between atoms: C_5  and  C_6
REMARK    3  A    between atoms: C_8  and  C_9
REMARK    4  A    between atoms: C_10  and  C_11
REMARK    5  A    between atoms: C_21  and  C_22
REMARK                            x       y       z     vdW  Elec       q    Type
REMARK                         _______ _______ _______ _____ _____    ______ ____
ROOT
ATOM      1  C   UNL     1       3.506  15.775  18.484  0.00  0.00    +0.000 C 
ATOM      2  C   UNL     1       2.750  14.644  18.343  0.00  0.00    +0.000 C 
ATOM      3  C   UNL     1       1.127  14.519  18.420  0.00  0.00    +0.000 C 
ATOM      4  C   UNL     1       0.712  15.900  18.999  0.00  0.00    +0.000 A 
ATOM      5  C   UNL     1      -0.431  16.498  19.589  0.00  0.00    +0.000 A 
ATOM      6  N   UNL     1      -1.582  15.902  19.881  0.00  0.00    +0.000 N 
ATOM      7  N   UNL     1      -0.276  17.789  19.883  0.00  0.00    +0.000 NA
ATOM      8  N   UNL     1       0.972  18.063  19.489  0.00  0.00    +0.000 N 
ATOM      9  C   UNL     1       1.611  16.965  19.011  0.00  0.00    +0.000 A 
ATOM     10  O   UNL     1       2.898  17.008  18.680  0.00  0.00    +0.000 OA
ATOM     11  H   UNL     1      -1.937  15.228  19.244  0.00  0.00    +0.000 HD
ATOM     12  H   UNL     1      -2.313  16.581  20.124  0.00  0.00    +0.000 HD
ATOM     13  H   UNL     1       1.341  19.004  19.594  0.00  0.00    +0.000 HD
ENDROOT
BRANCH   3  14
ATOM     14  C   UNL     1       0.788  13.188  19.255  0.00  0.00    +0.000 A 
ATOM     15  C   UNL     1       0.012  12.361  18.470  0.00  0.00    +0.000 A 
ATOM     16  N   UNL     1       1.050  11.429  18.247  0.00  0.00    +0.000 N 
ATOM     17  C   UNL     1       1.067  10.858  19.512  0.00  0.00    +0.000 A 
ATOM     18  C   UNL     1       0.590   9.567  19.784  0.00  0.00    +0.000 A 
ATOM     19  C   UNL     1      -0.077   9.364  20.971  0.00  0.00    +0.000 A 
ATOM     20  C   UNL     1      -0.098  10.359  21.944  0.00  0.00    +0.000 A 
ATOM     21  C   UNL     1      -0.819   9.929  23.214  0.00  0.00    +0.000 C 
ATOM     22  C   UNL     1       0.512  11.660  21.664  0.00  0.00    +0.000 A 
ATOM     23  C   UNL     1       1.116  12.027  20.339  0.00  0.00    +0.000 A 
ATOM     24  H   UNL     1       1.948  11.755  17.911  0.00  0.00    +0.000 HD
BRANCH  15  25
ATOM     25  C   UNL     1      -1.401  12.131  18.714  0.00  0.00    +0.000 A 
ATOM     26  C   UNL     1      -2.056  12.715  19.826  0.00  0.00    +0.000 A 
ATOM     27  C   UNL     1      -3.431  12.668  19.921  0.00  0.00    +0.000 A 
ATOM     28  C   UNL     1      -4.140  12.001  18.931  0.00  0.00    +0.000 A 
ATOM     29  C   UNL     1      -3.479  11.347  17.883  0.00  0.00    +0.000 A 
ATOM     30  C   UNL     1      -2.103  11.409  17.779  0.00  0.00    +0.000 A 
ENDBRANCH  15  25
ENDBRANCH   3  14
BRANCH   1  35
ATOM     31  C   UNL     1       9.332  16.213  17.789  0.00  0.00    +0.000 C 
ATOM     32  C   UNL     1       7.864  16.069  18.085  0.00  0.00    +0.000 A 
ATOM     33  C   UNL     1       7.169  14.925  17.695  0.00  0.00    +0.000 A 
ATOM     34  C   UNL     1       5.780  14.816  17.876  0.00  0.00    +0.000 A 
ATOM     35  C   UNL     1       5.020  15.846  18.444  0.00  0.00    +0.000 A 
ATOM     36  C   UNL     1       5.746  16.976  18.893  0.00  0.00    +0.000 A 
ATOM     37  C   UNL     1       7.146  17.084  18.720  0.00  0.00    +0.000 A 
ENDBRANCH   1  35
TORSDOF 3
ENDMDL
MODEL 4
REMARK VINA RESULT:      -8.7      7.810     10.865
REMARK  Name = 
REMARK  5 active torsions:
REMARK  status: ('A' for Active; 'I' for Inactive)
REMARK    1  A    between atoms: C_1  and  C_2
REMARK    2  A    between atoms: C_5  and  C_6
REMARK    3  A    between atoms: C_8  and  C_9
REMARK    4  A    between atoms: C_10  and  C_11
REMARK    5  A    between atoms: C_21  and  C_22
REMARK                            x       y       z     vdW  Elec       q    Type
REMARK                         _______ _______ _______ _____ _____    ______ ____
ROOT
ATOM      1  C   UNL     1       1.016  10.719  19.029  0.00  0.00    +0.000 C 
ATOM      2  C   UNL     1      -0.124  11.283  19.529  0.00  0.00    +0.000 C 
ATOM      3  C   UNL     1      -0.580  12.846  19.444  0.00  0.00    +0.000 C 
ATOM      4  C   UNL     1       0.720  13.547  18.962  0.00  0.00    +0.000 A 
ATOM      5  C   UNL     1       1.243  14.863  18.882  0.00  0.00    +0.000 A 
ATOM      6  N   UNL     1       0.669  15.978  19.322  0.00  0.00    +0.000 N 
ATOM      7  N   UNL     1       2.448  14.933  18.315  0.00  0.00    +0.000 NA
ATOM      8  N   UNL     1       2.738  13.663  18.013  0.00  0.00    +0.000 N 
ATOM      9  C   UNL     1       1.771  12.805  18.425  0.00  0.00    +0.000 A 
ATOM     10  O   UNL     1       1.930  11.489  18.321  0.00  0.00    +0.000 OA
ATOM     11  H   UNL     1      -0.313  16.077  19.209  0.00  0.00    +0.000 HD
ATOM     12  H   UNL     1       1.153  16.817  18.981  0.00  0.00    +0.000 HD
ATOM     13  H   UNL     1       3.616  13.441  17.553  0.00  0.00    +0.000 HD
ENDROOT
BRANCH   3  14
ATOM     14  C   UNL     1      -1.198  13.243  20.873  0.00  0.00    +0.000 A 
ATOM     15  C   UNL     1      -2.569  13.331  20.751  0.00  0.00    +0.000 A 
ATOM     16  N   UNL     1      -2.812  12.139  21.469  0.00  0.00    +0.000 N 
ATOM     17  C   UNL     1      -2.505  12.614  22.736  0.00  0.00    +0.000 A 
ATOM     18  C   UNL     1      -3.470  12.863  23.724  0.00  0.00    +0.000 A 
ATOM     19  C   UNL     1      -3.292  13.960  24.537  0.00  0.00    +0.000 A 
ATOM     20  C   UNL     1      -2.097  14.672  24.502  0.00  0.00    +0.000 A 
ATOM     21  C   UNL     1      -2.055  15.804  25.519  0.00  0.00    +0.000 C 
ATOM     22  C   UNL     1      -1.064  14.310  23.530  0.00  0.00    +0.000 A 
ATOM     23  C   UNL     1      -1.237  13.235  22.495  0.00  0.00    +0.000 A 
ATOM     24  H   UNL     1      -2.331  11.290  21.200  0.00  0.00    +0.000 HD
BRANCH  15  25
ATOM     25  C   UNL     1      -3.289  14.593  20.782  0.00  0.00    +0.000 A 
ATOM     26  C   UNL     1      -4.697  14.628  20.934  0.00  0.00    +0.000 A 
ATOM     27  C   UNL     1      -5.335  15.826  21.180  0.00  0.00    +0.000 A 
ATOM     28  C   UNL     1      -4.571  16.985  21.228  0.00  0.00    +0.000 A 
ATOM     29  C   UNL     1      -3.191  16.953  20.985  0.00  0.00    +0.000 A 
ATOM     30  C   UNL     1      -2.550  15.751  20.756  0.00  0.00    +0.000 A 
ENDBRANCH  15  25
ENDBRANCH   3  14
BRANCH   1  35
ATOM     31  C   UNL     1       3.129   5.262  19.636  0.00  0.00    +0.000 C 
ATOM     32  C   UNL     1       2.477   6.606  19.463  0.00  0.00    +0.000 A 
ATOM     33  C   UNL     1       2.570   7.292  18.253  0.00  0.00    +0.000 A 
ATOM     34  C   UNL     1       2.051   8.589  18.106  0.00  0.00    +0.000 A 
ATOM     35  C   UNL     1       1.425   9.265  19.161  0.00  0.00    +0.000 A 
ATOM     36  C   UNL     1       1.281   8.535  20.366  0.00  0.00    +0.000 A 
ATOM     37  C   UNL     1       1.795   7.224  20.513  0.00  0.00    +0.000 A 
ENDBRANCH   1  35
TORSDOF 3
ENDMDL
MODEL 5
REMARK VINA RESULT:      -8.7      7.644      9.833
REMARK  Name = 
REMARK  5 active torsions:
REMARK  status: ('A' for Active; 'I' for Inactive)
REMARK    1  A    between atoms: C_1  and  C_2
REMARK    2  A    between atoms: C_5  and  C_6
REMARK    3  A    between atoms: C_8  and  C_9
REMARK    4  A    between atoms: C_10  and  C_11
REMARK    5  A    between atoms: C_21  and  C_22
REMARK                            x       y       z     vdW  Elec       q    Type
REMARK                         _______ _______ _______ _____ _____    ______ ____
ROOT
ATOM      1  C   UNL     1       3.518  15.582  18.300  0.00  0.00    +0.000 C 
ATOM      2  C   UNL     1       2.673  14.512  18.402  0.00  0.00    +0.000 C 
ATOM      3  C   UNL     1       1.043  14.530  18.401  0.00  0.00    +0.000 C 
ATOM      4  C   UNL     1       0.725  16.040  18.581  0.00  0.00    +0.000 A 
ATOM      5  C   UNL     1      -0.387  16.852  18.923  0.00  0.00    +0.000 A 
ATOM      6  N   UNL     1      -1.598  16.438  19.280  0.00  0.00    +0.000 N 
ATOM      7  N   UNL     1      -0.133  18.161  18.887  0.00  0.00    +0.000 NA
ATOM      8  N   UNL     1       1.151  18.231  18.521  0.00  0.00    +0.000 N 
ATOM      9  C   UNL     1       1.712  17.003  18.381  0.00  0.00    +0.000 A 
ATOM     10  O   UNL     1       3.012  16.865  18.135  0.00  0.00    +0.000 OA
ATOM     11  H   UNL     1      -1.981  15.649  18.813  0.00  0.00    +0.000 HD
ATOM     12  H   UNL     1      -2.277  17.208  19.294  0.00  0.00    +0.000 HD
ATOM     13  H   UNL     1       1.595  19.137  18.407  0.00  0.00    +0.000 HD
ENDROOT
BRANCH   3  14
ATOM     14  C   UNL     1       0.551  13.489  19.523  0.00  0.00    +0.000 A 
ATOM     15  C   UNL     1       0.406  12.248  18.940  0.00  0.00    +0.000 A 
ATOM     16  N   UNL     1       1.551  11.706  19.564  0.00  0.00    +0.000 N 
ATOM     17  C   UNL     1       1.032  11.594  20.846  0.00  0.00    +0.000 A 
ATOM     18  C   UNL     1       0.693  10.369  21.440  0.00  0.00    +0.000 A 
ATOM     19  C   UNL     1      -0.431  10.326  22.234  0.00  0.00    +0.000 A 
ATOM     20  C   UNL     1      -1.085  11.501  22.588  0.00  0.00    +0.000 A 
ATOM     21  C   UNL     1      -2.260  11.264  23.526  0.00  0.00    +0.000 C 
ATOM     22  C   UNL     1      -0.631  12.779  22.036  0.00  0.00    +0.000 A 
ATOM     23  C   UNL     1       0.481  12.904  21.034  0.00  0.00    +0.000 A 
ATOM     24  H   UNL     1       2.433  12.199  19.500  0.00  0.00    +0.000 HD
BRANCH  15  25
ATOM     25  C   UNL     1      -0.887  11.636  18.687  0.00  0.00    +0.000 A 
ATOM     26  C   UNL     1      -2.091  12.328  18.968  0.00  0.00    +0.000 A 
ATOM     27  C   UNL     1      -3.296  11.826  18.523  0.00  0.00    +0.000 A 
ATOM     28  C   UNL     1      -3.298  10.617  17.840  0.00  0.00    +0.000 A 
ATOM     29  C   UNL     1      -2.113   9.894  17.646  0.00  0.00    +0.000 A 
ATOM     30  C   UNL     1      -0.904  10.404  18.077  0.00  0.00    +0.000 A 
ENDBRANCH  15  25
ENDBRANCH   3  14
BRANCH   1  35
ATOM     31  C   UNL     1       9.389  15.574  17.935  0.00  0.00    +0.000 C 
ATOM     32  C   UNL     1       7.900  15.536  18.145  0.00  0.00    +0.000 A 
ATOM     33  C   UNL     1       7.140  14.476  17.654  0.00  0.00    +0.000 A 
ATOM     34  C   UNL     1       5.739  14.474  17.756  0.00  0.00    +0.000 A 
ATOM     35  C   UNL     1       5.032  15.530  18.343  0.00  0.00    +0.000 A 
ATOM     36  C   UNL     1       5.819  16.570  18.894  0.00  0.00    +0.000 A 
ATOM     37  C   UNL     1       7.231  16.571  18.801  0.00  0.00    +0.000 A 
ENDBRANCH   1  35
TORSDOF 3
ENDMDL
MODEL 6
REMARK VINA RESULT:      -8.5      8.062     11.164
REMARK  Name = 
REMARK  5 active torsions:
REMARK  status: ('A' for Active; 'I' for Inactive)
REMARK    1  A    between atoms: C_1  and  C_2
REMARK    2  A    between atoms: C_5  and  C_6
REMARK    3  A    between atoms: C_8  and  C_9
REMARK    4  A    between atoms: C_10  and  C_11
REMARK    5  A    between atoms: C_21  and  C_22
REMARK                            x       y       z     vdW  Elec       q    Type
REMARK                         _______ _______ _______ _____ _____    ______ ____
ROOT
ATOM      1  C   UNL     1       0.664  11.188  19.076  0.00  0.00    +0.000 C 
ATOM      2  C   UNL     1      -0.533  11.674  19.522  0.00  0.00    +0.000 C 
ATOM      3  C   UNL     1      -1.066  13.213  19.459  0.00  0.00    +0.000 C 
ATOM      4  C   UNL     1       0.221  13.997  19.082  0.00  0.00    +0.000 A 
ATOM      5  C   UNL     1       0.676  15.340  19.077  0.00  0.00    +0.000 A 
ATOM      6  N   UNL     1       0.018  16.408  19.516  0.00  0.00    +0.000 N 
ATOM      7  N   UNL     1       1.908  15.493  18.589  0.00  0.00    +0.000 NA
ATOM      8  N   UNL     1       2.284  14.251  18.265  0.00  0.00    +0.000 N 
ATOM      9  C   UNL     1       1.341  13.330  18.588  0.00  0.00    +0.000 A 
ATOM     10  O   UNL     1       1.576  12.028  18.451  0.00  0.00    +0.000 OA
ATOM     11  H   UNL     1      -0.959  16.460  19.346  0.00  0.00    +0.000 HD
ATOM     12  H   UNL     1       0.476  17.283  19.233  0.00  0.00    +0.000 HD
ATOM     13  H   UNL     1       3.198  14.091  17.853  0.00  0.00    +0.000 HD
ENDROOT
BRANCH   3  14
ATOM     14  C   UNL     1      -1.791  13.527  20.859  0.00  0.00    +0.000 A 
ATOM     15  C   UNL     1      -2.932  12.758  20.947  0.00  0.00    +0.000 A 
ATOM     16  N   UNL     1      -2.395  11.889  21.922  0.00  0.00    +0.000 N 
ATOM     17  C   UNL     1      -2.433  12.764  22.998  0.00  0.00    +0.000 A 
ATOM     18  C   UNL     1      -3.344  12.645  24.059  0.00  0.00    +0.000 A 
ATOM     19  C   UNL     1      -3.867  13.802  24.592  0.00  0.00    +0.000 A 
ATOM     20  C   UNL     1      -3.354  15.041  24.219  0.00  0.00    +0.000 A 
ATOM     21  C   UNL     1      -4.004  16.198  24.963  0.00  0.00    +0.000 C 
ATOM     22  C   UNL     1      -2.319  15.116  23.185  0.00  0.00    +0.000 A 
ATOM     23  C   UNL     1      -1.807  13.921  22.432  0.00  0.00    +0.000 A 
ATOM     24  H   UNL     1      -1.497  11.450  21.756  0.00  0.00    +0.000 HD
BRANCH  15  25
ATOM     25  C   UNL     1      -4.271  13.310  20.837  0.00  0.00    +0.000 A 
ATOM     26  C   UNL     1      -5.412  12.531  21.150  0.00  0.00    +0.000 A 
ATOM     27  C   UNL     1      -6.651  13.129  21.252  0.00  0.00    +0.000 A 
ATOM     28  C   UNL     1      -6.750  14.491  20.999  0.00  0.00    +0.000 A 
ATOM     29  C   UNL     1      -5.633  15.237  20.601  0.00  0.00    +0.000 A 
ATOM     30  C   UNL     1      -4.390  14.641  20.515  0.00  0.00    +0.000 A 
ENDBRANCH  15  25
ENDBRANCH   3  14
BRANCH   1  35
ATOM     31  C   UNL     1       3.040   5.828  19.573  0.00  0.00    +0.000 C 
ATOM     32  C   UNL     1       2.322   7.143  19.434  0.00  0.00    +0.000 A 
ATOM     33  C   UNL     1       2.324   7.830  18.221  0.00  0.00    +0.000 A 
ATOM     34  C   UNL     1       1.743   9.104  18.102  0.00  0.00    +0.000 A 
ATOM     35  C   UNL     1       1.142   9.753  19.187  0.00  0.00    +0.000 A 
ATOM     36  C   UNL     1       1.090   9.019  20.396  0.00  0.00    +0.000 A 
ATOM     37  C   UNL     1       1.667   7.732  20.517  0.00  0.00    +0.000 A 
ENDBRANCH   1  35
TORSDOF 3
ENDMDL
MODEL 7
REMARK VINA RESULT:      -8.5      7.744     10.805
REMARK  Name = 
REMARK  5 active torsions:
REMARK  status: ('A' for Active; 'I' for Inactive)
REMARK    1  A    between atoms: C_1  and  C_2
REMARK    2  A    between atoms: C_5  and  C_6
REMARK    3  A    between atoms: C_8  and  C_9
REMARK    4  A    between atoms: C_10  and  C_11
REMARK    5  A    between atoms: C_21  and  C_22
REMARK                            x       y       z     vdW  Elec       q    Type
REMARK                         _______ _______ _______ _____ _____    ______ ____
ROOT
ATOM      1  C   UNL     1       1.086  10.653  19.110  0.00  0.00    +0.000 C 
ATOM      2  C   UNL     1      -0.082  11.162  19.606  0.00  0.00    +0.000 C 
ATOM      3  C   UNL     1      -0.619  12.697  19.504  0.00  0.00    +0.000 C 
ATOM      4  C   UNL     1       0.641  13.460  19.010  0.00  0.00    +0.000 A 
ATOM      5  C   UNL     1       1.094  14.801  18.913  0.00  0.00    +0.000 A 
ATOM      6  N   UNL     1       0.463  15.889  19.341  0.00  0.00    +0.000 N 
ATOM      7  N   UNL     1       2.293  14.927  18.343  0.00  0.00    +0.000 NA
ATOM      8  N   UNL     1       2.649  13.671  18.055  0.00  0.00    +0.000 N 
ATOM      9  C   UNL     1       1.729  12.768  18.480  0.00  0.00    +0.000 A 
ATOM     10  O   UNL     1       1.956  11.461  18.391  0.00  0.00    +0.000 OA
ATOM     11  H   UNL     1      -0.523  15.935  19.229  0.00  0.00    +0.000 HD
ATOM     12  H   UNL     1       0.902  16.748  18.988  0.00  0.00    +0.000 HD
ATOM     13  H   UNL     1       3.536  13.489  17.595  0.00  0.00    +0.000 HD
ENDROOT
BRANCH   3  14
ATOM     14  C   UNL     1      -1.255  13.079  20.929  0.00  0.00    +0.000 A 
ATOM     15  C   UNL     1      -2.628  13.116  20.804  0.00  0.00    +0.000 A 
ATOM     16  N   UNL     1      -2.830  11.920  21.526  0.00  0.00    +0.000 N 
ATOM     17  C   UNL     1      -2.543  12.413  22.792  0.00  0.00    +0.000 A 
ATOM     18  C   UNL     1      -3.519  12.631  23.776  0.00  0.00    +0.000 A 
ATOM     19  C   UNL     1      -3.382  13.737  24.584  0.00  0.00    +0.000 A 
ATOM     20  C   UNL     1      -2.214  14.492  24.549  0.00  0.00    +0.000 A 
ATOM     21  C   UNL     1      -2.215  15.630  25.560  0.00  0.00    +0.000 C 
ATOM     22  C   UNL     1      -1.167  14.163  23.581  0.00  0.00    +0.000 A 
ATOM     23  C   UNL     1      -1.298  13.078  22.551  0.00  0.00    +0.000 A 
ATOM     24  H   UNL     1      -2.317  11.088  21.263  0.00  0.00    +0.000 HD
BRANCH  15  25
ATOM     25  C   UNL     1      -3.393  14.352  20.826  0.00  0.00    +0.000 A 
ATOM     26  C   UNL     1      -2.747  15.612  20.825  0.00  0.00    +0.000 A 
ATOM     27  C   UNL     1      -3.481  16.763  20.625  0.00  0.00    +0.000 A 
ATOM     28  C   UNL     1      -4.857  16.654  20.473  0.00  0.00    +0.000 A 
ATOM     29  C   UNL     1      -5.498  15.411  20.567  0.00  0.00    +0.000 A 
ATOM     30  C   UNL     1      -4.762  14.257  20.750  0.00  0.00    +0.000 A 
ENDBRANCH  15  25
ENDBRANCH   3  14
BRANCH   1  35
ATOM     31  C   UNL     1       2.433   4.945  19.586  0.00  0.00    +0.000 C 
ATOM     32  C   UNL     1       2.208   6.429  19.485  0.00  0.00    +0.000 A 
ATOM     33  C   UNL     1       1.674   7.142  20.557  0.00  0.00    +0.000 A 
ATOM     34  C   UNL     1       1.367   8.509  20.446  0.00  0.00    +0.000 A 
ATOM     35  C   UNL     1       1.570   9.224  19.259  0.00  0.00    +0.000 A 
ATOM     36  C   UNL     1       2.171   8.504  18.198  0.00  0.00    +0.000 A 
ATOM     37  C   UNL     1       2.490   7.130  18.311  0.00  0.00    +0.000 A 
ENDBRANCH   1  35
TORSDOF 3
ENDMDL
MODEL 8
REMARK VINA RESULT:      -8.4      9.264     11.935
REMARK  Name = 
REMARK  5 active torsions:
REMARK  status: ('A' for Active; 'I' for Inactive)
REMARK    1  A    between atoms: C_1  and  C_2
REMARK    2  A    between atoms: C_5  and  C_6
REMARK    3  A    between atoms: C_8  and  C_9
REMARK    4  A    between atoms: C_10  and  C_11
REMARK    5  A    between atoms: C_21  and  C_22
REMARK                            x       y       z     vdW  Elec       q    Type
REMARK                         _______ _______ _______ _____ _____    ______ ____
ROOT
ATOM      1  C   UNL     1      -0.629  13.148  19.114  0.00  0.00    +0.000 C 
ATOM      2  C   UNL     1      -1.541  12.927  20.109  0.00  0.00    +0.000 C 
ATOM      3  C   UNL     1      -2.873  11.990  20.046  0.00  0.00    +0.000 C 
ATOM      4  C   UNL     1      -3.003  11.696  18.525  0.00  0.00    +0.000 A 
ATOM      5  C   UNL     1      -3.980  11.197  17.626  0.00  0.00    +0.000 A 
ATOM      6  N   UNL     1      -5.232  10.861  17.914  0.00  0.00    +0.000 N 
ATOM      7  N   UNL     1      -3.553  11.093  16.367  0.00  0.00    +0.000 NA
ATOM      8  N   UNL     1      -2.287  11.522  16.418  0.00  0.00    +0.000 N 
ATOM      9  C   UNL     1      -1.937  11.939  17.661  0.00  0.00    +0.000 A 
ATOM     10  O   UNL     1      -0.758  12.510  17.888  0.00  0.00    +0.000 OA
ATOM     11  H   UNL     1      -5.408  10.399  18.777  0.00  0.00    +0.000 HD
ATOM     12  H   UNL     1      -5.679  10.352  17.142  0.00  0.00    +0.000 HD
ATOM     13  H   UNL     1      -1.723  11.532  15.573  0.00  0.00    +0.000 HD
ENDROOT
BRANCH   3  14
ATOM     14  C   UNL     1      -4.054  12.784  20.793  0.00  0.00    +0.000 A 
ATOM     15  C   UNL     1      -3.636  14.078  21.026  0.00  0.00    +0.000 A 
ATOM     16  N   UNL     1      -4.479  14.636  20.040  0.00  0.00    +0.000 N 
ATOM     17  C   UNL     1      -5.683  14.490  20.715  0.00  0.00    +0.000 A 
ATOM     18  C   UNL     1      -6.392  15.565  21.273  0.00  0.00    +0.000 A 
ATOM     19  C   UNL     1      -7.026  15.362  22.478  0.00  0.00    +0.000 A 
ATOM     20  C   UNL     1      -7.120  14.081  23.014  0.00  0.00    +0.000 A 
ATOM     21  C   UNL     1      -7.917  14.041  24.311  0.00  0.00    +0.000 C 
ATOM     22  C   UNL     1      -6.460  12.962  22.340  0.00  0.00    +0.000 A 
ATOM     23  C   UNL     1      -5.609  13.116  21.112  0.00  0.00    +0.000 A 
ATOM     24  H   UNL     1      -4.464  14.258  19.101  0.00  0.00    +0.000 HD
BRANCH  15  25
ATOM     25  C   UNL     1      -3.302  14.577  22.349  0.00  0.00    +0.000 A 
ATOM     26  C   UNL     1      -3.058  15.955  22.570  0.00  0.00    +0.000 A 
ATOM     27  C   UNL     1      -2.959  16.440  23.858  0.00  0.00    +0.000 A 
ATOM     28  C   UNL     1      -3.061  15.543  24.913  0.00  0.00    +0.000 A 
ATOM     29  C   UNL     1      -3.211  14.169  24.682  0.00  0.00    +0.000 A 
ATOM     30  C   UNL     1      -3.326  13.685  23.394  0.00  0.00    +0.000 A 
ENDBRANCH  15  25
ENDBRANCH   3  14
BRANCH   1  35
ATOM     31  C   UNL     1       4.198  16.506  18.918  0.00  0.00    +0.000 C 
ATOM     32  C   UNL     1       2.942  15.694  19.082  0.00  0.00    +0.000 A 
ATOM     33  C   UNL     1       3.006  14.348  19.437  0.00  0.00    +0.000 A 
ATOM     34  C   UNL     1       1.850  13.552  19.498  0.00  0.00    +0.000 A 
ATOM     35  C   UNL     1       0.580  14.059  19.198  0.00  0.00    +0.000 A 
ATOM     36  C   UNL     1       0.519  15.441  18.900  0.00  0.00    +0.000 A 
ATOM     37  C   UNL     1       1.682  16.248  18.847  0.00  0.00    +0.000 A 
ENDBRANCH   1  35
TORSDOF 3
ENDMDL
MODEL 9
REMARK VINA RESULT:      -8.4      7.839     11.074
REMARK  Name = 
REMARK  5 active torsions:
REMARK  status: ('A' for Active; 'I' for Inactive)
REMARK    1  A    between atoms: C_1  and  C_2
REMARK    2  A    between atoms: C_5  and  C_6
REMARK    3  A    between atoms: C_8  and  C_9
REMARK    4  A    between atoms: C_10  and  C_11
REMARK    5  A    between atoms: C_21  and  C_22
REMARK                            x       y       z     vdW  Elec       q    Type
REMARK                         _______ _______ _______ _____ _____    ______ ____
ROOT
ATOM      1  C   UNL     1       1.345  11.789  18.807  0.00  0.00    +0.000 C 
ATOM      2  C   UNL     1       0.314  12.624  19.136  0.00  0.00    +0.000 C 
ATOM      3  C   UNL     1       0.213  14.230  18.874  0.00  0.00    +0.000 C 
ATOM      4  C   UNL     1       1.669  14.595  18.473  0.00  0.00    +0.000 A 
ATOM      5  C   UNL     1       2.467  15.760  18.339  0.00  0.00    +0.000 A 
ATOM      6  N   UNL     1       2.110  17.008  18.623  0.00  0.00    +0.000 N 
ATOM      7  N   UNL     1       3.702  15.522  17.898  0.00  0.00    +0.000 NA
ATOM      8  N   UNL     1       3.738  14.196  17.735  0.00  0.00    +0.000 N 
ATOM      9  C   UNL     1       2.578  13.602  18.113  0.00  0.00    +0.000 A 
ATOM     10  O   UNL     1       2.459  12.277  18.136  0.00  0.00    +0.000 OA
ATOM     11  H   UNL     1       1.185  17.295  18.400  0.00  0.00    +0.000 HD
ATOM     12  H   UNL     1       2.790  17.691  18.265  0.00  0.00    +0.000 HD
ATOM     13  H   UNL     1       4.583  13.751  17.389  0.00  0.00    +0.000 HD
ENDROOT
BRANCH   3  14
ATOM     14  C   UNL     1      -0.425  14.891  20.192  0.00  0.00    +0.000 A 
ATOM     15  C   UNL     1      -0.471  13.937  21.187  0.00  0.00    +0.000 A 
ATOM     16  N   UNL     1       0.576  14.517  21.935  0.00  0.00    +0.000 N 
ATOM     17  C   UNL     1      -0.121  15.614  22.419  0.00  0.00    +0.000 A 
ATOM     18  C   UNL     1      -0.529  15.743  23.755  0.00  0.00    +0.000 A 
ATOM     19  C   UNL     1      -1.756  16.318  24.002  0.00  0.00    +0.000 A 
ATOM     20  C   UNL     1      -2.467  16.924  22.971  0.00  0.00    +0.000 A 
ATOM     21  C   UNL     1      -3.763  17.566  23.445  0.00  0.00    +0.000 C 
ATOM     22  C   UNL     1      -1.951  16.866  21.602  0.00  0.00    +0.000 A 
ATOM     23  C   UNL     1      -0.707  16.120  21.213  0.00  0.00    +0.000 A 
ATOM     24  H   UNL     1       1.453  14.733  21.477  0.00  0.00    +0.000 HD
BRANCH  15  25
ATOM     25  C   UNL     1      -1.708  13.327  21.645  0.00  0.00    +0.000 A 
ATOM     26  C   UNL     1      -1.762  12.611  22.865  0.00  0.00    +0.000 A 
ATOM     27  C   UNL     1      -2.980  12.230  23.389  0.00  0.00    +0.000 A 
ATOM     28  C   UNL     1      -4.131  12.528  22.672  0.00  0.00    +0.000 A 
ATOM     29  C   UNL     1      -4.062  13.157  21.421  0.00  0.00    +0.000 A 
ATOM     30  C   UNL     1      -2.844  13.552  20.904  0.00  0.00    +0.000 A 
ENDBRANCH  15  25
ENDBRANCH   3  14
BRANCH   1  35
ATOM     31  C   UNL     1       2.182   6.105  20.072  0.00  0.00    +0.000 C 
ATOM     32  C   UNL     1       1.849   7.531  19.726  0.00  0.00    +0.000 A 
ATOM     33  C   UNL     1       2.165   8.050  18.472  0.00  0.00    +0.000 A 
ATOM     34  C   UNL     1       1.950   9.405  18.168  0.00  0.00    +0.000 A 
ATOM     35  C   UNL     1       1.420  10.304  19.101  0.00  0.00    +0.000 A 
ATOM     36  C   UNL     1       1.045   9.751  20.350  0.00  0.00    +0.000 A 
ATOM     37  C   UNL     1       1.253   8.384  20.656  0.00  0.00    +0.000 A 
ENDBRANCH   1  35
TORSDOF 3
ENDMDL
