MODEL 1
REMARK VINA RESULT:      -6.0      0.000      0.000
REMARK  Name = 
REMARK  7 active torsions:
REMARK  status: ('A' for Active; 'I' for Inactive)
REMARK    1  A    between atoms: C_1  and  N_2
REMARK    2  A    between atoms: N_2  and  C_3
REMARK    3  A    between atoms: N_2  and  C_4
REMARK    4  A    between atoms: C_4  and  N_10
REMARK    5  A    between atoms: C_5  and  C_6
REMARK    6  A    between atoms: C_5  and  C_8
REMARK    7  A    between atoms: N_13  and  C_14
REMARK                            x       y       z     vdW  Elec       q    Type
REMARK                         _______ _______ _______ _____ _____    ______ ____
ROOT
ATOM      1  N   UNL     1       3.727   6.101  18.362  0.00  0.00    +0.000 N 
ATOM      2  C   UNL     1       3.462   7.473  17.863  0.00  0.00    +0.000 C 
ATOM      3  C   UNL     1       2.019   7.912  18.211  0.00  0.00    +0.000 C 
ATOM      4  N   UNL     1       1.793   7.764  19.661  0.00  0.00    +0.000 N 
ATOM      5  C   UNL     1       2.052   6.408  20.180  0.00  0.00    +0.000 C 
ATOM      6  C   UNL     1       3.486   5.969  19.816  0.00  0.00    +0.000 C 
ENDROOT
BRANCH   4   7
ATOM      7  C   UNL     1       1.169   8.729  20.420  0.00  0.00    +0.000 A 
ATOM      8  C   UNL     1       0.948   8.565  21.795  0.00  0.00    +0.000 A 
ATOM      9  C   UNL     1       0.302   9.545  22.558  0.00  0.00    +0.000 A 
ATOM     10  C   UNL     1      -0.151  10.707  21.948  0.00  0.00    +0.000 A 
ATOM     11 CL   UNL     1      -0.941  11.915  22.882  0.00  0.00    +0.000 Cl
ATOM     12  C   UNL     1       0.035  10.896  20.585  0.00  0.00    +0.000 A 
ATOM     13  C   UNL     1       0.693   9.915  19.835  0.00  0.00    +0.000 A 
ENDBRANCH   4   7
BRANCH   1  14
ATOM     14  C   UNL     1       4.249   5.069  17.573  0.00  0.00    +0.000 C 
ATOM     15  C   UNL     1       5.374   5.249  16.824  0.00  0.00    +0.000 C 
BRANCH  14  17
ATOM     16  C   UNL     1       4.038   2.625  18.167  0.00  0.00    +0.000 C 
ATOM     17  N   UNL     1       3.529   3.861  17.566  0.00  0.00    +0.000 N 
ATOM     18  C   UNL     1       2.189   3.783  16.985  0.00  0.00    +0.000 C 
ENDBRANCH  14  17
BRANCH  15  19
ATOM     19  C   UNL     1       5.821   4.283  15.877  0.00  0.00    +0.000 C 
ATOM     20  N   UNL     1       6.186   3.528  15.077  0.00  0.00    +0.000 NA
ENDBRANCH  15  19
BRANCH  15  21
ATOM     21  C   UNL     1       6.161   6.434  16.917  0.00  0.00    +0.000 C 
ATOM     22  N   UNL     1       6.802   7.399  16.956  0.00  0.00    +0.000 NA
ENDBRANCH  15  21
ENDBRANCH   1  14
TORSDOF 5
ENDMDL
MODEL 2
REMARK VINA RESULT:      -5.9      0.153      1.029
REMARK  Name = 
REMARK  7 active torsions:
REMARK  status: ('A' for Active; 'I' for Inactive)
REMARK    1  A    between atoms: C_1  and  N_2
REMARK    2  A    between atoms: N_2  and  C_3
REMARK    3  A    between atoms: N_2  and  C_4
REMARK    4  A    between atoms: C_4  and  N_10
REMARK    5  A    between atoms: C_5  and  C_6
REMARK    6  A    between atoms: C_5  and  C_8
REMARK    7  A    between atoms: N_13  and  C_14
REMARK                            x       y       z     vdW  Elec       q    Type
REMARK                         _______ _______ _______ _____ _____    ______ ____
ROOT
ATOM      1  N   UNL     1       3.673   6.200  18.391  0.00  0.00    +0.000 N 
ATOM      2  C   UNL     1       3.407   7.561  17.866  0.00  0.00    +0.000 C 
ATOM      3  C   UNL     1       1.960   8.002  18.199  0.00  0.00    +0.000 C 
ATOM      4  N   UNL     1       1.728   7.881  19.651  0.00  0.00    +0.000 N 
ATOM      5  C   UNL     1       1.989   6.535  20.195  0.00  0.00    +0.000 C 
ATOM      6  C   UNL     1       3.427   6.095  19.847  0.00  0.00    +0.000 C 
ENDROOT
BRANCH   4   7
ATOM      7  C   UNL     1       1.098   8.857  20.389  0.00  0.00    +0.000 A 
ATOM      8  C   UNL     1       0.812  10.123  19.858  0.00  0.00    +0.000 A 
ATOM      9  C   UNL     1       0.182  11.115  20.618  0.00  0.00    +0.000 A 
ATOM     10  C   UNL     1      -0.161  10.858  21.939  0.00  0.00    +0.000 A 
ATOM     11 CL   UNL     1      -0.939  12.072  22.875  0.00  0.00    +0.000 Cl
ATOM     12  C   UNL     1       0.122   9.622  22.503  0.00  0.00    +0.000 A 
ATOM     13  C   UNL     1       0.742   8.634  21.730  0.00  0.00    +0.000 A 
ENDBRANCH   4   7
BRANCH   1  14
ATOM     14  C   UNL     1       4.202   5.155  17.624  0.00  0.00    +0.000 C 
ATOM     15  C   UNL     1       5.327   5.327  16.872  0.00  0.00    +0.000 C 
BRANCH  14  17
ATOM     16  C   UNL     1       4.032   2.706  18.211  0.00  0.00    +0.000 C 
ATOM     17  N   UNL     1       3.490   3.943  17.641  0.00  0.00    +0.000 N 
ATOM     18  C   UNL     1       2.126   3.861  17.119  0.00  0.00    +0.000 C 
ENDBRANCH  14  17
BRANCH  15  19
ATOM     19  C   UNL     1       5.781   4.345  15.946  0.00  0.00    +0.000 C 
ATOM     20  N   UNL     1       6.165   3.522  15.226  0.00  0.00    +0.000 NA
ENDBRANCH  15  19
BRANCH  15  21
ATOM     21  C   UNL     1       6.107   6.519  16.942  0.00  0.00    +0.000 C 
ATOM     22  N   UNL     1       6.764   7.470  17.021  0.00  0.00    +0.000 NA
ENDBRANCH  15  21
ENDBRANCH   1  14
TORSDOF 5
ENDMDL
MODEL 3
REMARK VINA RESULT:      -5.8      3.880      7.932
REMARK  Name = 
REMARK  7 active torsions:
REMARK  status: ('A' for Active; 'I' for Inactive)
REMARK    1  A    between atoms: C_1  and  N_2
REMARK    2  A    between atoms: N_2  and  C_3
REMARK    3  A    between atoms: N_2  and  C_4
REMARK    4  A    between atoms: C_4  and  N_10
REMARK    5  A    between atoms: C_5  and  C_6
REMARK    6  A    between atoms: C_5  and  C_8
REMARK    7  A    between atoms: N_13  and  C_14
REMARK                            x       y       z     vdW  Elec       q    Type
REMARK                         _______ _______ _______ _____ _____    ______ ____
ROOT
ATOM      1  N   UNL     1       0.833  10.614  19.113  0.00  0.00    +0.000 N 
ATOM      2  C   UNL     1       1.125   9.819  17.896  0.00  0.00    +0.000 C 
ATOM      3  C   UNL     1       2.256   8.798  18.168  0.00  0.00    +0.000 C 
ATOM      4  N   UNL     1       1.904   7.968  19.335  0.00  0.00    +0.000 N 
ATOM      5  C   UNL     1       1.608   8.739  20.558  0.00  0.00    +0.000 C 
ATOM      6  C   UNL     1       0.491   9.765  20.277  0.00  0.00    +0.000 C 
ENDROOT
BRANCH   4   7
ATOM      7  C   UNL     1       2.068   6.601  19.356  0.00  0.00    +0.000 A 
ATOM      8  C   UNL     1       2.442   5.881  18.213  0.00  0.00    +0.000 A 
ATOM      9  C   UNL     1       2.596   4.489  18.238  0.00  0.00    +0.000 A 
ATOM     10  C   UNL     1       2.360   3.790  19.415  0.00  0.00    +0.000 A 
ATOM     11 CL   UNL     1       2.551   2.082  19.452  0.00  0.00    +0.000 Cl
ATOM     12  C   UNL     1       1.972   4.470  20.562  0.00  0.00    +0.000 A 
ATOM     13  C   UNL     1       1.832   5.861  20.528  0.00  0.00    +0.000 A 
ENDBRANCH   4   7
BRANCH   1  14
ATOM     14  C   UNL     1       0.781  12.013  19.141  0.00  0.00    +0.000 C 
ATOM     15  C   UNL     1      -0.385  12.683  18.907  0.00  0.00    +0.000 C 
BRANCH  14  17
ATOM     16  C   UNL     1       2.954  12.998  18.319  0.00  0.00    +0.000 C 
ATOM     17  N   UNL     1       1.994  12.681  19.380  0.00  0.00    +0.000 N 
ATOM     18  C   UNL     1       2.351  13.142  20.722  0.00  0.00    +0.000 C 
ENDBRANCH  14  17
BRANCH  15  19
ATOM     19  C   UNL     1      -0.430  14.097  18.749  0.00  0.00    +0.000 C 
ATOM     20  N   UNL     1      -0.425  15.250  18.627  0.00  0.00    +0.000 NA
ENDBRANCH  15  19
BRANCH  15  21
ATOM     21  C   UNL     1      -1.631  12.004  18.774  0.00  0.00    +0.000 C 
ATOM     22  N   UNL     1      -2.650  11.456  18.701  0.00  0.00    +0.000 NA
ENDBRANCH  15  21
ENDBRANCH   1  14
TORSDOF 5
ENDMDL
MODEL 4
REMARK VINA RESULT:      -5.8      2.113      3.593
REMARK  Name = 
REMARK  7 active torsions:
REMARK  status: ('A' for Active; 'I' for Inactive)
REMARK    1  A    between atoms: C_1  and  N_2
REMARK    2  A    between atoms: N_2  and  C_3
REMARK    3  A    between atoms: N_2  and  C_4
REMARK    4  A    between atoms: C_4  and  N_10
REMARK    5  A    between atoms: C_5  and  C_6
REMARK    6  A    between atoms: C_5  and  C_8
REMARK    7  A    between atoms: N_13  and  C_14
REMARK                            x       y       z     vdW  Elec       q    Type
REMARK                         _______ _______ _______ _____ _____    ______ ____
ROOT
ATOM      1  N   UNL     1       2.714   5.513  19.363  0.00  0.00    +0.000 N 
ATOM      2  C   UNL     1       1.896   5.898  20.539  0.00  0.00    +0.000 C 
ATOM      3  C   UNL     1       2.027   7.414  20.823  0.00  0.00    +0.000 C 
ATOM      4  N   UNL     1       1.694   8.177  19.606  0.00  0.00    +0.000 N 
ATOM      5  C   UNL     1       2.495   7.809  18.423  0.00  0.00    +0.000 C 
ATOM      6  C   UNL     1       2.372   6.295  18.153  0.00  0.00    +0.000 C 
ENDROOT
BRANCH   4   7
ATOM      7  C   UNL     1       0.885   9.291  19.622  0.00  0.00    +0.000 A 
ATOM      8  C   UNL     1       0.449   9.876  20.819  0.00  0.00    +0.000 A 
ATOM      9  C   UNL     1      -0.383  11.002  20.828  0.00  0.00    +0.000 A 
ATOM     10  C   UNL     1      -0.808  11.555  19.627  0.00  0.00    +0.000 A 
ATOM     11 CL   UNL     1      -1.826  12.940  19.633  0.00  0.00    +0.000 Cl
ATOM     12  C   UNL     1      -0.409  10.992  18.422  0.00  0.00    +0.000 A 
ATOM     13  C   UNL     1       0.432   9.874  18.426  0.00  0.00    +0.000 A 
ENDBRANCH   4   7
BRANCH   1  14
ATOM     14  C   UNL     1       3.633   4.457  19.361  0.00  0.00    +0.000 C 
ATOM     15  C   UNL     1       3.386   3.302  20.043  0.00  0.00    +0.000 C 
BRANCH  14  17
ATOM     16  C   UNL     1       5.973   5.393  19.226  0.00  0.00    +0.000 C 
ATOM     17  N   UNL     1       4.831   4.671  18.658  0.00  0.00    +0.000 N 
ATOM     18  C   UNL     1       5.022   4.135  17.309  0.00  0.00    +0.000 C 
ENDBRANCH  14  17
BRANCH  15  19
ATOM     19  C   UNL     1       4.375   2.290  20.209  0.00  0.00    +0.000 C 
ATOM     20  N   UNL     1       5.178   1.473  20.387  0.00  0.00    +0.000 NA
ENDBRANCH  15  19
BRANCH  15  21
ATOM     21  C   UNL     1       2.129   3.045  20.663  0.00  0.00    +0.000 C 
ATOM     22  N   UNL     1       1.101   2.808  21.145  0.00  0.00    +0.000 NA
ENDBRANCH  15  21
ENDBRANCH   1  14
TORSDOF 5
ENDMDL
MODEL 5
REMARK VINA RESULT:      -5.8      2.099      3.736
REMARK  Name = 
REMARK  7 active torsions:
REMARK  status: ('A' for Active; 'I' for Inactive)
REMARK    1  A    between atoms: C_1  and  N_2
REMARK    2  A    between atoms: N_2  and  C_3
REMARK    3  A    between atoms: N_2  and  C_4
REMARK    4  A    between atoms: C_4  and  N_10
REMARK    5  A    between atoms: C_5  and  C_6
REMARK    6  A    between atoms: C_5  and  C_8
REMARK    7  A    between atoms: N_13  and  C_14
REMARK                            x       y       z     vdW  Elec       q    Type
REMARK                         _______ _______ _______ _____ _____    ______ ____
ROOT
ATOM      1  N   UNL     1       2.709   5.517  19.354  0.00  0.00    +0.000 N 
ATOM      2  C   UNL     1       1.900   5.909  20.533  0.00  0.00    +0.000 C 
ATOM      3  C   UNL     1       2.038   7.427  20.809  0.00  0.00    +0.000 C 
ATOM      4  N   UNL     1       1.699   8.185  19.590  0.00  0.00    +0.000 N 
ATOM      5  C   UNL     1       2.491   7.808  18.403  0.00  0.00    +0.000 C 
ATOM      6  C   UNL     1       2.362   6.293  18.143  0.00  0.00    +0.000 C 
ENDROOT
BRANCH   4   7
ATOM      7  C   UNL     1       0.894   9.302  19.606  0.00  0.00    +0.000 A 
ATOM      8  C   UNL     1       0.404   9.881  18.428  0.00  0.00    +0.000 A 
ATOM      9  C   UNL     1      -0.404  11.025  18.450  0.00  0.00    +0.000 A 
ATOM     10  C   UNL     1      -0.723  11.620  19.664  0.00  0.00    +0.000 A 
ATOM     11 CL   UNL     1      -1.718  13.021  19.697  0.00  0.00    +0.000 Cl
ATOM     12  C   UNL     1      -0.241  11.083  20.850  0.00  0.00    +0.000 A 
ATOM     13  C   UNL     1       0.556   9.933  20.816  0.00  0.00    +0.000 A 
ENDBRANCH   4   7
BRANCH   1  14
ATOM     14  C   UNL     1       3.625   4.457  19.351  0.00  0.00    +0.000 C 
ATOM     15  C   UNL     1       3.367   3.296  20.018  0.00  0.00    +0.000 C 
BRANCH  14  17
ATOM     16  C   UNL     1       5.068   4.202  17.297  0.00  0.00    +0.000 C 
ATOM     17  N   UNL     1       4.831   4.675  18.664  0.00  0.00    +0.000 N 
ATOM     18  C   UNL     1       5.922   5.437  19.273  0.00  0.00    +0.000 C 
ENDBRANCH  14  17
BRANCH  15  19
ATOM     19  C   UNL     1       4.350   2.279  20.184  0.00  0.00    +0.000 C 
ATOM     20  N   UNL     1       5.166   1.473  20.354  0.00  0.00    +0.000 NA
ENDBRANCH  15  19
BRANCH  15  21
ATOM     21  C   UNL     1       2.101   3.037  20.621  0.00  0.00    +0.000 C 
ATOM     22  N   UNL     1       1.088   2.801  21.132  0.00  0.00    +0.000 NA
ENDBRANCH  15  21
ENDBRANCH   1  14
TORSDOF 5
ENDMDL
MODEL 6
REMARK VINA RESULT:      -5.7      3.825      7.798
REMARK  Name = 
REMARK  7 active torsions:
REMARK  status: ('A' for Active; 'I' for Inactive)
REMARK    1  A    between atoms: C_1  and  N_2
REMARK    2  A    between atoms: N_2  and  C_3
REMARK    3  A    between atoms: N_2  and  C_4
REMARK    4  A    between atoms: C_4  and  N_10
REMARK    5  A    between atoms: C_5  and  C_6
REMARK    6  A    between atoms: C_5  and  C_8
REMARK    7  A    between atoms: N_13  and  C_14
REMARK                            x       y       z     vdW  Elec       q    Type
REMARK                         _______ _______ _______ _____ _____    ______ ____
ROOT
ATOM      1  N   UNL     1      -0.160  10.526  19.180  0.00  0.00    +0.000 N 
ATOM      2  C   UNL     1       0.184   9.702  17.996  0.00  0.00    +0.000 C 
ATOM      3  C   UNL     1       1.597   9.086  18.152  0.00  0.00    +0.000 C 
ATOM      4  N   UNL     1       1.675   8.343  19.423  0.00  0.00    +0.000 N 
ATOM      5  C   UNL     1       1.334   9.144  20.615  0.00  0.00    +0.000 C 
ATOM      6  C   UNL     1      -0.068   9.767  20.447  0.00  0.00    +0.000 C 
ENDROOT
BRANCH   4   7
ATOM      7  C   UNL     1       2.243   7.093  19.522  0.00  0.00    +0.000 A 
ATOM      8  C   UNL     1       3.255   6.665  18.652  0.00  0.00    +0.000 A 
ATOM      9  C   UNL     1       3.820   5.388  18.750  0.00  0.00    +0.000 A 
ATOM     10  C   UNL     1       3.365   4.506  19.721  0.00  0.00    +0.000 A 
ATOM     11 CL   UNL     1       4.059   2.938  19.849  0.00  0.00    +0.000 Cl
ATOM     12  C   UNL     1       2.352   4.889  20.590  0.00  0.00    +0.000 A 
ATOM     13  C   UNL     1       1.803   6.172  20.489  0.00  0.00    +0.000 A 
ENDBRANCH   4   7
BRANCH   1  14
ATOM     14  C   UNL     1      -0.626  11.845  19.107  0.00  0.00    +0.000 C 
ATOM     15  C   UNL     1       0.225  12.884  18.868  0.00  0.00    +0.000 C 
BRANCH  14  17
ATOM     16  C   UNL     1      -2.536  12.556  20.595  0.00  0.00    +0.000 C 
ATOM     17  N   UNL     1      -1.999  12.038  19.333  0.00  0.00    +0.000 N 
ATOM     18  C   UNL     1      -2.984  11.767  18.285  0.00  0.00    +0.000 C 
ENDBRANCH  14  17
BRANCH  15  19
ATOM     19  C   UNL     1      -0.187  14.244  18.970  0.00  0.00    +0.000 C 
ATOM     20  N   UNL     1      -0.489  15.358  19.078  0.00  0.00    +0.000 NA
ENDBRANCH  15  19
BRANCH  15  21
ATOM     21  C   UNL     1       1.595  12.677  18.532  0.00  0.00    +0.000 C 
ATOM     22  N   UNL     1       2.698  12.485  18.232  0.00  0.00    +0.000 NA
ENDBRANCH  15  21
ENDBRANCH   1  14
TORSDOF 5
ENDMDL
MODEL 7
REMARK VINA RESULT:      -5.7      3.841      7.808
REMARK  Name = 
REMARK  7 active torsions:
REMARK  status: ('A' for Active; 'I' for Inactive)
REMARK    1  A    between atoms: C_1  and  N_2
REMARK    2  A    between atoms: N_2  and  C_3
REMARK    3  A    between atoms: N_2  and  C_4
REMARK    4  A    between atoms: C_4  and  N_10
REMARK    5  A    between atoms: C_5  and  C_6
REMARK    6  A    between atoms: C_5  and  C_8
REMARK    7  A    between atoms: N_13  and  C_14
REMARK                            x       y       z     vdW  Elec       q    Type
REMARK                         _______ _______ _______ _____ _____    ______ ____
ROOT
ATOM      1  N   UNL     1      -0.203  10.539  19.169  0.00  0.00    +0.000 N 
ATOM      2  C   UNL     1       0.117   9.753  17.953  0.00  0.00    +0.000 C 
ATOM      3  C   UNL     1       1.541   9.151  18.052  0.00  0.00    +0.000 C 
ATOM      4  N   UNL     1       1.664   8.374  19.300  0.00  0.00    +0.000 N 
ATOM      5  C   UNL     1       1.347   9.137  20.522  0.00  0.00    +0.000 C 
ATOM      6  C   UNL     1      -0.066   9.747  20.412  0.00  0.00    +0.000 C 
ENDROOT
BRANCH   4   7
ATOM      7  C   UNL     1       2.250   7.129  19.348  0.00  0.00    +0.000 A 
ATOM      8  C   UNL     1       1.982   6.221  20.382  0.00  0.00    +0.000 A 
ATOM      9  C   UNL     1       2.591   4.961  20.432  0.00  0.00    +0.000 A 
ATOM     10  C   UNL     1       3.499   4.594  19.446  0.00  0.00    +0.000 A 
ATOM     11 CL   UNL     1       4.246   3.048  19.501  0.00  0.00    +0.000 Cl
ATOM     12  C   UNL     1       3.801   5.476  18.416  0.00  0.00    +0.000 A 
ATOM     13  C   UNL     1       3.178   6.727  18.371  0.00  0.00    +0.000 A 
ENDBRANCH   4   7
BRANCH   1  14
ATOM     14  C   UNL     1      -0.687  11.854  19.146  0.00  0.00    +0.000 C 
ATOM     15  C   UNL     1       0.150  12.913  18.952  0.00  0.00    +0.000 C 
BRANCH  14  17
ATOM     16  C   UNL     1      -2.610  12.523  20.637  0.00  0.00    +0.000 C 
ATOM     17  N   UNL     1      -2.064  12.018  19.373  0.00  0.00    +0.000 N 
ATOM     18  C   UNL     1      -3.043  11.730  18.325  0.00  0.00    +0.000 C 
ENDBRANCH  14  17
BRANCH  15  19
ATOM     19  C   UNL     1      -0.281  14.261  19.105  0.00  0.00    +0.000 C 
ATOM     20  N   UNL     1      -0.636  15.352  19.273  0.00  0.00    +0.000 NA
ENDBRANCH  15  19
BRANCH  15  21
ATOM     21  C   UNL     1       1.524  12.737  18.614  0.00  0.00    +0.000 C 
ATOM     22  N   UNL     1       2.632  12.593  18.304  0.00  0.00    +0.000 NA
ENDBRANCH  15  21
ENDBRANCH   1  14
TORSDOF 5
ENDMDL
MODEL 8
REMARK VINA RESULT:      -5.7      3.904      7.875
REMARK  Name = 
REMARK  7 active torsions:
REMARK  status: ('A' for Active; 'I' for Inactive)
REMARK    1  A    between atoms: C_1  and  N_2
REMARK    2  A    between atoms: N_2  and  C_3
REMARK    3  A    between atoms: N_2  and  C_4
REMARK    4  A    between atoms: C_4  and  N_10
REMARK    5  A    between atoms: C_5  and  C_6
REMARK    6  A    between atoms: C_5  and  C_8
REMARK    7  A    between atoms: N_13  and  C_14
REMARK                            x       y       z     vdW  Elec       q    Type
REMARK                         _______ _______ _______ _____ _____    ______ ____
ROOT
ATOM      1  N   UNL     1       0.859  10.669  19.085  0.00  0.00    +0.000 N 
ATOM      2  C   UNL     1       1.214   9.878  17.881  0.00  0.00    +0.000 C 
ATOM      3  C   UNL     1       2.320   8.847  18.212  0.00  0.00    +0.000 C 
ATOM      4  N   UNL     1       1.896   8.014  19.353  0.00  0.00    +0.000 N 
ATOM      5  C   UNL     1       1.536   8.781  20.562  0.00  0.00    +0.000 C 
ATOM      6  C   UNL     1       0.445   9.817  20.223  0.00  0.00    +0.000 C 
ENDROOT
BRANCH   4   7
ATOM      7  C   UNL     1       2.049   6.646  19.376  0.00  0.00    +0.000 A 
ATOM      8  C   UNL     1       1.869   5.897  20.547  0.00  0.00    +0.000 A 
ATOM      9  C   UNL     1       2.039   4.508  20.566  0.00  0.00    +0.000 A 
ATOM     10  C   UNL     1       2.410   3.842  19.405  0.00  0.00    +0.000 A 
ATOM     11 CL   UNL     1       2.616   2.136  19.422  0.00  0.00    +0.000 Cl
ATOM     12  C   UNL     1       2.614   4.554  18.230  0.00  0.00    +0.000 A 
ATOM     13  C   UNL     1       2.430   5.941  18.221  0.00  0.00    +0.000 A 
ENDBRANCH   4   7
BRANCH   1  14
ATOM     14  C   UNL     1       0.815  12.068  19.117  0.00  0.00    +0.000 C 
ATOM     15  C   UNL     1      -0.341  12.747  18.863  0.00  0.00    +0.000 C 
BRANCH  14  17
ATOM     16  C   UNL     1       2.433  13.144  20.728  0.00  0.00    +0.000 C 
ATOM     17  N   UNL     1       2.028  12.727  19.382  0.00  0.00    +0.000 N 
ATOM     18  C   UNL     1       2.990  12.999  18.314  0.00  0.00    +0.000 C 
ENDBRANCH  14  17
BRANCH  15  19
ATOM     19  C   UNL     1      -0.374  14.162  18.709  0.00  0.00    +0.000 C 
ATOM     20  N   UNL     1      -0.428  15.316  18.618  0.00  0.00    +0.000 NA
ENDBRANCH  15  19
BRANCH  15  21
ATOM     21  C   UNL     1      -1.589  12.077  18.703  0.00  0.00    +0.000 C 
ATOM     22  N   UNL     1      -2.614  11.558  18.548  0.00  0.00    +0.000 NA
ENDBRANCH  15  21
ENDBRANCH   1  14
TORSDOF 5
ENDMDL
MODEL 9
REMARK VINA RESULT:      -5.7      4.620      9.522
REMARK  Name = 
REMARK  7 active torsions:
REMARK  status: ('A' for Active; 'I' for Inactive)
REMARK    1  A    between atoms: C_1  and  N_2
REMARK    2  A    between atoms: N_2  and  C_3
REMARK    3  A    between atoms: N_2  and  C_4
REMARK    4  A    between atoms: C_4  and  N_10
REMARK    5  A    between atoms: C_5  and  C_6
REMARK    6  A    between atoms: C_5  and  C_8
REMARK    7  A    between atoms: N_13  and  C_14
REMARK                            x       y       z     vdW  Elec       q    Type
REMARK                         _______ _______ _______ _____ _____    ______ ____
ROOT
ATOM      1  N   UNL     1      -1.561  11.879  21.862  0.00  0.00    +0.000 N 
ATOM      2  C   UNL     1      -1.539  11.761  20.384  0.00  0.00    +0.000 C 
ATOM      3  C   UNL     1      -0.102  11.483  19.879  0.00  0.00    +0.000 C 
ATOM      4  N   UNL     1       0.444  10.298  20.568  0.00  0.00    +0.000 N 
ATOM      5  C   UNL     1       0.430  10.394  22.040  0.00  0.00    +0.000 C 
ATOM      6  C   UNL     1      -1.002  10.686  22.536  0.00  0.00    +0.000 C 
ENDROOT
BRANCH   4   7
ATOM      7  C   UNL     1       1.124   9.300  19.908  0.00  0.00    +0.000 A 
ATOM      8  C   UNL     1       1.409   9.375  18.537  0.00  0.00    +0.000 A 
ATOM      9  C   UNL     1       2.090   8.350  17.869  0.00  0.00    +0.000 A 
ATOM     10  C   UNL     1       2.487   7.217  18.567  0.00  0.00    +0.000 A 
ATOM     11 CL   UNL     1       3.327   5.958  17.753  0.00  0.00    +0.000 Cl
ATOM     12  C   UNL     1       2.206   7.100  19.922  0.00  0.00    +0.000 A 
ATOM     13  C   UNL     1       1.535   8.136  20.581  0.00  0.00    +0.000 A 
ENDBRANCH   4   7
BRANCH   1  14
ATOM     14  C   UNL     1      -2.142  12.950  22.553  0.00  0.00    +0.000 C 
ATOM     15  C   UNL     1      -1.410  14.045  22.907  0.00  0.00    +0.000 C 
BRANCH  14  17
ATOM     16  C   UNL     1      -4.590  13.080  21.952  0.00  0.00    +0.000 C 
ATOM     17  N   UNL     1      -3.499  12.813  22.894  0.00  0.00    +0.000 N 
ATOM     18  C   UNL     1      -3.901  12.345  24.220  0.00  0.00    +0.000 C 
ENDBRANCH  14  17
BRANCH  15  19
ATOM     19  C   UNL     1      -1.925  15.059  23.764  0.00  0.00    +0.000 C 
ATOM     20  N   UNL     1      -2.369  15.898  24.429  0.00  0.00    +0.000 NA
ENDBRANCH  15  19
BRANCH  15  21
ATOM     21  C   UNL     1      -0.067  14.230  22.467  0.00  0.00    +0.000 C 
ATOM     22  N   UNL     1       1.032  14.345  22.116  0.00  0.00    +0.000 NA
ENDBRANCH  15  21
ENDBRANCH   1  14
TORSDOF 5
ENDMDL
