MODEL 1
REMARK VINA RESULT:      -8.1      0.000      0.000
REMARK  Name = 
REMARK  11 active torsions:
REMARK  status: ('A' for Active; 'I' for Inactive)
REMARK    1  A    between atoms: C_1  and  C_2
REMARK    2  A    between atoms: C_5  and  C_6
REMARK    3  A    between atoms: C_7  and  N_8
REMARK    4  A    between atoms: C_9  and  C_11
REMARK    5  A    between atoms: C_13  and  C_14
REMARK    6  A    between atoms: C_15  and  C_16
REMARK    7  A    between atoms: C_18  and  C_19
REMARK    8  A    between atoms: N_21  and  C_22
REMARK    9  A    between atoms: C_22  and  C_23
REMARK   10  A    between atoms: C_23  and  C_24
REMARK   11  A    between atoms: C_23  and  C_25
REMARK                            x       y       z     vdW  Elec       q    Type
REMARK                         _______ _______ _______ _____ _____    ______ ____
ROOT
ATOM      1  C   UNL     1       5.818   4.482  16.350  0.00  0.00    +0.000 A 
ATOM      2  N   UNL     1       5.361   3.931  15.168  0.00  0.00    +0.000 NA
ATOM      3  C   UNL     1       6.067   4.207  14.037  0.00  0.00    +0.000 A 
ATOM      4  C   UNL     1       5.537   3.620  12.761  0.00  0.00    +0.000 C 
ATOM      5  C   UNL     1       7.215   5.002  14.068  0.00  0.00    +0.000 A 
ATOM      6  C   UNL     1       8.101   5.223  12.879  0.00  0.00    +0.000 C 
ATOM      7  N   UNL     1       7.637   5.584  15.220  0.00  0.00    +0.000 NA
ATOM      8  C   UNL     1       6.934   5.301  16.370  0.00  0.00    +0.000 A 
ENDROOT
BRANCH   1  10
ATOM      9  N   UNL     1       3.682   4.693  17.448  0.00  0.00    +0.000 N 
ATOM     10  C   UNL     1       4.962   4.154  17.540  0.00  0.00    +0.000 C 
ATOM     11  O   UNL     1       5.406   3.595  18.532  0.00  0.00    +0.000 OA
ATOM     12  H   UNL     1       3.600   5.432  16.755  0.00  0.00    +0.000 HD
BRANCH   9  19
ATOM     13  C   UNL     1       1.203   6.700  21.255  0.00  0.00    +0.000 C 
ATOM     14  C   UNL     1       1.457   5.554  20.318  0.00  0.00    +0.000 A 
ATOM     15  C   UNL     1       0.826   4.323  20.521  0.00  0.00    +0.000 A 
ATOM     16  C   UNL     1       1.112   3.240  19.690  0.00  0.00    +0.000 A 
ATOM     17  C   UNL     1       2.056   3.354  18.657  0.00  0.00    +0.000 A 
ATOM     18  C   UNL     1       2.304   2.177  17.760  0.00  0.00    +0.000 C 
ATOM     19  C   UNL     1       2.681   4.594  18.438  0.00  0.00    +0.000 A 
ATOM     20  C   UNL     1       2.364   5.690  19.253  0.00  0.00    +0.000 A 
ENDBRANCH   9  19
ENDBRANCH   1  10
BRANCH   8  21
ATOM     21  C   UNL     1       7.557   5.890  17.594  0.00  0.00    +0.000 C 
ATOM     22  O   UNL     1       7.984   5.207  18.514  0.00  0.00    +0.000 OA
ATOM     23  N   UNL     1       7.683   7.270  17.549  0.00  0.00    +0.000 N 
ATOM     24  H   UNL     1       7.480   7.712  16.658  0.00  0.00    +0.000 HD
BRANCH  23  25
ATOM     25  C   UNL     1       8.302   8.046  18.609  0.00  0.00    +0.000 C 
BRANCH  25  26
ATOM     26  C   UNL     1       8.751   9.446  18.158  0.00  0.00    +0.000 C 
ATOM     27  C   UNL     1       7.602  10.243  17.537  0.00  0.00    +0.000 C 
ATOM     28  C   UNL     1       9.327  10.224  19.346  0.00  0.00    +0.000 C 
ENDBRANCH  25  26
ENDBRANCH  23  25
ENDBRANCH   8  21
TORSDOF 5
ENDMDL
MODEL 2
REMARK VINA RESULT:      -7.9      1.020      1.764
REMARK  Name = 
REMARK  11 active torsions:
REMARK  status: ('A' for Active; 'I' for Inactive)
REMARK    1  A    between atoms: C_1  and  C_2
REMARK    2  A    between atoms: C_5  and  C_6
REMARK    3  A    between atoms: C_7  and  N_8
REMARK    4  A    between atoms: C_9  and  C_11
REMARK    5  A    between atoms: C_13  and  C_14
REMARK    6  A    between atoms: C_15  and  C_16
REMARK    7  A    between atoms: C_18  and  C_19
REMARK    8  A    between atoms: N_21  and  C_22
REMARK    9  A    between atoms: C_22  and  C_23
REMARK   10  A    between atoms: C_23  and  C_24
REMARK   11  A    between atoms: C_23  and  C_25
REMARK                            x       y       z     vdW  Elec       q    Type
REMARK                         _______ _______ _______ _____ _____    ______ ____
ROOT
ATOM      1  C   UNL     1       5.641   4.489  15.980  0.00  0.00    +0.000 A 
ATOM      2  N   UNL     1       5.314   3.949  14.751  0.00  0.00    +0.000 NA
ATOM      3  C   UNL     1       6.133   4.241  13.702  0.00  0.00    +0.000 A 
ATOM      4  C   UNL     1       5.743   3.665  12.372  0.00  0.00    +0.000 C 
ATOM      5  C   UNL     1       7.266   5.042  13.861  0.00  0.00    +0.000 A 
ATOM      6  C   UNL     1       8.270   5.281  12.775  0.00  0.00    +0.000 C 
ATOM      7  N   UNL     1       7.561   5.614  15.057  0.00  0.00    +0.000 NA
ATOM      8  C   UNL     1       6.743   5.314  16.125  0.00  0.00    +0.000 A 
ENDROOT
BRANCH   1  10
ATOM      9  N   UNL     1       4.295   5.248  17.830  0.00  0.00    +0.000 N 
ATOM     10  C   UNL     1       4.668   4.143  17.069  0.00  0.00    +0.000 C 
ATOM     11  O   UNL     1       4.361   2.990  17.332  0.00  0.00    +0.000 OA
ATOM     12  H   UNL     1       4.919   6.044  17.725  0.00  0.00    +0.000 HD
BRANCH   9  19
ATOM     13  C   UNL     1       2.327   2.767  21.655  0.00  0.00    +0.000 C 
ATOM     14  C   UNL     1       2.448   4.015  20.829  0.00  0.00    +0.000 A 
ATOM     15  C   UNL     1       1.595   5.099  21.058  0.00  0.00    +0.000 A 
ATOM     16  C   UNL     1       1.663   6.232  20.248  0.00  0.00    +0.000 A 
ATOM     17  C   UNL     1       2.566   6.297  19.175  0.00  0.00    +0.000 A 
ATOM     18  C   UNL     1       2.636   7.551  18.353  0.00  0.00    +0.000 C 
ATOM     19  C   UNL     1       3.438   5.217  18.951  0.00  0.00    +0.000 A 
ATOM     20  C   UNL     1       3.390   4.094  19.789  0.00  0.00    +0.000 A 
ENDBRANCH   9  19
ENDBRANCH   1  10
BRANCH   8  21
ATOM     21  C   UNL     1       7.230   5.894  17.413  0.00  0.00    +0.000 C 
ATOM     22  O   UNL     1       7.316   5.240  18.443  0.00  0.00    +0.000 OA
ATOM     23  N   UNL     1       7.655   7.209  17.310  0.00  0.00    +0.000 N 
ATOM     24  H   UNL     1       7.727   7.588  16.371  0.00  0.00    +0.000 HD
BRANCH  23  25
ATOM     25  C   UNL     1       8.210   7.954  18.427  0.00  0.00    +0.000 C 
BRANCH  25  26
ATOM     26  C   UNL     1       8.654   9.377  18.050  0.00  0.00    +0.000 C 
ATOM     27  C   UNL     1       7.488  10.225  17.539  0.00  0.00    +0.000 C 
ATOM     28  C   UNL     1       9.295  10.068  19.258  0.00  0.00    +0.000 C 
ENDBRANCH  25  26
ENDBRANCH  23  25
ENDBRANCH   8  21
TORSDOF 5
ENDMDL
MODEL 3
REMARK VINA RESULT:      -7.7      2.841      7.588
REMARK  Name = 
REMARK  11 active torsions:
REMARK  status: ('A' for Active; 'I' for Inactive)
REMARK    1  A    between atoms: C_1  and  C_2
REMARK    2  A    between atoms: C_5  and  C_6
REMARK    3  A    between atoms: C_7  and  N_8
REMARK    4  A    between atoms: C_9  and  C_11
REMARK    5  A    between atoms: C_13  and  C_14
REMARK    6  A    between atoms: C_15  and  C_16
REMARK    7  A    between atoms: C_18  and  C_19
REMARK    8  A    between atoms: N_21  and  C_22
REMARK    9  A    between atoms: C_22  and  C_23
REMARK   10  A    between atoms: C_23  and  C_24
REMARK   11  A    between atoms: C_23  and  C_25
REMARK                            x       y       z     vdW  Elec       q    Type
REMARK                         _______ _______ _______ _____ _____    ______ ____
ROOT
ATOM      1  C   UNL     1       2.403   7.449  19.076  0.00  0.00    +0.000 A 
ATOM      2  N   UNL     1       2.041   8.783  19.076  0.00  0.00    +0.000 NA
ATOM      3  C   UNL     1       1.179   9.195  20.047  0.00  0.00    +0.000 A 
ATOM      4  C   UNL     1       0.779  10.641  20.012  0.00  0.00    +0.000 C 
ATOM      5  C   UNL     1       0.690   8.312  21.013  0.00  0.00    +0.000 A 
ATOM      6  C   UNL     1      -0.149   8.742  22.178  0.00  0.00    +0.000 C 
ATOM      7  N   UNL     1       1.006   6.992  20.984  0.00  0.00    +0.000 NA
ATOM      8  C   UNL     1       1.886   6.570  20.012  0.00  0.00    +0.000 A 
ENDROOT
BRANCH   1  10
ATOM      9  N   UNL     1       4.179   6.024  18.285  0.00  0.00    +0.000 N 
ATOM     10  C   UNL     1       3.329   7.076  17.954  0.00  0.00    +0.000 C 
ATOM     11  O   UNL     1       3.409   7.730  16.925  0.00  0.00    +0.000 OA
ATOM     12  H   UNL     1       4.244   5.852  19.284  0.00  0.00    +0.000 HD
BRANCH   9  19
ATOM     13  C   UNL     1       5.575   4.159  13.899  0.00  0.00    +0.000 C 
ATOM     14  C   UNL     1       5.895   4.566  15.309  0.00  0.00    +0.000 A 
ATOM     15  C   UNL     1       7.145   4.272  15.862  0.00  0.00    +0.000 A 
ATOM     16  C   UNL     1       7.418   4.590  17.192  0.00  0.00    +0.000 A 
ATOM     17  C   UNL     1       6.440   5.183  18.006  0.00  0.00    +0.000 A 
ATOM     18  C   UNL     1       6.789   5.547  19.420  0.00  0.00    +0.000 C 
ATOM     19  C   UNL     1       5.188   5.496  17.451  0.00  0.00    +0.000 A 
ATOM     20  C   UNL     1       4.929   5.206  16.103  0.00  0.00    +0.000 A 
ENDBRANCH   9  19
ENDBRANCH   1  10
BRANCH   8  21
ATOM     21  C   UNL     1       2.260   5.130  20.150  0.00  0.00    +0.000 C 
ATOM     22  O   UNL     1       3.243   4.758  20.776  0.00  0.00    +0.000 OA
ATOM     23  N   UNL     1       1.347   4.257  19.578  0.00  0.00    +0.000 N 
ATOM     24  H   UNL     1       0.472   4.663  19.262  0.00  0.00    +0.000 HD
BRANCH  23  25
ATOM     25  C   UNL     1       1.488   2.812  19.635  0.00  0.00    +0.000 C 
BRANCH  25  26
ATOM     26  C   UNL     1       2.223   2.224  18.420  0.00  0.00    +0.000 C 
ATOM     27  C   UNL     1       2.236   3.191  17.234  0.00  0.00    +0.000 C 
ATOM     28  C   UNL     1       3.664   1.863  18.798  0.00  0.00    +0.000 C 
ENDBRANCH  25  26
ENDBRANCH  23  25
ENDBRANCH   8  21
TORSDOF 5
ENDMDL
MODEL 4
REMARK VINA RESULT:      -7.3      3.273      6.266
REMARK  Name = 
REMARK  11 active torsions:
REMARK  status: ('A' for Active; 'I' for Inactive)
REMARK    1  A    between atoms: C_1  and  C_2
REMARK    2  A    between atoms: C_5  and  C_6
REMARK    3  A    between atoms: C_7  and  N_8
REMARK    4  A    between atoms: C_9  and  C_11
REMARK    5  A    between atoms: C_13  and  C_14
REMARK    6  A    between atoms: C_15  and  C_16
REMARK    7  A    between atoms: C_18  and  C_19
REMARK    8  A    between atoms: N_21  and  C_22
REMARK    9  A    between atoms: C_22  and  C_23
REMARK   10  A    between atoms: C_23  and  C_24
REMARK   11  A    between atoms: C_23  and  C_25
REMARK                            x       y       z     vdW  Elec       q    Type
REMARK                         _______ _______ _______ _____ _____    ______ ____
ROOT
ATOM      1  C   UNL     1       2.801   6.079  19.202  0.00  0.00    +0.000 A 
ATOM      2  N   UNL     1       2.145   5.402  20.212  0.00  0.00    +0.000 NA
ATOM      3  C   UNL     1       2.598   4.156  20.525  0.00  0.00    +0.000 A 
ATOM      4  C   UNL     1       1.853   3.429  21.606  0.00  0.00    +0.000 C 
ATOM      5  C   UNL     1       3.690   3.588  19.864  0.00  0.00    +0.000 A 
ATOM      6  C   UNL     1       4.309   2.282  20.260  0.00  0.00    +0.000 C 
ATOM      7  N   UNL     1       4.304   4.232  18.838  0.00  0.00    +0.000 NA
ATOM      8  C   UNL     1       3.859   5.497  18.523  0.00  0.00    +0.000 A 
ENDROOT
BRANCH   1  10
ATOM      9  N   UNL     1       1.731   8.070  20.038  0.00  0.00    +0.000 N 
ATOM     10  C   UNL     1       2.217   7.429  18.902  0.00  0.00    +0.000 C 
ATOM     11  O   UNL     1       2.065   7.839  17.761  0.00  0.00    +0.000 OA
ATOM     12  H   UNL     1       1.591   7.448  20.828  0.00  0.00    +0.000 HD
BRANCH   9  19
ATOM     13  C   UNL     1       1.447  12.773  18.467  0.00  0.00    +0.000 C 
ATOM     14  C   UNL     1       0.928  11.641  19.306  0.00  0.00    +0.000 A 
ATOM     15  C   UNL     1      -0.096  11.861  20.233  0.00  0.00    +0.000 A 
ATOM     16  C   UNL     1      -0.531  10.825  21.059  0.00  0.00    +0.000 A 
ATOM     17  C   UNL     1       0.064   9.555  20.996  0.00  0.00    +0.000 A 
ATOM     18  C   UNL     1      -0.463   8.456  21.873  0.00  0.00    +0.000 C 
ATOM     19  C   UNL     1       1.081   9.324  20.054  0.00  0.00    +0.000 A 
ATOM     20  C   UNL     1       1.492  10.359  19.201  0.00  0.00    +0.000 A 
ENDBRANCH   9  19
ENDBRANCH   1  10
BRANCH   8  21
ATOM     21  C   UNL     1       4.684   6.160  17.468  0.00  0.00    +0.000 C 
ATOM     22  O   UNL     1       5.338   7.172  17.678  0.00  0.00    +0.000 OA
ATOM     23  N   UNL     1       4.706   5.475  16.263  0.00  0.00    +0.000 N 
ATOM     24  H   UNL     1       4.291   4.548  16.263  0.00  0.00    +0.000 HD
BRANCH  23  25
ATOM     25  C   UNL     1       5.480   5.914  15.115  0.00  0.00    +0.000 C 
BRANCH  25  26
ATOM     26  C   UNL     1       6.621   4.951  14.747  0.00  0.00    +0.000 C 
ATOM     27  C   UNL     1       7.215   4.267  15.980  0.00  0.00    +0.000 C 
ATOM     28  C   UNL     1       6.118   3.886  13.767  0.00  0.00    +0.000 C 
ENDBRANCH  25  26
ENDBRANCH  23  25
ENDBRANCH   8  21
TORSDOF 5
ENDMDL
MODEL 5
REMARK VINA RESULT:      -7.3      2.724      7.603
REMARK  Name = 
REMARK  11 active torsions:
REMARK  status: ('A' for Active; 'I' for Inactive)
REMARK    1  A    between atoms: C_1  and  C_2
REMARK    2  A    between atoms: C_5  and  C_6
REMARK    3  A    between atoms: C_7  and  N_8
REMARK    4  A    between atoms: C_9  and  C_11
REMARK    5  A    between atoms: C_13  and  C_14
REMARK    6  A    between atoms: C_15  and  C_16
REMARK    7  A    between atoms: C_18  and  C_19
REMARK    8  A    between atoms: N_21  and  C_22
REMARK    9  A    between atoms: C_22  and  C_23
REMARK   10  A    between atoms: C_23  and  C_24
REMARK   11  A    between atoms: C_23  and  C_25
REMARK                            x       y       z     vdW  Elec       q    Type
REMARK                         _______ _______ _______ _____ _____    ______ ____
ROOT
ATOM      1  C   UNL     1       2.422   7.055  18.910  0.00  0.00    +0.000 A 
ATOM      2  N   UNL     1       2.339   8.322  18.365  0.00  0.00    +0.000 NA
ATOM      3  C   UNL     1       1.647   9.261  19.068  0.00  0.00    +0.000 A 
ATOM      4  C   UNL     1       1.547  10.622  18.443  0.00  0.00    +0.000 C 
ATOM      5  C   UNL     1       1.056   8.963  20.299  0.00  0.00    +0.000 A 
ATOM      6  C   UNL     1       0.404   9.990  21.174  0.00  0.00    +0.000 C 
ATOM      7  N   UNL     1       1.095   7.707  20.813  0.00  0.00    +0.000 NA
ATOM      8  C   UNL     1       1.803   6.755  20.112  0.00  0.00    +0.000 A 
ENDROOT
BRANCH   1  10
ATOM      9  N   UNL     1       4.489   6.468  17.818  0.00  0.00    +0.000 N 
ATOM     10  C   UNL     1       3.174   6.078  18.054  0.00  0.00    +0.000 C 
ATOM     11  O   UNL     1       2.630   5.125  17.516  0.00  0.00    +0.000 OA
ATOM     12  H   UNL     1       4.664   7.449  18.014  0.00  0.00    +0.000 HD
BRANCH   9  19
ATOM     13  C   UNL     1       5.592   4.232  13.522  0.00  0.00    +0.000 C 
ATOM     14  C   UNL     1       5.975   4.661  14.910  0.00  0.00    +0.000 A 
ATOM     15  C   UNL     1       7.183   4.238  15.471  0.00  0.00    +0.000 A 
ATOM     16  C   UNL     1       7.508   4.581  16.783  0.00  0.00    +0.000 A 
ATOM     17  C   UNL     1       6.622   5.332  17.572  0.00  0.00    +0.000 A 
ATOM     18  C   UNL     1       7.028   5.716  18.965  0.00  0.00    +0.000 C 
ATOM     19  C   UNL     1       5.414   5.776  17.007  0.00  0.00    +0.000 A 
ATOM     20  C   UNL     1       5.107   5.457  15.676  0.00  0.00    +0.000 A 
ENDBRANCH   9  19
ENDBRANCH   1  10
BRANCH   8  21
ATOM     21  C   UNL     1       1.886   5.446  20.828  0.00  0.00    +0.000 C 
ATOM     22  O   UNL     1       2.511   5.299  21.869  0.00  0.00    +0.000 OA
ATOM     23  N   UNL     1       1.122   4.443  20.251  0.00  0.00    +0.000 N 
ATOM     24  H   UNL     1       0.489   4.728  19.510  0.00  0.00    +0.000 HD
BRANCH  23  25
ATOM     25  C   UNL     1       1.018   3.105  20.807  0.00  0.00    +0.000 C 
BRANCH  25  26
ATOM     26  C   UNL     1       1.777   2.046  19.991  0.00  0.00    +0.000 C 
ATOM     27  C   UNL     1       1.306   1.996  18.537  0.00  0.00    +0.000 C 
ATOM     28  C   UNL     1       3.283   2.330  20.029  0.00  0.00    +0.000 C 
ENDBRANCH  25  26
ENDBRANCH  23  25
ENDBRANCH   8  21
TORSDOF 5
ENDMDL
MODEL 6
REMARK VINA RESULT:      -7.2      0.553      1.741
REMARK  Name = 
REMARK  11 active torsions:
REMARK  status: ('A' for Active; 'I' for Inactive)
REMARK    1  A    between atoms: C_1  and  C_2
REMARK    2  A    between atoms: C_5  and  C_6
REMARK    3  A    between atoms: C_7  and  N_8
REMARK    4  A    between atoms: C_9  and  C_11
REMARK    5  A    between atoms: C_13  and  C_14
REMARK    6  A    between atoms: C_15  and  C_16
REMARK    7  A    between atoms: C_18  and  C_19
REMARK    8  A    between atoms: N_21  and  C_22
REMARK    9  A    between atoms: C_22  and  C_23
REMARK   10  A    between atoms: C_23  and  C_24
REMARK   11  A    between atoms: C_23  and  C_25
REMARK                            x       y       z     vdW  Elec       q    Type
REMARK                         _______ _______ _______ _____ _____    ______ ____
ROOT
ATOM      1  C   UNL     1       6.030   4.615  16.361  0.00  0.00    +0.000 A 
ATOM      2  N   UNL     1       5.669   3.963  15.198  0.00  0.00    +0.000 NA
ATOM      3  C   UNL     1       6.347   4.289  14.062  0.00  0.00    +0.000 A 
ATOM      4  C   UNL     1       5.919   3.587  12.806  0.00  0.00    +0.000 C 
ATOM      5  C   UNL     1       7.376   5.234  14.071  0.00  0.00    +0.000 A 
ATOM      6  C   UNL     1       8.240   5.528  12.883  0.00  0.00    +0.000 C 
ATOM      7  N   UNL     1       7.699   5.912  15.203  0.00  0.00    +0.000 NA
ATOM      8  C   UNL     1       7.025   5.579  16.358  0.00  0.00    +0.000 A 
ENDROOT
BRANCH   1  10
ATOM      9  N   UNL     1       3.906   4.700  17.496  0.00  0.00    +0.000 N 
ATOM     10  C   UNL     1       5.211   4.219  17.555  0.00  0.00    +0.000 C 
ATOM     11  O   UNL     1       5.696   3.659  18.526  0.00  0.00    +0.000 OA
ATOM     12  H   UNL     1       3.778   5.450  16.823  0.00  0.00    +0.000 HD
BRANCH   9  19
ATOM     13  C   UNL     1       0.453   1.878  19.684  0.00  0.00    +0.000 C 
ATOM     14  C   UNL     1       1.217   3.167  19.583  0.00  0.00    +0.000 A 
ATOM     15  C   UNL     1       0.854   4.267  20.366  0.00  0.00    +0.000 A 
ATOM     16  C   UNL     1       1.521   5.483  20.224  0.00  0.00    +0.000 A 
ATOM     17  C   UNL     1       2.546   5.637  19.277  0.00  0.00    +0.000 A 
ATOM     18  C   UNL     1       3.266   6.950  19.185  0.00  0.00    +0.000 C 
ATOM     19  C   UNL     1       2.927   4.530  18.498  0.00  0.00    +0.000 A 
ATOM     20  C   UNL     1       2.277   3.299  18.669  0.00  0.00    +0.000 A 
ENDBRANCH   9  19
ENDBRANCH   1  10
BRANCH   8  21
ATOM     21  C   UNL     1       7.545   6.294  17.563  0.00  0.00    +0.000 C 
ATOM     22  O   UNL     1       7.898   5.710  18.578  0.00  0.00    +0.000 OA
ATOM     23  N   UNL     1       7.670   7.664  17.390  0.00  0.00    +0.000 N 
ATOM     24  H   UNL     1       7.538   8.013  16.446  0.00  0.00    +0.000 HD
BRANCH  23  25
ATOM     25  C   UNL     1       8.198   8.548  18.414  0.00  0.00    +0.000 C 
BRANCH  25  26
ATOM     26  C   UNL     1       8.772   9.858  17.851  0.00  0.00    +0.000 C 
ATOM     27  C   UNL     1       7.670  10.847  17.464  0.00  0.00    +0.000 C 
ATOM     28  C   UNL     1       9.704  10.511  18.877  0.00  0.00    +0.000 C 
ENDBRANCH  25  26
ENDBRANCH  23  25
ENDBRANCH   8  21
TORSDOF 5
ENDMDL
MODEL 7
REMARK VINA RESULT:      -7.2      3.039      5.582
REMARK  Name = 
REMARK  11 active torsions:
REMARK  status: ('A' for Active; 'I' for Inactive)
REMARK    1  A    between atoms: C_1  and  C_2
REMARK    2  A    between atoms: C_5  and  C_6
REMARK    3  A    between atoms: C_7  and  N_8
REMARK    4  A    between atoms: C_9  and  C_11
REMARK    5  A    between atoms: C_13  and  C_14
REMARK    6  A    between atoms: C_15  and  C_16
REMARK    7  A    between atoms: C_18  and  C_19
REMARK    8  A    between atoms: N_21  and  C_22
REMARK    9  A    between atoms: C_22  and  C_23
REMARK   10  A    between atoms: C_23  and  C_24
REMARK   11  A    between atoms: C_23  and  C_25
REMARK                            x       y       z     vdW  Elec       q    Type
REMARK                         _______ _______ _______ _____ _____    ______ ____
ROOT
ATOM      1  C   UNL     1       2.852   5.366  19.158  0.00  0.00    +0.000 A 
ATOM      2  N   UNL     1       2.163   4.739  20.179  0.00  0.00    +0.000 NA
ATOM      3  C   UNL     1       2.631   3.530  20.597  0.00  0.00    +0.000 A 
ATOM      4  C   UNL     1       1.853   2.856  21.688  0.00  0.00    +0.000 C 
ATOM      5  C   UNL     1       3.768   2.950  20.029  0.00  0.00    +0.000 A 
ATOM      6  C   UNL     1       4.401   1.692  20.542  0.00  0.00    +0.000 C 
ATOM      7  N   UNL     1       4.416   3.542  18.992  0.00  0.00    +0.000 NA
ATOM      8  C   UNL     1       3.955   4.770  18.571  0.00  0.00    +0.000 A 
ENDROOT
BRANCH   1  10
ATOM      9  N   UNL     1       2.073   7.553  19.805  0.00  0.00    +0.000 N 
ATOM     10  C   UNL     1       2.249   6.676  18.739  0.00  0.00    +0.000 C 
ATOM     11  O   UNL     1       1.833   6.874  17.607  0.00  0.00    +0.000 OA
ATOM     12  H   UNL     1       2.115   7.102  20.714  0.00  0.00    +0.000 HD
BRANCH   9  19
ATOM     13  C   UNL     1       2.079  12.168  17.970  0.00  0.00    +0.000 C 
ATOM     14  C   UNL     1       1.470  11.109  18.843  0.00  0.00    +0.000 A 
ATOM     15  C   UNL     1       0.417  11.424  19.706  0.00  0.00    +0.000 A 
ATOM     16  C   UNL     1      -0.103  10.456  20.564  0.00  0.00    +0.000 A 
ATOM     17  C   UNL     1       0.434   9.160  20.600  0.00  0.00    +0.000 A 
ATOM     18  C   UNL     1      -0.182   8.137  21.508  0.00  0.00    +0.000 C 
ATOM     19  C   UNL     1       1.482   8.832  19.722  0.00  0.00    +0.000 A 
ATOM     20  C   UNL     1       1.979   9.799  18.835  0.00  0.00    +0.000 A 
ENDBRANCH   9  19
ENDBRANCH   1  10
BRANCH   8  21
ATOM     21  C   UNL     1       4.814   5.384  17.514  0.00  0.00    +0.000 C 
ATOM     22  O   UNL     1       4.814   4.998  16.354  0.00  0.00    +0.000 OA
ATOM     23  N   UNL     1       5.542   6.481  17.951  0.00  0.00    +0.000 N 
ATOM     24  H   UNL     1       5.314   6.833  18.875  0.00  0.00    +0.000 HD
BRANCH  23  25
ATOM     25  C   UNL     1       6.406   7.258  17.080  0.00  0.00    +0.000 C 
BRANCH  25  26
ATOM     26  C   UNL     1       7.850   7.371  17.596  0.00  0.00    +0.000 C 
ATOM     27  C   UNL     1       8.236   8.818  17.905  0.00  0.00    +0.000 C 
ATOM     28  C   UNL     1       8.028   6.517  18.857  0.00  0.00    +0.000 C 
ENDBRANCH  25  26
ENDBRANCH  23  25
ENDBRANCH   8  21
TORSDOF 5
ENDMDL
MODEL 8
REMARK VINA RESULT:      -7.1      3.291      6.510
REMARK  Name = 
REMARK  11 active torsions:
REMARK  status: ('A' for Active; 'I' for Inactive)
REMARK    1  A    between atoms: C_1  and  C_2
REMARK    2  A    between atoms: C_5  and  C_6
REMARK    3  A    between atoms: C_7  and  N_8
REMARK    4  A    between atoms: C_9  and  C_11
REMARK    5  A    between atoms: C_13  and  C_14
REMARK    6  A    between atoms: C_15  and  C_16
REMARK    7  A    between atoms: C_18  and  C_19
REMARK    8  A    between atoms: N_21  and  C_22
REMARK    9  A    between atoms: C_22  and  C_23
REMARK   10  A    between atoms: C_23  and  C_24
REMARK   11  A    between atoms: C_23  and  C_25
REMARK                            x       y       z     vdW  Elec       q    Type
REMARK                         _______ _______ _______ _____ _____    ______ ____
ROOT
ATOM      1  C   UNL     1       3.750   7.245  17.922  0.00  0.00    +0.000 A 
ATOM      2  N   UNL     1       4.995   7.764  17.622  0.00  0.00    +0.000 NA
ATOM      3  C   UNL     1       6.041   6.893  17.582  0.00  0.00    +0.000 A 
ATOM      4  C   UNL     1       7.388   7.483  17.280  0.00  0.00    +0.000 C 
ATOM      5  C   UNL     1       5.865   5.527  17.819  0.00  0.00    +0.000 A 
ATOM      6  C   UNL     1       6.954   4.511  17.653  0.00  0.00    +0.000 C 
ATOM      7  N   UNL     1       4.651   5.024  18.163  0.00  0.00    +0.000 NA
ATOM      8  C   UNL     1       3.586   5.897  18.195  0.00  0.00    +0.000 A 
ENDROOT
BRANCH   1  10
ATOM      9  N   UNL     1       2.076   8.376  19.236  0.00  0.00    +0.000 N 
ATOM     10  C   UNL     1       2.663   8.279  17.978  0.00  0.00    +0.000 C 
ATOM     11  O   UNL     1       2.257   8.858  16.981  0.00  0.00    +0.000 OA
ATOM     12  H   UNL     1       2.263   7.578  19.836  0.00  0.00    +0.000 HD
BRANCH   9  19
ATOM     13  C   UNL     1      -1.483  11.545  17.836  0.00  0.00    +0.000 C 
ATOM     14  C   UNL     1      -0.752  10.790  18.909  0.00  0.00    +0.000 A 
ATOM     15  C   UNL     1      -1.021  11.042  20.258  0.00  0.00    +0.000 A 
ATOM     16  C   UNL     1      -0.295  10.389  21.254  0.00  0.00    +0.000 A 
ATOM     17  C   UNL     1       0.733   9.492  20.925  0.00  0.00    +0.000 A 
ATOM     18  C   UNL     1       1.461   8.779  22.027  0.00  0.00    +0.000 C 
ATOM     19  C   UNL     1       0.996   9.222  19.571  0.00  0.00    +0.000 A 
ATOM     20  C   UNL     1       0.240   9.854  18.573  0.00  0.00    +0.000 A 
ENDBRANCH   9  19
ENDBRANCH   1  10
BRANCH   8  21
ATOM     21  C   UNL     1       2.283   5.218  18.460  0.00  0.00    +0.000 C 
ATOM     22  O   UNL     1       1.512   4.892  17.568  0.00  0.00    +0.000 OA
ATOM     23  N   UNL     1       2.071   4.914  19.796  0.00  0.00    +0.000 N 
ATOM     24  H   UNL     1       2.861   5.049  20.420  0.00  0.00    +0.000 HD
BRANCH  23  25
ATOM     25  C   UNL     1       0.892   4.212  20.274  0.00  0.00    +0.000 C 
BRANCH  25  26
ATOM     26  C   UNL     1       1.161   2.739  20.623  0.00  0.00    +0.000 C 
ATOM     27  C   UNL     1       1.750   1.968  19.441  0.00  0.00    +0.000 C 
ATOM     28  C   UNL     1       2.115   2.645  21.819  0.00  0.00    +0.000 C 
ENDBRANCH  25  26
ENDBRANCH  23  25
ENDBRANCH   8  21
TORSDOF 5
ENDMDL
MODEL 9
REMARK VINA RESULT:      -7.1      2.630      5.956
REMARK  Name = 
REMARK  11 active torsions:
REMARK  status: ('A' for Active; 'I' for Inactive)
REMARK    1  A    between atoms: C_1  and  C_2
REMARK    2  A    between atoms: C_5  and  C_6
REMARK    3  A    between atoms: C_7  and  N_8
REMARK    4  A    between atoms: C_9  and  C_11
REMARK    5  A    between atoms: C_13  and  C_14
REMARK    6  A    between atoms: C_15  and  C_16
REMARK    7  A    between atoms: C_18  and  C_19
REMARK    8  A    between atoms: N_21  and  C_22
REMARK    9  A    between atoms: C_22  and  C_23
REMARK   10  A    between atoms: C_23  and  C_24
REMARK   11  A    between atoms: C_23  and  C_25
REMARK                            x       y       z     vdW  Elec       q    Type
REMARK                         _______ _______ _______ _____ _____    ______ ____
ROOT
ATOM      1  C   UNL     1       4.146   6.010  18.090  0.00  0.00    +0.000 A 
ATOM      2  N   UNL     1       5.192   6.877  17.837  0.00  0.00    +0.000 NA
ATOM      3  C   UNL     1       6.199   6.425  17.039  0.00  0.00    +0.000 A 
ATOM      4  C   UNL     1       7.337   7.374  16.800  0.00  0.00    +0.000 C 
ATOM      5  C   UNL     1       6.172   5.143  16.484  0.00  0.00    +0.000 A 
ATOM      6  C   UNL     1       7.183   4.648  15.495  0.00  0.00    +0.000 C 
ATOM      7  N   UNL     1       5.170   4.273  16.772  0.00  0.00    +0.000 NA
ATOM      8  C   UNL     1       4.143   4.727  17.570  0.00  0.00    +0.000 A 
ENDROOT
BRANCH   1  10
ATOM      9  N   UNL     1       2.727   7.874  18.656  0.00  0.00    +0.000 N 
ATOM     10  C   UNL     1       3.099   6.578  19.003  0.00  0.00    +0.000 C 
ATOM     11  O   UNL     1       2.733   6.004  20.018  0.00  0.00    +0.000 OA
ATOM     12  H   UNL     1       3.385   8.334  18.035  0.00  0.00    +0.000 HD
BRANCH   9  19
ATOM     13  C   UNL     1      -0.475   8.433  22.411  0.00  0.00    +0.000 C 
ATOM     14  C   UNL     1       0.218   8.971  21.193  0.00  0.00    +0.000 A 
ATOM     15  C   UNL     1      -0.162  10.202  20.650  0.00  0.00    +0.000 A 
ATOM     16  C   UNL     1       0.436  10.670  19.480  0.00  0.00    +0.000 A 
ATOM     17  C   UNL     1       1.406   9.907  18.812  0.00  0.00    +0.000 A 
ATOM     18  C   UNL     1       2.055  10.466  17.579  0.00  0.00    +0.000 C 
ATOM     19  C   UNL     1       1.805   8.677  19.362  0.00  0.00    +0.000 A 
ATOM     20  C   UNL     1       1.226   8.226  20.558  0.00  0.00    +0.000 A 
ENDBRANCH   9  19
ENDBRANCH   1  10
BRANCH   8  21
ATOM     21  C   UNL     1       3.037   3.733  17.718  0.00  0.00    +0.000 C 
ATOM     22  O   UNL     1       2.227   3.507  16.830  0.00  0.00    +0.000 OA
ATOM     23  N   UNL     1       3.068   3.035  18.915  0.00  0.00    +0.000 N 
ATOM     24  H   UNL     1       3.896   3.162  19.489  0.00  0.00    +0.000 HD
BRANCH  23  25
ATOM     25  C   UNL     1       2.117   1.990  19.249  0.00  0.00    +0.000 C 
BRANCH  25  26
ATOM     26  C   UNL     1       1.204   2.352  20.432  0.00  0.00    +0.000 C 
ATOM     27  C   UNL     1       1.994   2.547  21.728  0.00  0.00    +0.000 C 
ATOM     28  C   UNL     1       0.416   3.630  20.120  0.00  0.00    +0.000 C 
ENDBRANCH  25  26
ENDBRANCH  23  25
ENDBRANCH   8  21
TORSDOF 5
ENDMDL
