MODEL 1
REMARK VINA RESULT:      -7.2      0.000      0.000
REMARK  Name = 
REMARK  22 active torsions:
REMARK  status: ('A' for Active; 'I' for Inactive)
REMARK    1  A    between atoms: C_1  and  C_2
REMARK    2  A    between atoms: C_2  and  C_3
REMARK    3  A    between atoms: C_3  and  C_4
REMARK    4  A    between atoms: C_4  and  C_5
REMARK    5  A    between atoms: C_5  and  C_6
REMARK    6  A    between atoms: C_6  and  C_7
REMARK    7  A    between atoms: C_7  and  C_8
REMARK    8  A    between atoms: C_8  and  C_9
REMARK    9  A    between atoms: C_9  and  C_10
REMARK   10  A    between atoms: C_10  and  C_11
REMARK   11  A    between atoms: C_11  and  O_12
REMARK   12  A    between atoms: C_11  and  C_13
REMARK   13  A    between atoms: C_13  and  O_14
REMARK   14  A    between atoms: C_13  and  C_19
REMARK   15  A    between atoms: O_14  and  S_15
REMARK   16  A    between atoms: C_19  and  O_20
REMARK   17  A    between atoms: C_19  and  C_21
REMARK   18  A    between atoms: C_21  and  S_22
REMARK   19  A    between atoms: C_24  and  O_25
REMARK   20  A    between atoms: C_26  and  O_27
REMARK   21  A    between atoms: C_28  and  C_29
REMARK   22  A    between atoms: C_29  and  O_30
REMARK                            x       y       z     vdW  Elec       q    Type
REMARK                         _______ _______ _______ _____ _____    ______ ____
ROOT
ATOM      1  C   UNL     1       6.216   4.872  17.546  0.00  0.00    +0.000 C 
ENDROOT
BRANCH   1   2
ATOM      2  C   UNL     1       5.058   4.049  18.175  0.00  0.00    +0.000 C 
BRANCH   2   3
ATOM      3  O   UNL     1       5.582   3.217  19.224  0.00  0.00    +0.000 OA
ATOM      4  H   UNL     1       5.410   2.304  18.941  0.00  0.00    +0.000 HD
ENDBRANCH   2   3
BRANCH   2   5
ATOM      5  C   UNL     1       4.212   3.205  17.192  0.00  0.00    +0.000 C 
BRANCH   5   6
ATOM      6  S   UNL     1       2.876   2.279  18.056  0.00  0.00    +0.000 S 
ATOM      7  C   UNL     1       3.393   2.589  19.784  0.00  0.00    +0.000 C 
ATOM      8  C   UNL     1       2.081   2.587  20.549  0.00  0.00    +0.000 C 
ATOM      9  C   UNL     1       1.113   3.492  19.754  0.00  0.00    +0.000 C 
ATOM     10  C   UNL     1       1.535   3.534  18.255  0.00  0.00    +0.000 C 
BRANCH   9  11
ATOM     11  O   UNL     1      -0.221   2.963  19.859  0.00  0.00    +0.000 OA
ATOM     12  H   UNL     1      -0.779   3.686  20.196  0.00  0.00    +0.000 HD
ENDBRANCH   9  11
BRANCH   8  13
ATOM     13  O   UNL     1       2.237   3.038  21.893  0.00  0.00    +0.000 OA
ATOM     14  H   UNL     1       3.023   3.615  21.920  0.00  0.00    +0.000 HD
ENDBRANCH   8  13
BRANCH  10  15
ATOM     15  C   UNL     1       1.832   4.958  17.803  0.00  0.00    +0.000 C 
BRANCH  15  16
ATOM     16  O   UNL     1       2.087   5.807  18.927  0.00  0.00    +0.000 OA
ATOM     17  H   UNL     1       3.043   5.993  18.940  0.00  0.00    +0.000 HD
ENDBRANCH  15  16
ENDBRANCH  10  15
ENDBRANCH   5   6
ENDBRANCH   2   5
ENDBRANCH   1   2
BRANCH   1  18
ATOM     18  O   UNL     1       6.652   4.323  16.307  0.00  0.00    +0.000 OA
BRANCH  18  19
ATOM     19  S   UNL     1       6.303   5.100  14.913  0.00  0.00    +0.000 S 
ATOM     20  O   UNL     1       7.626   5.432  14.409  0.00  0.00    +0.000 OA
ATOM     21  O   UNL     1       5.587   4.112  14.119  0.00  0.00    +0.000 OA
ATOM     22  O   UNL     1       5.496   6.233  15.346  0.00  0.00    +0.000 OA
ENDBRANCH  18  19
ENDBRANCH   1  18
BRANCH   1  23
ATOM     23  C   UNL     1       7.449   5.038  18.470  0.00  0.00    +0.000 C 
BRANCH  23  24
ATOM     24  O   UNL     1       8.527   4.272  17.942  0.00  0.00    +0.000 OA
ATOM     25  H   UNL     1       9.177   4.174  18.660  0.00  0.00    +0.000 HD
ENDBRANCH  23  24
BRANCH  23  26
ATOM     26  C   UNL     1       7.903   6.501  18.670  0.00  0.00    +0.000 C 
BRANCH  26  27
ATOM     27  C   UNL     1       7.805   7.352  17.385  0.00  0.00    +0.000 C 
BRANCH  27  28
ATOM     28  C   UNL     1       7.663   8.841  17.728  0.00  0.00    +0.000 C 
BRANCH  28  29
ATOM     29  C   UNL     1       8.761   9.332  18.673  0.00  0.00    +0.000 C 
BRANCH  29  30
ATOM     30  C   UNL     1       9.206  10.749  18.301  0.00  0.00    +0.000 C 
BRANCH  30  31
ATOM     31  C   UNL     1      10.362  11.208  19.186  0.00  0.00    +0.000 C 
BRANCH  31  32
ATOM     32  C   UNL     1       9.922  11.325  20.643  0.00  0.00    +0.000 C 
BRANCH  32  33
ATOM     33  C   UNL     1       8.980  12.512  20.830  0.00  0.00    +0.000 C 
BRANCH  33  35
ATOM     34  C   UNL     1      10.336  14.526  21.468  0.00  0.00    +0.000 C 
ATOM     35  C   UNL     1       9.626  13.804  20.336  0.00  0.00    +0.000 C 
ENDBRANCH  33  35
ENDBRANCH  32  33
ENDBRANCH  31  32
ENDBRANCH  30  31
ENDBRANCH  29  30
ENDBRANCH  28  29
ENDBRANCH  27  28
ENDBRANCH  26  27
ENDBRANCH  23  26
ENDBRANCH   1  23
TORSDOF 21
ENDMDL
MODEL 2
REMARK VINA RESULT:      -7.1      1.554      2.606
REMARK  Name = 
REMARK  22 active torsions:
REMARK  status: ('A' for Active; 'I' for Inactive)
REMARK    1  A    between atoms: C_1  and  C_2
REMARK    2  A    between atoms: C_2  and  C_3
REMARK    3  A    between atoms: C_3  and  C_4
REMARK    4  A    between atoms: C_4  and  C_5
REMARK    5  A    between atoms: C_5  and  C_6
REMARK    6  A    between atoms: C_6  and  C_7
REMARK    7  A    between atoms: C_7  and  C_8
REMARK    8  A    between atoms: C_8  and  C_9
REMARK    9  A    between atoms: C_9  and  C_10
REMARK   10  A    between atoms: C_10  and  C_11
REMARK   11  A    between atoms: C_11  and  O_12
REMARK   12  A    between atoms: C_11  and  C_13
REMARK   13  A    between atoms: C_13  and  O_14
REMARK   14  A    between atoms: C_13  and  C_19
REMARK   15  A    between atoms: O_14  and  S_15
REMARK   16  A    between atoms: C_19  and  O_20
REMARK   17  A    between atoms: C_19  and  C_21
REMARK   18  A    between atoms: C_21  and  S_22
REMARK   19  A    between atoms: C_24  and  O_25
REMARK   20  A    between atoms: C_26  and  O_27
REMARK   21  A    between atoms: C_28  and  C_29
REMARK   22  A    between atoms: C_29  and  O_30
REMARK                            x       y       z     vdW  Elec       q    Type
REMARK                         _______ _______ _______ _____ _____    ______ ____
ROOT
ATOM      1  C   UNL     1       6.516   6.083  17.569  0.00  0.00    +0.000 C 
ENDROOT
BRANCH   1   2
ATOM      2  C   UNL     1       5.896   4.984  18.476  0.00  0.00    +0.000 C 
BRANCH   2   3
ATOM      3  O   UNL     1       6.718   3.805  18.423  0.00  0.00    +0.000 OA
ATOM      4  H   UNL     1       6.098   3.057  18.422  0.00  0.00    +0.000 HD
ENDBRANCH   2   3
BRANCH   2   5
ATOM      5  C   UNL     1       4.420   4.623  18.191  0.00  0.00    +0.000 C 
BRANCH   5   6
ATOM      6  S   UNL     1       3.396   4.665  19.720  0.00  0.00    +0.000 S 
ATOM      7  C   UNL     1       1.760   4.330  18.971  0.00  0.00    +0.000 C 
ATOM      8  C   UNL     1       1.013   3.596  20.070  0.00  0.00    +0.000 C 
ATOM      9  C   UNL     1       1.972   2.503  20.593  0.00  0.00    +0.000 C 
ATOM     10  C   UNL     1       3.449   2.922  20.329  0.00  0.00    +0.000 C 
BRANCH   9  11
ATOM     11  O   UNL     1       1.768   2.334  22.006  0.00  0.00    +0.000 OA
ATOM     12  H   UNL     1       0.828   2.112  22.125  0.00  0.00    +0.000 HD
ENDBRANCH   9  11
BRANCH   8  13
ATOM     13  O   UNL     1      -0.218   3.041  19.611  0.00  0.00    +0.000 OA
ATOM     14  H   UNL     1      -0.372   3.375  18.707  0.00  0.00    +0.000 HD
ENDBRANCH   8  13
BRANCH  10  15
ATOM     15  C   UNL     1       4.170   1.897  19.463  0.00  0.00    +0.000 C 
BRANCH  15  16
ATOM     16  O   UNL     1       3.258   1.257  18.565  0.00  0.00    +0.000 OA
ATOM     17  H   UNL     1       3.296   1.739  17.719  0.00  0.00    +0.000 HD
ENDBRANCH  15  16
ENDBRANCH  10  15
ENDBRANCH   5   6
ENDBRANCH   2   5
ENDBRANCH   1   2
BRANCH   1  18
ATOM     18  O   UNL     1       7.330   5.532  16.539  0.00  0.00    +0.000 OA
BRANCH  18  19
ATOM     19  S   UNL     1       6.658   5.146  15.100  0.00  0.00    +0.000 S 
ATOM     20  O   UNL     1       5.535   6.068  15.030  0.00  0.00    +0.000 OA
ATOM     21  O   UNL     1       7.711   5.405  14.130  0.00  0.00    +0.000 OA
ATOM     22  O   UNL     1       6.304   3.741  15.254  0.00  0.00    +0.000 OA
ENDBRANCH  18  19
ENDBRANCH   1  18
BRANCH   1  23
ATOM     23  C   UNL     1       7.348   7.142  18.337  0.00  0.00    +0.000 C 
BRANCH  23  24
ATOM     24  O   UNL     1       8.291   6.473  19.168  0.00  0.00    +0.000 OA
ATOM     25  H   UNL     1       7.784   5.857  19.725  0.00  0.00    +0.000 HD
ENDBRANCH  23  24
BRANCH  23  26
ATOM     26  C   UNL     1       8.082   8.155  17.431  0.00  0.00    +0.000 C 
BRANCH  26  27
ATOM     27  C   UNL     1       8.080   9.592  17.997  0.00  0.00    +0.000 C 
BRANCH  27  28
ATOM     28  C   UNL     1       9.284   9.813  18.922  0.00  0.00    +0.000 C 
BRANCH  28  29
ATOM     29  C   UNL     1       9.484  11.285  19.285  0.00  0.00    +0.000 C 
BRANCH  29  30
ATOM     30  C   UNL     1       9.627  11.459  20.799  0.00  0.00    +0.000 C 
BRANCH  30  31
ATOM     31  C   UNL     1       8.611  12.466  21.331  0.00  0.00    +0.000 C 
BRANCH  31  32
ATOM     32  C   UNL     1       8.975  12.917  22.744  0.00  0.00    +0.000 C 
BRANCH  32  33
ATOM     33  C   UNL     1       9.080  14.438  22.815  0.00  0.00    +0.000 C 
BRANCH  33  35
ATOM     34  C   UNL     1       7.336  16.154  23.374  0.00  0.00    +0.000 C 
ATOM     35  C   UNL     1       7.775  15.096  22.377  0.00  0.00    +0.000 C 
ENDBRANCH  33  35
ENDBRANCH  32  33
ENDBRANCH  31  32
ENDBRANCH  30  31
ENDBRANCH  29  30
ENDBRANCH  28  29
ENDBRANCH  27  28
ENDBRANCH  26  27
ENDBRANCH  23  26
ENDBRANCH   1  23
TORSDOF 21
ENDMDL
MODEL 3
REMARK VINA RESULT:      -6.9      1.172      1.499
REMARK  Name = 
REMARK  22 active torsions:
REMARK  status: ('A' for Active; 'I' for Inactive)
REMARK    1  A    between atoms: C_1  and  C_2
REMARK    2  A    between atoms: C_2  and  C_3
REMARK    3  A    between atoms: C_3  and  C_4
REMARK    4  A    between atoms: C_4  and  C_5
REMARK    5  A    between atoms: C_5  and  C_6
REMARK    6  A    between atoms: C_6  and  C_7
REMARK    7  A    between atoms: C_7  and  C_8
REMARK    8  A    between atoms: C_8  and  C_9
REMARK    9  A    between atoms: C_9  and  C_10
REMARK   10  A    between atoms: C_10  and  C_11
REMARK   11  A    between atoms: C_11  and  O_12
REMARK   12  A    between atoms: C_11  and  C_13
REMARK   13  A    between atoms: C_13  and  O_14
REMARK   14  A    between atoms: C_13  and  C_19
REMARK   15  A    between atoms: O_14  and  S_15
REMARK   16  A    between atoms: C_19  and  O_20
REMARK   17  A    between atoms: C_19  and  C_21
REMARK   18  A    between atoms: C_21  and  S_22
REMARK   19  A    between atoms: C_24  and  O_25
REMARK   20  A    between atoms: C_26  and  O_27
REMARK   21  A    between atoms: C_28  and  C_29
REMARK   22  A    between atoms: C_29  and  O_30
REMARK                            x       y       z     vdW  Elec       q    Type
REMARK                         _______ _______ _______ _____ _____    ______ ____
ROOT
ATOM      1  C   UNL     1       6.263   4.474  16.857  0.00  0.00    +0.000 C 
ENDROOT
BRANCH   1   2
ATOM      2  C   UNL     1       5.048   3.511  16.958  0.00  0.00    +0.000 C 
BRANCH   2   3
ATOM      3  O   UNL     1       5.182   2.472  15.974  0.00  0.00    +0.000 OA
ATOM      4  H   UNL     1       6.093   2.544  15.644  0.00  0.00    +0.000 HD
ENDBRANCH   2   3
BRANCH   2   5
ATOM      5  C   UNL     1       3.651   4.168  16.859  0.00  0.00    +0.000 C 
BRANCH   5   6
ATOM      6  S   UNL     1       2.404   3.289  17.888  0.00  0.00    +0.000 S 
ATOM      7  C   UNL     1       3.528   2.580  19.146  0.00  0.00    +0.000 C 
ATOM      8  C   UNL     1       2.665   2.518  20.394  0.00  0.00    +0.000 C 
ATOM      9  C   UNL     1       1.979   3.897  20.517  0.00  0.00    +0.000 C 
ATOM     10  C   UNL     1       1.872   4.564  19.113  0.00  0.00    +0.000 C 
BRANCH   9  11
ATOM     11  O   UNL     1       0.660   3.720  21.064  0.00  0.00    +0.000 OA
ATOM     12  H   UNL     1       0.497   4.485  21.644  0.00  0.00    +0.000 HD
ENDBRANCH   9  11
BRANCH   8  13
ATOM     13  O   UNL     1       3.422   2.202  21.561  0.00  0.00    +0.000 OA
ATOM     14  H   UNL     1       3.885   3.014  21.840  0.00  0.00    +0.000 HD
ENDBRANCH   8  13
BRANCH  10  15
ATOM     15  C   UNL     1       2.587   5.910  19.083  0.00  0.00    +0.000 C 
BRANCH  15  16
ATOM     16  O   UNL     1       2.352   6.637  20.293  0.00  0.00    +0.000 OA
ATOM     17  H   UNL     1       3.161   7.141  20.491  0.00  0.00    +0.000 HD
ENDBRANCH  15  16
ENDBRANCH  10  15
ENDBRANCH   5   6
ENDBRANCH   2   5
ENDBRANCH   1   2
BRANCH   1  18
ATOM     18  O   UNL     1       7.087   4.181  15.734  0.00  0.00    +0.000 OA
BRANCH  18  19
ATOM     19  S   UNL     1       6.799   4.920  14.306  0.00  0.00    +0.000 S 
ATOM     20  O   UNL     1       6.425   3.803  13.453  0.00  0.00    +0.000 OA
ATOM     21  O   UNL     1       5.715   5.847  14.593  0.00  0.00    +0.000 OA
ATOM     22  O   UNL     1       8.071   5.553  13.985  0.00  0.00    +0.000 OA
ENDBRANCH  18  19
ENDBRANCH   1  18
BRANCH   1  23
ATOM     23  C   UNL     1       7.153   4.505  18.125  0.00  0.00    +0.000 C 
BRANCH  23  24
ATOM     24  O   UNL     1       8.498   4.225  17.750  0.00  0.00    +0.000 OA
ATOM     25  H   UNL     1       9.000   4.113  18.577  0.00  0.00    +0.000 HD
ENDBRANCH  23  24
BRANCH  23  26
ATOM     26  C   UNL     1       7.101   5.836  18.908  0.00  0.00    +0.000 C 
BRANCH  26  27
ATOM     27  C   UNL     1       8.158   6.861  18.442  0.00  0.00    +0.000 C 
BRANCH  27  28
ATOM     28  C   UNL     1       7.505   7.978  17.618  0.00  0.00    +0.000 C 
BRANCH  28  29
ATOM     29  C   UNL     1       8.447   9.160  17.381  0.00  0.00    +0.000 C 
BRANCH  29  30
ATOM     30  C   UNL     1       8.855   9.806  18.707  0.00  0.00    +0.000 C 
BRANCH  30  31
ATOM     31  C   UNL     1       9.324  11.243  18.493  0.00  0.00    +0.000 C 
BRANCH  31  32
ATOM     32  C   UNL     1      10.670  11.486  19.171  0.00  0.00    +0.000 C 
BRANCH  32  33
ATOM     33  C   UNL     1      10.482  11.767  20.660  0.00  0.00    +0.000 C 
BRANCH  33  35
ATOM     34  C   UNL     1       9.258  13.426  22.092  0.00  0.00    +0.000 C 
ATOM     35  C   UNL     1      10.186  13.244  20.903  0.00  0.00    +0.000 C 
ENDBRANCH  33  35
ENDBRANCH  32  33
ENDBRANCH  31  32
ENDBRANCH  30  31
ENDBRANCH  29  30
ENDBRANCH  28  29
ENDBRANCH  27  28
ENDBRANCH  26  27
ENDBRANCH  23  26
ENDBRANCH   1  23
TORSDOF 21
ENDMDL
MODEL 4
REMARK VINA RESULT:      -6.8      1.645      2.263
REMARK  Name = 
REMARK  22 active torsions:
REMARK  status: ('A' for Active; 'I' for Inactive)
REMARK    1  A    between atoms: C_1  and  C_2
REMARK    2  A    between atoms: C_2  and  C_3
REMARK    3  A    between atoms: C_3  and  C_4
REMARK    4  A    between atoms: C_4  and  C_5
REMARK    5  A    between atoms: C_5  and  C_6
REMARK    6  A    between atoms: C_6  and  C_7
REMARK    7  A    between atoms: C_7  and  C_8
REMARK    8  A    between atoms: C_8  and  C_9
REMARK    9  A    between atoms: C_9  and  C_10
REMARK   10  A    between atoms: C_10  and  C_11
REMARK   11  A    between atoms: C_11  and  O_12
REMARK   12  A    between atoms: C_11  and  C_13
REMARK   13  A    between atoms: C_13  and  O_14
REMARK   14  A    between atoms: C_13  and  C_19
REMARK   15  A    between atoms: O_14  and  S_15
REMARK   16  A    between atoms: C_19  and  O_20
REMARK   17  A    between atoms: C_19  and  C_21
REMARK   18  A    between atoms: C_21  and  S_22
REMARK   19  A    between atoms: C_24  and  O_25
REMARK   20  A    between atoms: C_26  and  O_27
REMARK   21  A    between atoms: C_28  and  C_29
REMARK   22  A    between atoms: C_29  and  O_30
REMARK                            x       y       z     vdW  Elec       q    Type
REMARK                         _______ _______ _______ _____ _____    ______ ____
ROOT
ATOM      1  C   UNL     1       6.718   6.234  17.832  0.00  0.00    +0.000 C 
ENDROOT
BRANCH   1   2
ATOM      2  C   UNL     1       6.165   5.173  18.823  0.00  0.00    +0.000 C 
BRANCH   2   3
ATOM      3  O   UNL     1       6.726   3.888  18.503  0.00  0.00    +0.000 OA
ATOM      4  H   UNL     1       7.079   3.545  19.341  0.00  0.00    +0.000 HD
ENDBRANCH   2   3
BRANCH   2   5
ATOM      5  C   UNL     1       4.624   5.076  18.924  0.00  0.00    +0.000 C 
BRANCH   5   6
ATOM      6  S   UNL     1       4.065   3.356  19.262  0.00  0.00    +0.000 S 
ATOM      7  C   UNL     1       2.946   3.697  20.670  0.00  0.00    +0.000 C 
ATOM      8  C   UNL     1       1.888   2.614  20.548  0.00  0.00    +0.000 C 
ATOM      9  C   UNL     1       1.446   2.600  19.068  0.00  0.00    +0.000 C 
ATOM     10  C   UNL     1       2.590   3.155  18.167  0.00  0.00    +0.000 C 
BRANCH   9  11
ATOM     11  O   UNL     1       1.143   1.249  18.678  0.00  0.00    +0.000 OA
ATOM     12  H   UNL     1       1.130   0.722  19.496  0.00  0.00    +0.000 HD
ENDBRANCH   9  11
BRANCH   8  13
ATOM     13  O   UNL     1       0.785   2.834  21.425  0.00  0.00    +0.000 OA
ATOM     14  H   UNL     1       0.256   2.014  21.443  0.00  0.00    +0.000 HD
ENDBRANCH   8  13
BRANCH  10  15
ATOM     15  C   UNL     1       2.131   4.372  17.374  0.00  0.00    +0.000 C 
BRANCH  15  16
ATOM     16  O   UNL     1       1.264   5.195  18.162  0.00  0.00    +0.000 OA
ATOM     17  H   UNL     1       0.358   4.860  18.044  0.00  0.00    +0.000 HD
ENDBRANCH  15  16
ENDBRANCH  10  15
ENDBRANCH   5   6
ENDBRANCH   2   5
ENDBRANCH   1   2
BRANCH   1  18
ATOM     18  O   UNL     1       7.469   5.644  16.777  0.00  0.00    +0.000 OA
BRANCH  18  19
ATOM     19  S   UNL     1       6.719   5.237  15.383  0.00  0.00    +0.000 S 
ATOM     20  O   UNL     1       5.634   6.203  15.327  0.00  0.00    +0.000 OA
ATOM     21  O   UNL     1       7.739   5.418  14.361  0.00  0.00    +0.000 OA
ATOM     22  O   UNL     1       6.316   3.854  15.602  0.00  0.00    +0.000 OA
ENDBRANCH  18  19
ENDBRANCH   1  18
BRANCH   1  23
ATOM     23  C   UNL     1       7.587   7.330  18.500  0.00  0.00    +0.000 C 
BRANCH  23  24
ATOM     24  O   UNL     1       8.651   6.704  19.210  0.00  0.00    +0.000 OA
ATOM     25  H   UNL     1       8.459   5.750  19.215  0.00  0.00    +0.000 HD
ENDBRANCH  23  24
BRANCH  23  26
ATOM     26  C   UNL     1       8.164   8.373  17.517  0.00  0.00    +0.000 C 
BRANCH  26  27
ATOM     27  C   UNL     1       8.107   9.818  18.058  0.00  0.00    +0.000 C 
BRANCH  27  28
ATOM     28  C   UNL     1       9.231  10.062  19.074  0.00  0.00    +0.000 C 
BRANCH  28  29
ATOM     29  C   UNL     1      10.303  11.016  18.545  0.00  0.00    +0.000 C 
BRANCH  29  30
ATOM     30  C   UNL     1      10.962  11.785  19.693  0.00  0.00    +0.000 C 
BRANCH  30  31
ATOM     31  C   UNL     1      11.337  13.199  19.259  0.00  0.00    +0.000 C 
BRANCH  31  32
ATOM     32  C   UNL     1      10.501  14.240  20.001  0.00  0.00    +0.000 C 
BRANCH  32  33
ATOM     33  C   UNL     1       9.772  15.150  19.016  0.00  0.00    +0.000 C 
BRANCH  33  35
ATOM     34  C   UNL     1      11.103  16.258  17.198  0.00  0.00    +0.000 C 
ATOM     35  C   UNL     1      10.637  16.350  18.641  0.00  0.00    +0.000 C 
ENDBRANCH  33  35
ENDBRANCH  32  33
ENDBRANCH  31  32
ENDBRANCH  30  31
ENDBRANCH  29  30
ENDBRANCH  28  29
ENDBRANCH  27  28
ENDBRANCH  26  27
ENDBRANCH  23  26
ENDBRANCH   1  23
TORSDOF 21
ENDMDL
MODEL 5
REMARK VINA RESULT:      -6.8      1.730      2.896
REMARK  Name = 
REMARK  22 active torsions:
REMARK  status: ('A' for Active; 'I' for Inactive)
REMARK    1  A    between atoms: C_1  and  C_2
REMARK    2  A    between atoms: C_2  and  C_3
REMARK    3  A    between atoms: C_3  and  C_4
REMARK    4  A    between atoms: C_4  and  C_5
REMARK    5  A    between atoms: C_5  and  C_6
REMARK    6  A    between atoms: C_6  and  C_7
REMARK    7  A    between atoms: C_7  and  C_8
REMARK    8  A    between atoms: C_8  and  C_9
REMARK    9  A    between atoms: C_9  and  C_10
REMARK   10  A    between atoms: C_10  and  C_11
REMARK   11  A    between atoms: C_11  and  O_12
REMARK   12  A    between atoms: C_11  and  C_13
REMARK   13  A    between atoms: C_13  and  O_14
REMARK   14  A    between atoms: C_13  and  C_19
REMARK   15  A    between atoms: O_14  and  S_15
REMARK   16  A    between atoms: C_19  and  O_20
REMARK   17  A    between atoms: C_19  and  C_21
REMARK   18  A    between atoms: C_21  and  S_22
REMARK   19  A    between atoms: C_24  and  O_25
REMARK   20  A    between atoms: C_26  and  O_27
REMARK   21  A    between atoms: C_28  and  C_29
REMARK   22  A    between atoms: C_29  and  O_30
REMARK                            x       y       z     vdW  Elec       q    Type
REMARK                         _______ _______ _______ _____ _____    ______ ____
ROOT
ATOM      1  C   UNL     1       6.674   6.026  16.930  0.00  0.00    +0.000 C 
ENDROOT
BRANCH   1   2
ATOM      2  C   UNL     1       7.007   5.094  18.128  0.00  0.00    +0.000 C 
BRANCH   2   3
ATOM      3  O   UNL     1       8.193   4.339  17.827  0.00  0.00    +0.000 OA
ATOM      4  H   UNL     1       8.221   3.627  18.487  0.00  0.00    +0.000 HD
ENDBRANCH   2   3
BRANCH   2   5
ATOM      5  C   UNL     1       5.872   4.150  18.590  0.00  0.00    +0.000 C 
BRANCH   5   6
ATOM      6  S   UNL     1       4.358   5.081  19.070  0.00  0.00    +0.000 S 
ATOM      7  C   UNL     1       3.342   4.747  17.585  0.00  0.00    +0.000 C 
ATOM      8  C   UNL     1       1.922   4.754  18.122  0.00  0.00    +0.000 C 
ATOM      9  C   UNL     1       1.931   3.869  19.388  0.00  0.00    +0.000 C 
ATOM     10  C   UNL     1       3.361   3.838  20.004  0.00  0.00    +0.000 C 
BRANCH   9  11
ATOM     11  O   UNL     1       1.008   4.410  20.349  0.00  0.00    +0.000 OA
ATOM     12  H   UNL     1       1.543   4.884  21.009  0.00  0.00    +0.000 HD
ENDBRANCH   9  11
BRANCH   8  13
ATOM     13  O   UNL     1       0.977   4.288  17.161  0.00  0.00    +0.000 OA
ATOM     14  H   UNL     1       0.203   4.881  17.199  0.00  0.00    +0.000 HD
ENDBRANCH   8  13
BRANCH  10  15
ATOM     15  C   UNL     1       3.902   2.415  20.080  0.00  0.00    +0.000 C 
BRANCH  15  16
ATOM     16  O   UNL     1       3.400   1.622  18.999  0.00  0.00    +0.000 OA
ATOM     17  H   UNL     1       2.940   0.858  19.388  0.00  0.00    +0.000 HD
ENDBRANCH  15  16
ENDBRANCH  10  15
ENDBRANCH   5   6
ENDBRANCH   2   5
ENDBRANCH   1   2
BRANCH   1  18
ATOM     18  O   UNL     1       7.464   5.728  15.784  0.00  0.00    +0.000 OA
BRANCH  18  19
ATOM     19  S   UNL     1       6.768   5.024  14.485  0.00  0.00    +0.000 S 
ATOM     20  O   UNL     1       5.511   5.749  14.381  0.00  0.00    +0.000 OA
ATOM     21  O   UNL     1       7.699   5.277  13.396  0.00  0.00    +0.000 OA
ATOM     22  O   UNL     1       6.653   3.625  14.875  0.00  0.00    +0.000 OA
ENDBRANCH  18  19
ENDBRANCH   1  18
BRANCH   1  23
ATOM     23  C   UNL     1       6.816   7.536  17.246  0.00  0.00    +0.000 C 
BRANCH  23  24
ATOM     24  O   UNL     1       5.617   7.992  17.865  0.00  0.00    +0.000 OA
ATOM     25  H   UNL     1       5.828   8.843  18.287  0.00  0.00    +0.000 HD
ENDBRANCH  23  24
BRANCH  23  26
ATOM     26  C   UNL     1       8.026   7.891  18.138  0.00  0.00    +0.000 C 
BRANCH  26  27
ATOM     27  C   UNL     1       8.454   9.371  18.028  0.00  0.00    +0.000 C 
BRANCH  27  28
ATOM     28  C   UNL     1       9.116   9.843  19.329  0.00  0.00    +0.000 C 
BRANCH  28  29
ATOM     29  C   UNL     1       9.839  11.181  19.168  0.00  0.00    +0.000 C 
BRANCH  29  30
ATOM     30  C   UNL     1      10.854  11.118  18.024  0.00  0.00    +0.000 C 
BRANCH  30  31
ATOM     31  C   UNL     1      11.563  12.458  17.849  0.00  0.00    +0.000 C 
BRANCH  31  32
ATOM     32  C   UNL     1      10.709  13.427  17.034  0.00  0.00    +0.000 C 
BRANCH  32  33
ATOM     33  C   UNL     1      10.869  14.854  17.551  0.00  0.00    +0.000 C 
BRANCH  33  35
ATOM     34  C   UNL     1       9.172  14.889  19.400  0.00  0.00    +0.000 C 
ATOM     35  C   UNL     1      10.652  14.915  19.060  0.00  0.00    +0.000 C 
ENDBRANCH  33  35
ENDBRANCH  32  33
ENDBRANCH  31  32
ENDBRANCH  30  31
ENDBRANCH  29  30
ENDBRANCH  28  29
ENDBRANCH  27  28
ENDBRANCH  26  27
ENDBRANCH  23  26
ENDBRANCH   1  23
TORSDOF 21
ENDMDL
MODEL 6
REMARK VINA RESULT:      -6.8      7.747     11.025
REMARK  Name = 
REMARK  22 active torsions:
REMARK  status: ('A' for Active; 'I' for Inactive)
REMARK    1  A    between atoms: C_1  and  C_2
REMARK    2  A    between atoms: C_2  and  C_3
REMARK    3  A    between atoms: C_3  and  C_4
REMARK    4  A    between atoms: C_4  and  C_5
REMARK    5  A    between atoms: C_5  and  C_6
REMARK    6  A    between atoms: C_6  and  C_7
REMARK    7  A    between atoms: C_7  and  C_8
REMARK    8  A    between atoms: C_8  and  C_9
REMARK    9  A    between atoms: C_9  and  C_10
REMARK   10  A    between atoms: C_10  and  C_11
REMARK   11  A    between atoms: C_11  and  O_12
REMARK   12  A    between atoms: C_11  and  C_13
REMARK   13  A    between atoms: C_13  and  O_14
REMARK   14  A    between atoms: C_13  and  C_19
REMARK   15  A    between atoms: O_14  and  S_15
REMARK   16  A    between atoms: C_19  and  O_20
REMARK   17  A    between atoms: C_19  and  C_21
REMARK   18  A    between atoms: C_21  and  S_22
REMARK   19  A    between atoms: C_24  and  O_25
REMARK   20  A    between atoms: C_26  and  O_27
REMARK   21  A    between atoms: C_28  and  C_29
REMARK   22  A    between atoms: C_29  and  O_30
REMARK                            x       y       z     vdW  Elec       q    Type
REMARK                         _______ _______ _______ _____ _____    ______ ____
ROOT
ATOM      1  C   UNL     1      -0.766  10.822  19.831  0.00  0.00    +0.000 C 
ENDROOT
BRANCH   1   2
ATOM      2  C   UNL     1      -1.889  11.863  19.564  0.00  0.00    +0.000 C 
BRANCH   2   3
ATOM      3  O   UNL     1      -2.116  11.963  18.148  0.00  0.00    +0.000 OA
ATOM      4  H   UNL     1      -1.953  12.894  17.925  0.00  0.00    +0.000 HD
ENDBRANCH   2   3
BRANCH   2   5
ATOM      5  C   UNL     1      -1.672  13.267  20.174  0.00  0.00    +0.000 C 
BRANCH   5   6
ATOM      6  S   UNL     1      -3.187  13.894  21.010  0.00  0.00    +0.000 S 
ATOM      7  C   UNL     1      -3.557  12.435  22.051  0.00  0.00    +0.000 C 
ATOM      8  C   UNL     1      -4.227  13.036  23.274  0.00  0.00    +0.000 C 
ATOM      9  C   UNL     1      -3.340  14.220  23.718  0.00  0.00    +0.000 C 
ATOM     10  C   UNL     1      -2.533  14.765  22.502  0.00  0.00    +0.000 C 
BRANCH   9  11
ATOM     11  O   UNL     1      -4.177  15.266  24.243  0.00  0.00    +0.000 OA
ATOM     12  H   UNL     1      -4.902  15.386  23.604  0.00  0.00    +0.000 HD
ENDBRANCH   9  11
BRANCH   8  13
ATOM     13  O   UNL     1      -4.396  12.083  24.322  0.00  0.00    +0.000 OA
ATOM     14  H   UNL     1      -3.785  12.327  25.042  0.00  0.00    +0.000 HD
ENDBRANCH   8  13
BRANCH  10  15
ATOM     15  C   UNL     1      -1.032  14.694  22.756  0.00  0.00    +0.000 C 
BRANCH  15  16
ATOM     16  O   UNL     1      -0.758  14.066  24.013  0.00  0.00    +0.000 OA
ATOM     17  H   UNL     1      -0.009  14.539  24.417  0.00  0.00    +0.000 HD
ENDBRANCH  15  16
ENDBRANCH  10  15
ENDBRANCH   5   6
ENDBRANCH   2   5
ENDBRANCH   1   2
BRANCH   1  18
ATOM     18  O   UNL     1       0.051  11.187  20.938  0.00  0.00    +0.000 OA
BRANCH  18  19
ATOM     19  S   UNL     1       0.075  10.240  22.270  0.00  0.00    +0.000 S 
ATOM     20  O   UNL     1      -0.539  11.101  23.268  0.00  0.00    +0.000 OA
ATOM     21  O   UNL     1      -0.724   9.081  21.902  0.00  0.00    +0.000 OA
ATOM     22  O   UNL     1       1.492   9.964  22.467  0.00  0.00    +0.000 OA
ENDBRANCH  18  19
ENDBRANCH   1  18
BRANCH   1  23
ATOM     23  C   UNL     1       0.152  10.555  18.611  0.00  0.00    +0.000 C 
BRANCH  23  24
ATOM     24  O   UNL     1       0.757  11.781  18.213  0.00  0.00    +0.000 OA
ATOM     25  H   UNL     1       1.051  11.661  17.293  0.00  0.00    +0.000 HD
ENDBRANCH  23  24
BRANCH  23  26
ATOM     26  C   UNL     1       1.246   9.493  18.858  0.00  0.00    +0.000 C 
BRANCH  26  27
ATOM     27  C   UNL     1       1.681   8.755  17.572  0.00  0.00    +0.000 C 
BRANCH  27  28
ATOM     28  C   UNL     1       2.985   7.980  17.806  0.00  0.00    +0.000 C 
BRANCH  28  29
ATOM     29  C   UNL     1       2.758   6.661  18.545  0.00  0.00    +0.000 C 
BRANCH  29  30
ATOM     30  C   UNL     1       3.272   5.478  17.719  0.00  0.00    +0.000 C 
BRANCH  30  31
ATOM     31  C   UNL     1       2.905   4.151  18.378  0.00  0.00    +0.000 C 
BRANCH  31  32
ATOM     32  C   UNL     1       1.444   3.794  18.112  0.00  0.00    +0.000 C 
BRANCH  32  33
ATOM     33  C   UNL     1       0.834   3.081  19.316  0.00  0.00    +0.000 C 
BRANCH  33  35
ATOM     34  C   UNL     1       1.737   2.818  21.644  0.00  0.00    +0.000 C 
ATOM     35  C   UNL     1       1.197   3.796  20.614  0.00  0.00    +0.000 C 
ENDBRANCH  33  35
ENDBRANCH  32  33
ENDBRANCH  31  32
ENDBRANCH  30  31
ENDBRANCH  29  30
ENDBRANCH  28  29
ENDBRANCH  27  28
ENDBRANCH  26  27
ENDBRANCH  23  26
ENDBRANCH   1  23
TORSDOF 21
ENDMDL
MODEL 7
REMARK VINA RESULT:      -6.7      3.652      5.382
REMARK  Name = 
REMARK  22 active torsions:
REMARK  status: ('A' for Active; 'I' for Inactive)
REMARK    1  A    between atoms: C_1  and  C_2
REMARK    2  A    between atoms: C_2  and  C_3
REMARK    3  A    between atoms: C_3  and  C_4
REMARK    4  A    between atoms: C_4  and  C_5
REMARK    5  A    between atoms: C_5  and  C_6
REMARK    6  A    between atoms: C_6  and  C_7
REMARK    7  A    between atoms: C_7  and  C_8
REMARK    8  A    between atoms: C_8  and  C_9
REMARK    9  A    between atoms: C_9  and  C_10
REMARK   10  A    between atoms: C_10  and  C_11
REMARK   11  A    between atoms: C_11  and  O_12
REMARK   12  A    between atoms: C_11  and  C_13
REMARK   13  A    between atoms: C_13  and  O_14
REMARK   14  A    between atoms: C_13  and  C_19
REMARK   15  A    between atoms: O_14  and  S_15
REMARK   16  A    between atoms: C_19  and  O_20
REMARK   17  A    between atoms: C_19  and  C_21
REMARK   18  A    between atoms: C_21  and  S_22
REMARK   19  A    between atoms: C_24  and  O_25
REMARK   20  A    between atoms: C_26  and  O_27
REMARK   21  A    between atoms: C_28  and  C_29
REMARK   22  A    between atoms: C_29  and  O_30
REMARK                            x       y       z     vdW  Elec       q    Type
REMARK                         _______ _______ _______ _____ _____    ______ ____
ROOT
ATOM      1  C   UNL     1       5.887   5.666  17.181  0.00  0.00    +0.000 C 
ENDROOT
BRANCH   1   2
ATOM      2  C   UNL     1       6.055   4.729  18.409  0.00  0.00    +0.000 C 
BRANCH   2   3
ATOM      3  O   UNL     1       7.365   4.137  18.380  0.00  0.00    +0.000 OA
ATOM      4  H   UNL     1       7.462   3.768  17.486  0.00  0.00    +0.000 HD
ENDBRANCH   2   3
BRANCH   2   5
ATOM      5  C   UNL     1       4.975   3.635  18.581  0.00  0.00    +0.000 C 
BRANCH   5   6
ATOM      6  S   UNL     1       3.633   4.168  19.722  0.00  0.00    +0.000 S 
ATOM      7  C   UNL     1       2.196   3.549  18.772  0.00  0.00    +0.000 C 
ATOM      8  C   UNL     1       1.180   3.214  19.850  0.00  0.00    +0.000 C 
ATOM      9  C   UNL     1       1.935   2.394  20.920  0.00  0.00    +0.000 C 
ATOM     10  C   UNL     1       3.454   2.741  20.880  0.00  0.00    +0.000 C 
BRANCH   9  11
ATOM     11  O   UNL     1       1.406   2.712  22.219  0.00  0.00    +0.000 OA
ATOM     12  H   UNL     1       1.927   3.463  22.553  0.00  0.00    +0.000 HD
ENDBRANCH   9  11
BRANCH   8  13
ATOM     13  O   UNL     1       0.059   2.499  19.334  0.00  0.00    +0.000 OA
ATOM     14  H   UNL     1       0.089   1.597  19.706  0.00  0.00    +0.000 HD
ENDBRANCH   8  13
BRANCH  10  15
ATOM     15  C   UNL     1       4.298   1.502  20.607  0.00  0.00    +0.000 C 
BRANCH  15  16
ATOM     16  O   UNL     1       5.409   1.435  21.508  0.00  0.00    +0.000 OA
ATOM     17  H   UNL     1       6.193   1.752  21.026  0.00  0.00    +0.000 HD
ENDBRANCH  15  16
ENDBRANCH  10  15
ENDBRANCH   5   6
ENDBRANCH   2   5
ENDBRANCH   1   2
BRANCH   1  18
ATOM     18  O   UNL     1       6.983   5.568  16.279  0.00  0.00    +0.000 OA
BRANCH  18  19
ATOM     19  S   UNL     1       6.724   5.062  14.747  0.00  0.00    +0.000 S 
ATOM     20  O   UNL     1       5.542   5.820  14.370  0.00  0.00    +0.000 OA
ATOM     21  O   UNL     1       7.934   5.441  14.033  0.00  0.00    +0.000 OA
ATOM     22  O   UNL     1       6.527   3.626  14.890  0.00  0.00    +0.000 OA
ENDBRANCH  18  19
ENDBRANCH   1  18
BRANCH   1  23
ATOM     23  C   UNL     1       5.685   7.158  17.548  0.00  0.00    +0.000 C 
BRANCH  23  24
ATOM     24  O   UNL     1       6.768   7.914  17.017  0.00  0.00    +0.000 OA
ATOM     25  H   UNL     1       7.550   7.336  17.042  0.00  0.00    +0.000 HD
ENDBRANCH  23  24
BRANCH  23  26
ATOM     26  C   UNL     1       4.347   7.758  17.060  0.00  0.00    +0.000 C 
BRANCH  26  27
ATOM     27  C   UNL     1       3.108   7.040  17.640  0.00  0.00    +0.000 C 
BRANCH  27  28
ATOM     28  C   UNL     1       2.322   7.978  18.566  0.00  0.00    +0.000 C 
BRANCH  28  29
ATOM     29  C   UNL     1       1.992   9.316  17.904  0.00  0.00    +0.000 C 
BRANCH  29  30
ATOM     30  C   UNL     1       0.511   9.661  18.082  0.00  0.00    +0.000 C 
BRANCH  30  31
ATOM     31  C   UNL     1       0.343  10.979  18.834  0.00  0.00    +0.000 C 
BRANCH  31  32
ATOM     32  C   UNL     1       0.751  10.830  20.298  0.00  0.00    +0.000 C 
BRANCH  32  33
ATOM     33  C   UNL     1      -0.467  10.538  21.171  0.00  0.00    +0.000 C 
BRANCH  33  35
ATOM     34  C   UNL     1       1.241   8.899  22.006  0.00  0.00    +0.000 C 
ATOM     35  C   UNL     1      -0.137   9.495  22.235  0.00  0.00    +0.000 C 
ENDBRANCH  33  35
ENDBRANCH  32  33
ENDBRANCH  31  32
ENDBRANCH  30  31
ENDBRANCH  29  30
ENDBRANCH  28  29
ENDBRANCH  27  28
ENDBRANCH  26  27
ENDBRANCH  23  26
ENDBRANCH   1  23
TORSDOF 21
ENDMDL
MODEL 8
REMARK VINA RESULT:      -6.7      4.171      5.773
REMARK  Name = 
REMARK  22 active torsions:
REMARK  status: ('A' for Active; 'I' for Inactive)
REMARK    1  A    between atoms: C_1  and  C_2
REMARK    2  A    between atoms: C_2  and  C_3
REMARK    3  A    between atoms: C_3  and  C_4
REMARK    4  A    between atoms: C_4  and  C_5
REMARK    5  A    between atoms: C_5  and  C_6
REMARK    6  A    between atoms: C_6  and  C_7
REMARK    7  A    between atoms: C_7  and  C_8
REMARK    8  A    between atoms: C_8  and  C_9
REMARK    9  A    between atoms: C_9  and  C_10
REMARK   10  A    between atoms: C_10  and  C_11
REMARK   11  A    between atoms: C_11  and  O_12
REMARK   12  A    between atoms: C_11  and  C_13
REMARK   13  A    between atoms: C_13  and  O_14
REMARK   14  A    between atoms: C_13  and  C_19
REMARK   15  A    between atoms: O_14  and  S_15
REMARK   16  A    between atoms: C_19  and  O_20
REMARK   17  A    between atoms: C_19  and  C_21
REMARK   18  A    between atoms: C_21  and  S_22
REMARK   19  A    between atoms: C_24  and  O_25
REMARK   20  A    between atoms: C_26  and  O_27
REMARK   21  A    between atoms: C_28  and  C_29
REMARK   22  A    between atoms: C_29  and  O_30
REMARK                            x       y       z     vdW  Elec       q    Type
REMARK                         _______ _______ _______ _____ _____    ______ ____
ROOT
ATOM      1  C   UNL     1       5.179   5.680  17.809  0.00  0.00    +0.000 C 
ENDROOT
BRANCH   1   2
ATOM      2  C   UNL     1       5.329   4.887  19.137  0.00  0.00    +0.000 C 
BRANCH   2   3
ATOM      3  O   UNL     1       6.639   5.118  19.684  0.00  0.00    +0.000 OA
ATOM      4  H   UNL     1       7.256   4.964  18.949  0.00  0.00    +0.000 HD
ENDBRANCH   2   3
BRANCH   2   5
ATOM      5  C   UNL     1       5.039   3.370  19.058  0.00  0.00    +0.000 C 
BRANCH   5   6
ATOM      6  S   UNL     1       3.625   2.884  20.130  0.00  0.00    +0.000 S 
ATOM      7  C   UNL     1       2.958   4.551  20.488  0.00  0.00    +0.000 C 
ATOM      8  C   UNL     1       1.470   4.304  20.664  0.00  0.00    +0.000 C 
ATOM      9  C   UNL     1       1.030   3.427  19.471  0.00  0.00    +0.000 C 
ATOM     10  C   UNL     1       2.244   2.613  18.934  0.00  0.00    +0.000 C 
BRANCH   9  11
ATOM     11  O   UNL     1       0.001   2.521  19.906  0.00  0.00    +0.000 OA
ATOM     12  H   UNL     1       0.307   1.626  19.677  0.00  0.00    +0.000 HD
ENDBRANCH   9  11
BRANCH   8  13
ATOM     13  O   UNL     1       0.724   5.518  20.729  0.00  0.00    +0.000 OA
ATOM     14  H   UNL     1      -0.102   5.382  20.227  0.00  0.00    +0.000 HD
ENDBRANCH   8  13
BRANCH  10  15
ATOM     15  C   UNL     1       2.514   2.922  17.466  0.00  0.00    +0.000 C 
BRANCH  15  16
ATOM     16  O   UNL     1       1.572   3.876  16.966  0.00  0.00    +0.000 OA
ATOM     17  H   UNL     1       1.806   4.742  17.344  0.00  0.00    +0.000 HD
ENDBRANCH  15  16
ENDBRANCH  10  15
ENDBRANCH   5   6
ENDBRANCH   2   5
ENDBRANCH   1   2
BRANCH   1  18
ATOM     18  O   UNL     1       6.433   5.902  17.173  0.00  0.00    +0.000 OA
BRANCH  18  19
ATOM     19  S   UNL     1       7.083   4.728  16.240  0.00  0.00    +0.000 S 
ATOM     20  O   UNL     1       7.621   5.488  15.124  0.00  0.00    +0.000 OA
ATOM     21  O   UNL     1       8.091   4.110  17.089  0.00  0.00    +0.000 OA
ATOM     22  O   UNL     1       5.946   3.873  15.925  0.00  0.00    +0.000 OA
ENDBRANCH  18  19
ENDBRANCH   1  18
BRANCH   1  23
ATOM     23  C   UNL     1       4.460   7.044  17.964  0.00  0.00    +0.000 C 
BRANCH  23  24
ATOM     24  O   UNL     1       4.997   7.959  17.015  0.00  0.00    +0.000 OA
ATOM     25  H   UNL     1       5.960   7.822  17.010  0.00  0.00    +0.000 HD
ENDBRANCH  23  24
BRANCH  23  26
ATOM     26  C   UNL     1       2.924   6.976  17.806  0.00  0.00    +0.000 C 
BRANCH  26  27
ATOM     27  C   UNL     1       2.175   8.016  18.668  0.00  0.00    +0.000 C 
BRANCH  27  28
ATOM     28  C   UNL     1       1.852   9.270  17.845  0.00  0.00    +0.000 C 
BRANCH  28  29
ATOM     29  C   UNL     1       0.470   9.842  18.164  0.00  0.00    +0.000 C 
BRANCH  29  30
ATOM     30  C   UNL     1       0.157   9.708  19.657  0.00  0.00    +0.000 C 
BRANCH  30  31
ATOM     31  C   UNL     1      -0.385  11.018  20.221  0.00  0.00    +0.000 C 
BRANCH  31  32
ATOM     32  C   UNL     1       0.208  11.309  21.598  0.00  0.00    +0.000 C 
BRANCH  32  33
ATOM     33  C   UNL     1      -0.835  11.094  22.692  0.00  0.00    +0.000 C 
BRANCH  33  35
ATOM     34  C   UNL     1      -3.024  12.202  23.221  0.00  0.00    +0.000 C 
ATOM     35  C   UNL     1      -1.528  12.405  23.050  0.00  0.00    +0.000 C 
ENDBRANCH  33  35
ENDBRANCH  32  33
ENDBRANCH  31  32
ENDBRANCH  30  31
ENDBRANCH  29  30
ENDBRANCH  28  29
ENDBRANCH  27  28
ENDBRANCH  26  27
ENDBRANCH  23  26
ENDBRANCH   1  23
TORSDOF 21
ENDMDL
MODEL 9
REMARK VINA RESULT:      -6.7      1.424      1.623
REMARK  Name = 
REMARK  22 active torsions:
REMARK  status: ('A' for Active; 'I' for Inactive)
REMARK    1  A    between atoms: C_1  and  C_2
REMARK    2  A    between atoms: C_2  and  C_3
REMARK    3  A    between atoms: C_3  and  C_4
REMARK    4  A    between atoms: C_4  and  C_5
REMARK    5  A    between atoms: C_5  and  C_6
REMARK    6  A    between atoms: C_6  and  C_7
REMARK    7  A    between atoms: C_7  and  C_8
REMARK    8  A    between atoms: C_8  and  C_9
REMARK    9  A    between atoms: C_9  and  C_10
REMARK   10  A    between atoms: C_10  and  C_11
REMARK   11  A    between atoms: C_11  and  O_12
REMARK   12  A    between atoms: C_11  and  C_13
REMARK   13  A    between atoms: C_13  and  O_14
REMARK   14  A    between atoms: C_13  and  C_19
REMARK   15  A    between atoms: O_14  and  S_15
REMARK   16  A    between atoms: C_19  and  O_20
REMARK   17  A    between atoms: C_19  and  C_21
REMARK   18  A    between atoms: C_21  and  S_22
REMARK   19  A    between atoms: C_24  and  O_25
REMARK   20  A    between atoms: C_26  and  O_27
REMARK   21  A    between atoms: C_28  and  C_29
REMARK   22  A    between atoms: C_29  and  O_30
REMARK                            x       y       z     vdW  Elec       q    Type
REMARK                         _______ _______ _______ _____ _____    ______ ____
ROOT
ATOM      1  C   UNL     1       5.963   4.322  16.855  0.00  0.00    +0.000 C 
ENDROOT
BRANCH   1   2
ATOM      2  C   UNL     1       4.822   3.324  17.196  0.00  0.00    +0.000 C 
BRANCH   2   3
ATOM      3  O   UNL     1       4.973   2.139  16.396  0.00  0.00    +0.000 OA
ATOM      4  H   UNL     1       4.192   1.595  16.590  0.00  0.00    +0.000 HD
ENDBRANCH   2   3
BRANCH   2   5
ATOM      5  C   UNL     1       3.381   3.873  17.077  0.00  0.00    +0.000 C 
BRANCH   5   6
ATOM      6  S   UNL     1       2.205   2.956  18.155  0.00  0.00    +0.000 S 
ATOM      7  C   UNL     1       3.385   2.381  19.431  0.00  0.00    +0.000 C 
ATOM      8  C   UNL     1       2.538   2.315  20.690  0.00  0.00    +0.000 C 
ATOM      9  C   UNL     1       1.760   3.648  20.761  0.00  0.00    +0.000 C 
ATOM     10  C   UNL     1       1.597   4.245  19.331  0.00  0.00    +0.000 C 
BRANCH   9  11
ATOM     11  O   UNL     1       0.460   3.406  21.328  0.00  0.00    +0.000 OA
ATOM     12  H   UNL     1       0.314   2.445  21.282  0.00  0.00    +0.000 HD
ENDBRANCH   9  11
BRANCH   8  13
ATOM     13  O   UNL     1       3.324   2.102  21.861  0.00  0.00    +0.000 OA
ATOM     14  H   UNL     1       4.262   2.162  21.599  0.00  0.00    +0.000 HD
ENDBRANCH   8  13
BRANCH  10  15
ATOM     15  C   UNL     1       2.217   5.633  19.236  0.00  0.00    +0.000 C 
BRANCH  15  16
ATOM     16  O   UNL     1       2.694   6.066  20.514  0.00  0.00    +0.000 OA
ATOM     17  H   UNL     1       1.931   6.420  21.004  0.00  0.00    +0.000 HD
ENDBRANCH  15  16
ENDBRANCH  10  15
ENDBRANCH   5   6
ENDBRANCH   2   5
ENDBRANCH   1   2
BRANCH   1  18
ATOM     18  O   UNL     1       6.660   3.956  15.669  0.00  0.00    +0.000 OA
BRANCH  18  19
ATOM     19  S   UNL     1       6.655   4.968  14.386  0.00  0.00    +0.000 S 
ATOM     20  O   UNL     1       7.986   5.550  14.452  0.00  0.00    +0.000 OA
ATOM     21  O   UNL     1       6.436   4.096  13.242  0.00  0.00    +0.000 OA
ATOM     22  O   UNL     1       5.558   5.881  14.675  0.00  0.00    +0.000 OA
ENDBRANCH  18  19
ENDBRANCH   1  18
BRANCH   1  23
ATOM     23  C   UNL     1       6.998   4.513  17.993  0.00  0.00    +0.000 C 
BRANCH  23  24
ATOM     24  O   UNL     1       8.293   4.189  17.497  0.00  0.00    +0.000 OA
ATOM     25  H   UNL     1       8.747   3.698  18.204  0.00  0.00    +0.000 HD
ENDBRANCH  23  24
BRANCH  23  26
ATOM     26  C   UNL     1       7.018   5.931  18.606  0.00  0.00    +0.000 C 
BRANCH  26  27
ATOM     27  C   UNL     1       7.911   6.920  17.825  0.00  0.00    +0.000 C 
BRANCH  27  28
ATOM     28  C   UNL     1       7.189   8.258  17.620  0.00  0.00    +0.000 C 
BRANCH  28  29
ATOM     29  C   UNL     1       8.143   9.453  17.654  0.00  0.00    +0.000 C 
BRANCH  29  30
ATOM     30  C   UNL     1       9.000   9.430  18.923  0.00  0.00    +0.000 C 
BRANCH  30  31
ATOM     31  C   UNL     1       9.525  10.824  19.252  0.00  0.00    +0.000 C 
BRANCH  31  32
ATOM     32  C   UNL     1      10.367  11.377  18.104  0.00  0.00    +0.000 C 
BRANCH  32  33
ATOM     33  C   UNL     1       9.861  12.753  17.677  0.00  0.00    +0.000 C 
BRANCH  33  35
ATOM     34  C   UNL     1       7.978  14.395  17.916  0.00  0.00    +0.000 C 
ATOM     35  C   UNL     1       8.656  13.174  18.512  0.00  0.00    +0.000 C 
ENDBRANCH  33  35
ENDBRANCH  32  33
ENDBRANCH  31  32
ENDBRANCH  30  31
ENDBRANCH  29  30
ENDBRANCH  28  29
ENDBRANCH  27  28
ENDBRANCH  26  27
ENDBRANCH  23  26
ENDBRANCH   1  23
TORSDOF 21
ENDMDL
