MODEL 1
REMARK VINA RESULT:      -8.0      0.000      0.000
REMARK  Name = 
REMARK  7 active torsions:
REMARK  status: ('A' for Active; 'I' for Inactive)
REMARK    1  A    between atoms: C_1  and  C_2
REMARK    2  A    between atoms: C_2  and  C_3
REMARK    3  A    between atoms: C_3  and  C_4
REMARK    4  A    between atoms: C_9  and  C_11
REMARK    5  A    between atoms: C_11  and  C_12
REMARK    6  A    between atoms: C_12  and  C_13
REMARK    7  A    between atoms: N_15  and  C_16
REMARK                            x       y       z     vdW  Elec       q    Type
REMARK                         _______ _______ _______ _____ _____    ______ ____
ROOT
ATOM      1  C   UNL     1       4.952   4.279  19.385  0.00  0.00    +0.000 C 
ENDROOT
BRANCH   1   7
ATOM      2  C   UNL     1       6.907   4.477  13.681  0.00  0.00    +0.000 A 
ATOM      3  N   UNL     1       7.636   5.481  14.127  0.00  0.00    +0.000 NA
ATOM      4  N   UNL     1       7.474   5.678  15.497  0.00  0.00    +0.000 NA
ATOM      5  C   UNL     1       6.604   4.840  16.026  0.00  0.00    +0.000 A 
ATOM      6  N   UNL     1       6.283   4.800  17.375  0.00  0.00    +0.000 N 
ATOM      7  C   UNL     1       5.130   4.209  17.871  0.00  0.00    +0.000 C 
ATOM      8  O   UNL     1       4.295   3.624  17.215  0.00  0.00    +0.000 OA
ATOM      9  S   UNL     1       5.968   3.720  14.900  0.00  0.00    +0.000 S 
ATOM     10  H   UNL     1       6.930   5.290  17.977  0.00  0.00    +0.000 HD
BRANCH   2  11
ATOM     11  C   UNL     1       6.856   3.981  12.265  0.00  0.00    +0.000 C 
BRANCH  11  13
ATOM     12  C   UNL     1       5.879   1.806  11.432  0.00  0.00    +0.000 C 
ATOM     13  C   UNL     1       5.579   3.189  11.991  0.00  0.00    +0.000 C 
ENDBRANCH  11  13
ENDBRANCH   2  11
ENDBRANCH   1   7
BRANCH   1  14
ATOM     14  C   UNL     1       3.514   3.907  19.754  0.00  0.00    +0.000 C 
BRANCH  14  15
ATOM     15  C   UNL     1       2.566   5.069  19.551  0.00  0.00    +0.000 C 
ATOM     16  O   UNL     1       1.431   4.808  19.140  0.00  0.00    +0.000 OA
ATOM     17  N   UNL     1       3.071   6.349  19.746  0.00  0.00    +0.000 N 
ATOM     18  H   UNL     1       4.070   6.468  19.895  0.00  0.00    +0.000 HD
BRANCH  17  19
ATOM     19  C   UNL     1       2.282   7.515  19.549  0.00  0.00    +0.000 A 
ATOM     20  C   UNL     1       1.545   8.070  20.603  0.00  0.00    +0.000 A 
ATOM     21  C   UNL     1       0.739   9.190  20.431  0.00  0.00    +0.000 A 
ATOM     22  C   UNL     1       0.659   9.781  19.181  0.00  0.00    +0.000 A 
ATOM     23 BR   UNL     1      -0.436  11.305  18.948  0.00  0.00    +0.000 Br
ATOM     24  C   UNL     1       1.381   9.256  18.108  0.00  0.00    +0.000 A 
ATOM     25  C   UNL     1       2.205   8.131  18.295  0.00  0.00    +0.000 A 
ENDBRANCH  17  19
ENDBRANCH  14  15
ENDBRANCH   1  14
TORSDOF 6
ENDMDL
MODEL 2
REMARK VINA RESULT:      -7.8      2.705      3.911
REMARK  Name = 
REMARK  7 active torsions:
REMARK  status: ('A' for Active; 'I' for Inactive)
REMARK    1  A    between atoms: C_1  and  C_2
REMARK    2  A    between atoms: C_2  and  C_3
REMARK    3  A    between atoms: C_3  and  C_4
REMARK    4  A    between atoms: C_9  and  C_11
REMARK    5  A    between atoms: C_11  and  C_12
REMARK    6  A    between atoms: C_12  and  C_13
REMARK    7  A    between atoms: N_15  and  C_16
REMARK                            x       y       z     vdW  Elec       q    Type
REMARK                         _______ _______ _______ _____ _____    ______ ____
ROOT
ATOM      1  C   UNL     1       3.515   1.959  17.875  0.00  0.00    +0.000 C 
ENDROOT
BRANCH   1   7
ATOM      2  C   UNL     1       7.439   6.539  17.731  0.00  0.00    +0.000 A 
ATOM      3  N   UNL     1       7.396   6.333  16.430  0.00  0.00    +0.000 NA
ATOM      4  N   UNL     1       6.488   5.335  16.086  0.00  0.00    +0.000 NA
ATOM      5  C   UNL     1       5.903   4.802  17.141  0.00  0.00    +0.000 A 
ATOM      6  N   UNL     1       4.934   3.812  17.078  0.00  0.00    +0.000 N 
ATOM      7  C   UNL     1       4.599   2.996  18.150  0.00  0.00    +0.000 C 
ATOM      8  O   UNL     1       5.064   3.068  19.267  0.00  0.00    +0.000 OA
ATOM      9  S   UNL     1       6.382   5.520  18.618  0.00  0.00    +0.000 S 
ATOM     10  H   UNL     1       4.521   3.684  16.164  0.00  0.00    +0.000 HD
BRANCH   2  11
ATOM     11  C   UNL     1       8.292   7.551  18.439  0.00  0.00    +0.000 C 
BRANCH  11  13
ATOM     12  C   UNL     1       8.883   9.999  18.643  0.00  0.00    +0.000 C 
ATOM     13  C   UNL     1       8.092   8.954  17.868  0.00  0.00    +0.000 C 
ENDBRANCH  11  13
ENDBRANCH   2  11
ENDBRANCH   1   7
BRANCH   1  14
ATOM     14  C   UNL     1       2.255   2.305  18.673  0.00  0.00    +0.000 C 
BRANCH  14  15
ATOM     15  C   UNL     1       1.878   3.762  18.519  0.00  0.00    +0.000 C 
ATOM     16  O   UNL     1       1.097   4.051  17.607  0.00  0.00    +0.000 OA
ATOM     17  N   UNL     1       2.512   4.680  19.349  0.00  0.00    +0.000 N 
ATOM     18  H   UNL     1       3.282   4.364  19.935  0.00  0.00    +0.000 HD
BRANCH  17  19
ATOM     19  C   UNL     1       2.263   6.076  19.268  0.00  0.00    +0.000 A 
ATOM     20  C   UNL     1       1.716   6.772  20.354  0.00  0.00    +0.000 A 
ATOM     21  C   UNL     1       1.431   8.132  20.291  0.00  0.00    +0.000 A 
ATOM     22  C   UNL     1       1.694   8.826  19.121  0.00  0.00    +0.000 A 
ATOM     23 BR   UNL     1       1.308  10.675  19.036  0.00  0.00    +0.000 Br
ATOM     24  C   UNL     1       2.241   8.165  18.020  0.00  0.00    +0.000 A 
ATOM     25  C   UNL     1       2.539   6.792  18.097  0.00  0.00    +0.000 A 
ENDBRANCH  17  19
ENDBRANCH  14  15
ENDBRANCH   1  14
TORSDOF 6
ENDMDL
MODEL 3
REMARK VINA RESULT:      -7.5      2.823      3.968
REMARK  Name = 
REMARK  7 active torsions:
REMARK  status: ('A' for Active; 'I' for Inactive)
REMARK    1  A    between atoms: C_1  and  C_2
REMARK    2  A    between atoms: C_2  and  C_3
REMARK    3  A    between atoms: C_3  and  C_4
REMARK    4  A    between atoms: C_9  and  C_11
REMARK    5  A    between atoms: C_11  and  C_12
REMARK    6  A    between atoms: C_12  and  C_13
REMARK    7  A    between atoms: N_15  and  C_16
REMARK                            x       y       z     vdW  Elec       q    Type
REMARK                         _______ _______ _______ _____ _____    ______ ____
ROOT
ATOM      1  C   UNL     1       3.446   1.961  18.902  0.00  0.00    +0.000 C 
ENDROOT
BRANCH   1   7
ATOM      2  C   UNL     1       7.402   6.372  17.764  0.00  0.00    +0.000 A 
ATOM      3  N   UNL     1       7.240   5.985  16.514  0.00  0.00    +0.000 NA
ATOM      4  N   UNL     1       6.291   4.972  16.397  0.00  0.00    +0.000 NA
ATOM      5  C   UNL     1       5.797   4.609  17.564  0.00  0.00    +0.000 A 
ATOM      6  N   UNL     1       4.813   3.645  17.728  0.00  0.00    +0.000 N 
ATOM      7  C   UNL     1       4.565   2.999  18.931  0.00  0.00    +0.000 C 
ATOM      8  O   UNL     1       5.129   3.216  19.981  0.00  0.00    +0.000 OA
ATOM      9  S   UNL     1       6.416   5.516  18.876  0.00  0.00    +0.000 S 
ATOM     10  H   UNL     1       4.318   3.401  16.882  0.00  0.00    +0.000 HD
BRANCH   2  11
ATOM     11  C   UNL     1       8.328   7.452  18.243  0.00  0.00    +0.000 C 
BRANCH  11  13
ATOM     12  C   UNL     1       8.776   9.937  18.309  0.00  0.00    +0.000 C 
ATOM     13  C   UNL     1       7.832   8.839  17.840  0.00  0.00    +0.000 C 
ENDBRANCH  11  13
ENDBRANCH   2  11
ENDBRANCH   1   7
BRANCH   1  14
ATOM     14  C   UNL     1       2.287   2.429  19.785  0.00  0.00    +0.000 C 
BRANCH  14  15
ATOM     15  C   UNL     1       1.832   3.824  19.418  0.00  0.00    +0.000 C 
ATOM     16  O   UNL     1       0.981   3.928  18.529  0.00  0.00    +0.000 OA
ATOM     17  N   UNL     1       2.475   4.891  20.036  0.00  0.00    +0.000 N 
ATOM     18  H   UNL     1       3.295   4.707  20.610  0.00  0.00    +0.000 HD
BRANCH  17  19
ATOM     19  C   UNL     1       2.156   6.244  19.743  0.00  0.00    +0.000 A 
ATOM     20  C   UNL     1       2.355   6.767  18.458  0.00  0.00    +0.000 A 
ATOM     21  C   UNL     1       2.083   8.095  18.151  0.00  0.00    +0.000 A 
ATOM     22  C   UNL     1       1.600   8.934  19.142  0.00  0.00    +0.000 A 
ATOM     23 BR   UNL     1       1.229  10.740  18.724  0.00  0.00    +0.000 Br
ATOM     24  C   UNL     1       1.387   8.447  20.432  0.00  0.00    +0.000 A 
ATOM     25  C   UNL     1       1.651   7.098  20.730  0.00  0.00    +0.000 A 
ENDBRANCH  17  19
ENDBRANCH  14  15
ENDBRANCH   1  14
TORSDOF 6
ENDMDL
MODEL 4
REMARK VINA RESULT:      -7.4      1.005      1.132
REMARK  Name = 
REMARK  7 active torsions:
REMARK  status: ('A' for Active; 'I' for Inactive)
REMARK    1  A    between atoms: C_1  and  C_2
REMARK    2  A    between atoms: C_2  and  C_3
REMARK    3  A    between atoms: C_3  and  C_4
REMARK    4  A    between atoms: C_9  and  C_11
REMARK    5  A    between atoms: C_11  and  C_12
REMARK    6  A    between atoms: C_12  and  C_13
REMARK    7  A    between atoms: N_15  and  C_16
REMARK                            x       y       z     vdW  Elec       q    Type
REMARK                         _______ _______ _______ _____ _____    ______ ____
ROOT
ATOM      1  C   UNL     1       4.246   3.027  20.014  0.00  0.00    +0.000 C 
ENDROOT
BRANCH   1   7
ATOM      2  C   UNL     1       6.882   4.697  14.850  0.00  0.00    +0.000 A 
ATOM      3  N   UNL     1       7.566   5.502  15.638  0.00  0.00    +0.000 NA
ATOM      4  N   UNL     1       7.242   5.321  16.981  0.00  0.00    +0.000 NA
ATOM      5  C   UNL     1       6.302   4.413  17.154  0.00  0.00    +0.000 A 
ATOM      6  N   UNL     1       5.819   4.018  18.392  0.00  0.00    +0.000 N 
ATOM      7  C   UNL     1       4.605   3.368  18.570  0.00  0.00    +0.000 C 
ATOM      8  O   UNL     1       3.848   3.028  17.688  0.00  0.00    +0.000 OA
ATOM      9  S   UNL     1       5.791   3.678  15.695  0.00  0.00    +0.000 S 
ATOM     10  H   UNL     1       6.395   4.291  19.176  0.00  0.00    +0.000 HD
BRANCH   2  11
ATOM     11  C   UNL     1       6.996   4.613  13.355  0.00  0.00    +0.000 C 
BRANCH  11  13
ATOM     12  C   UNL     1       6.585   2.697  11.761  0.00  0.00    +0.000 C 
ATOM     13  C   UNL     1       5.961   3.657  12.764  0.00  0.00    +0.000 C 
ENDBRANCH  11  13
ENDBRANCH   2  11
ENDBRANCH   1   7
BRANCH   1  14
ATOM     14  C   UNL     1       2.725   2.940  20.160  0.00  0.00    +0.000 C 
BRANCH  14  15
ATOM     15  C   UNL     1       2.078   4.306  20.099  0.00  0.00    +0.000 C 
ATOM     16  O   UNL     1       0.864   4.368  20.322  0.00  0.00    +0.000 OA
ATOM     17  N   UNL     1       2.873   5.374  19.699  0.00  0.00    +0.000 N 
ATOM     18  H   UNL     1       3.810   5.188  19.350  0.00  0.00    +0.000 HD
BRANCH  17  19
ATOM     19  C   UNL     1       2.363   6.694  19.571  0.00  0.00    +0.000 A 
ATOM     20  C   UNL     1       1.797   7.356  20.668  0.00  0.00    +0.000 A 
ATOM     21  C   UNL     1       1.260   8.634  20.564  0.00  0.00    +0.000 A 
ATOM     22  C   UNL     1       1.283   9.280  19.338  0.00  0.00    +0.000 A 
ATOM     23 BR   UNL     1       0.555  11.019  19.196  0.00  0.00    +0.000 Br
ATOM     24  C   UNL     1       1.841   8.652  18.224  0.00  0.00    +0.000 A 
ATOM     25  C   UNL     1       2.394   7.364  18.342  0.00  0.00    +0.000 A 
ENDBRANCH  17  19
ENDBRANCH  14  15
ENDBRANCH   1  14
TORSDOF 6
ENDMDL
MODEL 5
REMARK VINA RESULT:      -7.3      0.975      1.680
REMARK  Name = 
REMARK  7 active torsions:
REMARK  status: ('A' for Active; 'I' for Inactive)
REMARK    1  A    between atoms: C_1  and  C_2
REMARK    2  A    between atoms: C_2  and  C_3
REMARK    3  A    between atoms: C_3  and  C_4
REMARK    4  A    between atoms: C_9  and  C_11
REMARK    5  A    between atoms: C_11  and  C_12
REMARK    6  A    between atoms: C_12  and  C_13
REMARK    7  A    between atoms: N_15  and  C_16
REMARK                            x       y       z     vdW  Elec       q    Type
REMARK                         _______ _______ _______ _____ _____    ______ ____
ROOT
ATOM      1  C   UNL     1       2.994   2.634  19.373  0.00  0.00    +0.000 C 
ENDROOT
BRANCH   1   7
ATOM      2  C   UNL     1       6.616   4.686  15.006  0.00  0.00    +0.000 A 
ATOM      3  N   UNL     1       7.390   5.023  16.019  0.00  0.00    +0.000 NA
ATOM      4  N   UNL     1       6.862   4.615  17.242  0.00  0.00    +0.000 NA
ATOM      5  C   UNL     1       5.695   4.017  17.111  0.00  0.00    +0.000 A 
ATOM      6  N   UNL     1       4.969   3.485  18.166  0.00  0.00    +0.000 N 
ATOM      7  C   UNL     1       3.612   3.205  18.100  0.00  0.00    +0.000 C 
ATOM      8  O   UNL     1       2.907   3.341  17.123  0.00  0.00    +0.000 OA
ATOM      9  S   UNL     1       5.190   3.862  15.484  0.00  0.00    +0.000 S 
ATOM     10  H   UNL     1       5.495   3.366  19.022  0.00  0.00    +0.000 HD
BRANCH   2  11
ATOM     11  C   UNL     1       6.891   4.952  13.555  0.00  0.00    +0.000 C 
BRANCH  11  13
ATOM     12  C   UNL     1       5.582   3.402  12.050  0.00  0.00    +0.000 C 
ATOM     13  C   UNL     1       6.914   3.660  12.740  0.00  0.00    +0.000 C 
ENDBRANCH  11  13
ENDBRANCH   2  11
ENDBRANCH   1   7
BRANCH   1  14
ATOM     14  C   UNL     1       3.132   3.646  20.513  0.00  0.00    +0.000 C 
BRANCH  14  15
ATOM     15  C   UNL     1       2.286   4.878  20.273  0.00  0.00    +0.000 C 
ATOM     16  O   UNL     1       1.061   4.723  20.230  0.00  0.00    +0.000 OA
ATOM     17  N   UNL     1       2.950   6.072  20.020  0.00  0.00    +0.000 N 
ATOM     18  H   UNL     1       3.959   6.057  19.886  0.00  0.00    +0.000 HD
BRANCH  17  19
ATOM     19  C   UNL     1       2.258   7.283  19.746  0.00  0.00    +0.000 A 
ATOM     20  C   UNL     1       2.290   7.854  18.467  0.00  0.00    +0.000 A 
ATOM     21  C   UNL     1       1.650   9.055  18.180  0.00  0.00    +0.000 A 
ATOM     22  C   UNL     1       0.958   9.712  19.184  0.00  0.00    +0.000 A 
ATOM     23 BR   UNL     1       0.087  11.343  18.792  0.00  0.00    +0.000 Br
ATOM     24  C   UNL     1       0.904   9.171  20.469  0.00  0.00    +0.000 A 
ATOM     25  C   UNL     1       1.543   7.948  20.748  0.00  0.00    +0.000 A 
ENDBRANCH  17  19
ENDBRANCH  14  15
ENDBRANCH   1  14
TORSDOF 6
ENDMDL
MODEL 6
REMARK VINA RESULT:      -7.3      0.681      1.210
REMARK  Name = 
REMARK  7 active torsions:
REMARK  status: ('A' for Active; 'I' for Inactive)
REMARK    1  A    between atoms: C_1  and  C_2
REMARK    2  A    between atoms: C_2  and  C_3
REMARK    3  A    between atoms: C_3  and  C_4
REMARK    4  A    between atoms: C_9  and  C_11
REMARK    5  A    between atoms: C_11  and  C_12
REMARK    6  A    between atoms: C_12  and  C_13
REMARK    7  A    between atoms: N_15  and  C_16
REMARK                            x       y       z     vdW  Elec       q    Type
REMARK                         _______ _______ _______ _____ _____    ______ ____
ROOT
ATOM      1  C   UNL     1       4.504   3.577  19.517  0.00  0.00    +0.000 C 
ENDROOT
BRANCH   1   7
ATOM      2  C   UNL     1       6.876   4.527  14.052  0.00  0.00    +0.000 A 
ATOM      3  N   UNL     1       7.693   5.321  14.714  0.00  0.00    +0.000 NA
ATOM      4  N   UNL     1       7.460   5.289  16.087  0.00  0.00    +0.000 NA
ATOM      5  C   UNL     1       6.453   4.499  16.407  0.00  0.00    +0.000 A 
ATOM      6  N   UNL     1       6.032   4.261  17.707  0.00  0.00    +0.000 N 
ATOM      7  C   UNL     1       4.780   3.757  18.027  0.00  0.00    +0.000 C 
ATOM      8  O   UNL     1       3.926   3.423  17.234  0.00  0.00    +0.000 OA
ATOM      9  S   UNL     1       5.762   3.701  15.061  0.00  0.00    +0.000 S 
ATOM     10  H   UNL     1       6.692   4.539  18.421  0.00  0.00    +0.000 HD
BRANCH   2  11
ATOM     11  C   UNL     1       6.865   4.307  12.567  0.00  0.00    +0.000 C 
BRANCH  11  13
ATOM     12  C   UNL     1       6.525   2.099  11.387  0.00  0.00    +0.000 C 
ATOM     13  C   UNL     1       5.862   3.226  12.166  0.00  0.00    +0.000 C 
ENDBRANCH  11  13
ENDBRANCH   2  11
ENDBRANCH   1   7
BRANCH   1  14
ATOM     14  C   UNL     1       2.994   3.486  19.755  0.00  0.00    +0.000 C 
BRANCH  14  15
ATOM     15  C   UNL     1       2.373   4.854  19.936  0.00  0.00    +0.000 C 
ATOM     16  O   UNL     1       1.488   4.966  20.791  0.00  0.00    +0.000 OA
ATOM     17  N   UNL     1       2.772   5.860  19.063  0.00  0.00    +0.000 N 
ATOM     18  H   UNL     1       3.363   5.619  18.271  0.00  0.00    +0.000 HD
BRANCH  17  19
ATOM     19  C   UNL     1       2.230   7.172  19.117  0.00  0.00    +0.000 A 
ATOM     20  C   UNL     1       2.210   7.988  17.978  0.00  0.00    +0.000 A 
ATOM     21  C   UNL     1       1.716   9.287  18.010  0.00  0.00    +0.000 A 
ATOM     22  C   UNL     1       1.226   9.798  19.201  0.00  0.00    +0.000 A 
ATOM     23 BR   UNL     1       0.553  11.563  19.244  0.00  0.00    +0.000 Br
ATOM     24  C   UNL     1       1.228   9.012  20.355  0.00  0.00    +0.000 A 
ATOM     25  C   UNL     1       1.717   7.693  20.310  0.00  0.00    +0.000 A 
ENDBRANCH  17  19
ENDBRANCH  14  15
ENDBRANCH   1  14
TORSDOF 6
ENDMDL
MODEL 7
REMARK VINA RESULT:      -7.2      5.980      7.720
REMARK  Name = 
REMARK  7 active torsions:
REMARK  status: ('A' for Active; 'I' for Inactive)
REMARK    1  A    between atoms: C_1  and  C_2
REMARK    2  A    between atoms: C_2  and  C_3
REMARK    3  A    between atoms: C_3  and  C_4
REMARK    4  A    between atoms: C_9  and  C_11
REMARK    5  A    between atoms: C_11  and  C_12
REMARK    6  A    between atoms: C_12  and  C_13
REMARK    7  A    between atoms: N_15  and  C_16
REMARK                            x       y       z     vdW  Elec       q    Type
REMARK                         _______ _______ _______ _____ _____    ______ ____
ROOT
ATOM      1  C   UNL     1       7.038   7.318  17.014  0.00  0.00    +0.000 C 
ENDROOT
BRANCH   1   7
ATOM      2  C   UNL     1       3.044   4.007  20.093  0.00  0.00    +0.000 A 
ATOM      3  N   UNL     1       4.005   3.105  20.070  0.00  0.00    +0.000 NA
ATOM      4  N   UNL     1       5.162   3.587  19.462  0.00  0.00    +0.000 NA
ATOM      5  C   UNL     1       5.020   4.820  19.018  0.00  0.00    +0.000 A 
ATOM      6  N   UNL     1       6.028   5.547  18.402  0.00  0.00    +0.000 N 
ATOM      7  C   UNL     1       5.796   6.664  17.612  0.00  0.00    +0.000 C 
ATOM      8  O   UNL     1       4.714   7.167  17.397  0.00  0.00    +0.000 OA
ATOM      9  S   UNL     1       3.486   5.494  19.363  0.00  0.00    +0.000 S 
ATOM     10  H   UNL     1       6.957   5.167  18.524  0.00  0.00    +0.000 HD
BRANCH   2  11
ATOM     11  C   UNL     1       1.677   3.829  20.689  0.00  0.00    +0.000 C 
BRANCH  11  13
ATOM     12  C   UNL     1       0.733   2.503  18.757  0.00  0.00    +0.000 C 
ATOM     13  C   UNL     1       1.038   2.513  20.248  0.00  0.00    +0.000 C 
ENDBRANCH  11  13
ENDBRANCH   2  11
ENDBRANCH   1   7
BRANCH   1  14
ATOM     14  C   UNL     1       8.086   7.533  18.109  0.00  0.00    +0.000 C 
BRANCH  14  15
ATOM     15  C   UNL     1       8.357   9.004  18.341  0.00  0.00    +0.000 C 
ATOM     16  O   UNL     1       7.811   9.808  17.579  0.00  0.00    +0.000 OA
ATOM     17  N   UNL     1       9.276   9.337  19.330  0.00  0.00    +0.000 N 
ATOM     18  H   UNL     1       9.816   8.597  19.771  0.00  0.00    +0.000 HD
BRANCH  17  19
ATOM     19  C   UNL     1       9.635  10.683  19.611  0.00  0.00    +0.000 A 
ATOM     20  C   UNL     1      10.389  11.431  18.697  0.00  0.00    +0.000 A 
ATOM     21  C   UNL     1      10.783  12.738  18.960  0.00  0.00    +0.000 A 
ATOM     22  C   UNL     1      10.421  13.326  20.161  0.00  0.00    +0.000 A 
ATOM     23 BR   UNL     1      10.955  15.104  20.518  0.00  0.00    +0.000 Br
ATOM     24  C   UNL     1       9.667  12.612  21.094  0.00  0.00    +0.000 A 
ATOM     25  C   UNL     1       9.261  11.294  20.813  0.00  0.00    +0.000 A 
ENDBRANCH  17  19
ENDBRANCH  14  15
ENDBRANCH   1  14
TORSDOF 6
ENDMDL
MODEL 8
REMARK VINA RESULT:      -7.0      3.006      4.540
REMARK  Name = 
REMARK  7 active torsions:
REMARK  status: ('A' for Active; 'I' for Inactive)
REMARK    1  A    between atoms: C_1  and  C_2
REMARK    2  A    between atoms: C_2  and  C_3
REMARK    3  A    between atoms: C_3  and  C_4
REMARK    4  A    between atoms: C_9  and  C_11
REMARK    5  A    between atoms: C_11  and  C_12
REMARK    6  A    between atoms: C_12  and  C_13
REMARK    7  A    between atoms: N_15  and  C_16
REMARK                            x       y       z     vdW  Elec       q    Type
REMARK                         _______ _______ _______ _____ _____    ______ ____
ROOT
ATOM      1  C   UNL     1       1.493   6.582  20.519  0.00  0.00    +0.000 C 
ENDROOT
BRANCH   1   7
ATOM      2  C   UNL     1       6.317   4.747  17.395  0.00  0.00    +0.000 A 
ATOM      3  N   UNL     1       6.861   4.646  18.591  0.00  0.00    +0.000 NA
ATOM      4  N   UNL     1       5.956   4.945  19.607  0.00  0.00    +0.000 NA
ATOM      5  C   UNL     1       4.774   5.294  19.140  0.00  0.00    +0.000 A 
ATOM      6  N   UNL     1       3.684   5.610  19.937  0.00  0.00    +0.000 N 
ATOM      7  C   UNL     1       2.584   6.326  19.484  0.00  0.00    +0.000 C 
ATOM      8  O   UNL     1       2.414   6.721  18.351  0.00  0.00    +0.000 OA
ATOM      9  S   UNL     1       4.670   5.226  17.433  0.00  0.00    +0.000 S 
ATOM     10  H   UNL     1       3.772   5.327  20.903  0.00  0.00    +0.000 HD
BRANCH   2  11
ATOM     11  C   UNL     1       6.999   4.477  16.085  0.00  0.00    +0.000 C 
BRANCH  11  13
ATOM     12  C   UNL     1       6.028   3.954  13.813  0.00  0.00    +0.000 C 
ATOM     13  C   UNL     1       6.182   5.002  14.906  0.00  0.00    +0.000 C 
ENDBRANCH  11  13
ENDBRANCH   2  11
ENDBRANCH   1   7
BRANCH   1  14
ATOM     14  C   UNL     1       1.752   7.916  21.224  0.00  0.00    +0.000 C 
BRANCH  14  15
ATOM     15  C   UNL     1       0.467   8.676  21.470  0.00  0.00    +0.000 C 
ATOM     16  O   UNL     1      -0.579   8.021  21.515  0.00  0.00    +0.000 OA
ATOM     17  N   UNL     1       0.544  10.063  21.529  0.00  0.00    +0.000 N 
ATOM     18  H   UNL     1       1.421  10.518  21.287  0.00  0.00    +0.000 HD
BRANCH  17  19
ATOM     19  C   UNL     1      -0.602  10.880  21.719  0.00  0.00    +0.000 A 
ATOM     20  C   UNL     1      -1.198  11.545  20.639  0.00  0.00    +0.000 A 
ATOM     21  C   UNL     1      -2.300  12.377  20.802  0.00  0.00    +0.000 A 
ATOM     22  C   UNL     1      -2.831  12.560  22.068  0.00  0.00    +0.000 A 
ATOM     23 BR   UNL     1      -4.329  13.690  22.289  0.00  0.00    +0.000 Br
ATOM     24  C   UNL     1      -2.264  11.912  23.167  0.00  0.00    +0.000 A 
ATOM     25  C   UNL     1      -1.158  11.060  22.991  0.00  0.00    +0.000 A 
ENDBRANCH  17  19
ENDBRANCH  14  15
ENDBRANCH   1  14
TORSDOF 6
ENDMDL
MODEL 9
REMARK VINA RESULT:      -6.9      2.824      4.300
REMARK  Name = 
REMARK  7 active torsions:
REMARK  status: ('A' for Active; 'I' for Inactive)
REMARK    1  A    between atoms: C_1  and  C_2
REMARK    2  A    between atoms: C_2  and  C_3
REMARK    3  A    between atoms: C_3  and  C_4
REMARK    4  A    between atoms: C_9  and  C_11
REMARK    5  A    between atoms: C_11  and  C_12
REMARK    6  A    between atoms: C_12  and  C_13
REMARK    7  A    between atoms: N_15  and  C_16
REMARK                            x       y       z     vdW  Elec       q    Type
REMARK                         _______ _______ _______ _____ _____    ______ ____
ROOT
ATOM      1  C   UNL     1       1.686   7.049  20.557  0.00  0.00    +0.000 C 
ENDROOT
BRANCH   1   7
ATOM      2  C   UNL     1       6.132   4.594  17.301  0.00  0.00    +0.000 A 
ATOM      3  N   UNL     1       6.756   4.563  18.461  0.00  0.00    +0.000 NA
ATOM      4  N   UNL     1       5.951   5.018  19.503  0.00  0.00    +0.000 NA
ATOM      5  C   UNL     1       4.763   5.408  19.086  0.00  0.00    +0.000 A 
ATOM      6  N   UNL     1       3.758   5.873  19.922  0.00  0.00    +0.000 N 
ATOM      7  C   UNL     1       2.678   6.623  19.479  0.00  0.00    +0.000 C 
ATOM      8  O   UNL     1       2.450   6.925  18.327  0.00  0.00    +0.000 OA
ATOM      9  S   UNL     1       4.528   5.193  17.405  0.00  0.00    +0.000 S 
ATOM     10  H   UNL     1       3.899   5.673  20.902  0.00  0.00    +0.000 HD
BRANCH   2  11
ATOM     11  C   UNL     1       6.696   4.158  15.980  0.00  0.00    +0.000 C 
BRANCH  11  13
ATOM     12  C   UNL     1       6.086   3.900  13.542  0.00  0.00    +0.000 C 
ATOM     13  C   UNL     1       5.888   4.718  14.810  0.00  0.00    +0.000 C 
ENDBRANCH  11  13
ENDBRANCH   2  11
ENDBRANCH   1   7
BRANCH   1  14
ATOM     14  C   UNL     1       1.664   8.576  20.663  0.00  0.00    +0.000 C 
BRANCH  14  15
ATOM     15  C   UNL     1       0.289   9.137  20.369  0.00  0.00    +0.000 C 
ATOM     16  O   UNL     1      -0.615   8.869  21.167  0.00  0.00    +0.000 OA
ATOM     17  N   UNL     1       0.121   9.828  19.174  0.00  0.00    +0.000 N 
ATOM     18  H   UNL     1       0.878   9.828  18.494  0.00  0.00    +0.000 HD
BRANCH  17  19
ATOM     19  C   UNL     1      -1.133  10.366  18.777  0.00  0.00    +0.000 A 
ATOM     20  C   UNL     1      -1.664  11.494  19.416  0.00  0.00    +0.000 A 
ATOM     21  C   UNL     1      -2.903  12.022  19.071  0.00  0.00    +0.000 A 
ATOM     22  C   UNL     1      -3.641  11.419  18.066  0.00  0.00    +0.000 A 
ATOM     23 BR   UNL     1      -5.325  12.138  17.596  0.00  0.00    +0.000 Br
ATOM     24  C   UNL     1      -3.142  10.294  17.407  0.00  0.00    +0.000 A 
ATOM     25  C   UNL     1      -1.881   9.775  17.753  0.00  0.00    +0.000 A 
ENDBRANCH  17  19
ENDBRANCH  14  15
ENDBRANCH   1  14
TORSDOF 6
ENDMDL
