MODEL 1
REMARK VINA RESULT:      -8.0      0.000      0.000
REMARK  Name = 
REMARK  5 active torsions:
REMARK  status: ('A' for Active; 'I' for Inactive)
REMARK    1  A    between atoms: C_1  and  C_2
REMARK    2  A    between atoms: C_8  and  C_9
REMARK    3  A    between atoms: C_9  and  O_10
REMARK    4  A    between atoms: C_9  and  C_11
REMARK    5  A    between atoms: C_19  and  C_20
REMARK                            x       y       z     vdW  Elec       q    Type
REMARK                         _______ _______ _______ _____ _____    ______ ____
ROOT
ATOM      1  C   UNL     1       8.607   5.746  12.767  0.00  0.00    +0.000 C 
ATOM      2  C   UNL     1       7.377   4.963  13.159  0.00  0.00    +0.000 A 
ATOM      3  C   UNL     1       6.727   4.201  12.184  0.00  0.00    +0.000 A 
ATOM      4  C   UNL     1       5.609   3.470  12.533  0.00  0.00    +0.000 A 
ATOM      5 CL   UNL     1       4.802   2.520  11.348  0.00  0.00    +0.000 Cl
ATOM      6  C   UNL     1       5.141   3.489  13.848  0.00  0.00    +0.000 A 
ATOM      7  C   UNL     1       5.780   4.233  14.880  0.00  0.00    +0.000 A 
ATOM      8  C   UNL     1       5.361   4.248  16.287  0.00  0.00    +0.000 A 
ATOM      9  C   UNL     1       6.184   5.009  17.175  0.00  0.00    +0.000 A 
ATOM     10  C   UNL     1       6.354   5.311  18.575  0.00  0.00    +0.000 A 
ATOM     11  C   UNL     1       5.660   4.819  19.798  0.00  0.00    +0.000 C 
ATOM     12  N   UNL     1       7.361   6.174  18.793  0.00  0.00    +0.000 NA
ATOM     13  N   UNL     1       7.863   6.401  17.582  0.00  0.00    +0.000 N 
ATOM     14  C   UNL     1       7.228   5.713  16.593  0.00  0.00    +0.000 A 
ATOM     15  N   UNL     1       7.613   5.750  15.320  0.00  0.00    +0.000 NA
ATOM     16  C   UNL     1       6.919   4.992  14.485  0.00  0.00    +0.000 A 
ATOM     17  H   UNL     1       8.661   7.017  17.478  0.00  0.00    +0.000 HD
ENDROOT
BRANCH   8  18
ATOM     18  C   UNL     1       4.130   3.439  16.714  0.00  0.00    +0.000 C 
BRANCH  18  19
ATOM     19  C   UNL     1       3.140   4.059  17.679  0.00  0.00    +0.000 A 
ATOM     20  C   UNL     1       2.505   3.338  18.702  0.00  0.00    +0.000 A 
ATOM     21  C   UNL     1       1.758   4.028  19.645  0.00  0.00    +0.000 A 
ATOM     22  N   UNL     1       1.594   5.364  19.663  0.00  0.00    +0.000 NA
ATOM     23  C   UNL     1       2.216   6.053  18.679  0.00  0.00    +0.000 A 
ATOM     24  F   UNL     1       2.110   7.389  18.695  0.00  0.00    +0.000 F 
ATOM     25  C   UNL     1       2.980   5.462  17.693  0.00  0.00    +0.000 A 
ENDBRANCH  18  19
BRANCH  18  26
ATOM     26  O   UNL     1       4.487   2.132  17.171  0.00  0.00    +0.000 OA
ATOM     27  H   UNL     1       4.577   2.154  18.132  0.00  0.00    +0.000 HD
ENDBRANCH  18  26
ENDBRANCH   8  18
TORSDOF 3
ENDMDL
MODEL 2
REMARK VINA RESULT:      -7.9      1.095      1.437
REMARK  Name = 
REMARK  5 active torsions:
REMARK  status: ('A' for Active; 'I' for Inactive)
REMARK    1  A    between atoms: C_1  and  C_2
REMARK    2  A    between atoms: C_8  and  C_9
REMARK    3  A    between atoms: C_9  and  O_10
REMARK    4  A    between atoms: C_9  and  C_11
REMARK    5  A    between atoms: C_19  and  C_20
REMARK                            x       y       z     vdW  Elec       q    Type
REMARK                         _______ _______ _______ _____ _____    ______ ____
ROOT
ATOM      1  C   UNL     1       8.607   5.785  12.775  0.00  0.00    +0.000 C 
ATOM      2  C   UNL     1       7.398   4.967  13.160  0.00  0.00    +0.000 A 
ATOM      3  C   UNL     1       6.774   4.189  12.180  0.00  0.00    +0.000 A 
ATOM      4  C   UNL     1       5.676   3.426  12.521  0.00  0.00    +0.000 A 
ATOM      5 CL   UNL     1       4.903   2.456  11.329  0.00  0.00    +0.000 Cl
ATOM      6  C   UNL     1       5.202   3.427  13.833  0.00  0.00    +0.000 A 
ATOM      7  C   UNL     1       5.815   4.186  14.871  0.00  0.00    +0.000 A 
ATOM      8  C   UNL     1       5.389   4.184  16.275  0.00  0.00    +0.000 A 
ATOM      9  C   UNL     1       6.185   4.967  17.170  0.00  0.00    +0.000 A 
ATOM     10  C   UNL     1       6.340   5.269  18.572  0.00  0.00    +0.000 A 
ATOM     11  C   UNL     1       5.654   4.754  19.789  0.00  0.00    +0.000 C 
ATOM     12  N   UNL     1       7.320   6.159  18.797  0.00  0.00    +0.000 NA
ATOM     13  N   UNL     1       7.822   6.405  17.589  0.00  0.00    +0.000 N 
ATOM     14  C   UNL     1       7.211   5.701  16.595  0.00  0.00    +0.000 A 
ATOM     15  N   UNL     1       7.601   5.753  15.323  0.00  0.00    +0.000 NA
ATOM     16  C   UNL     1       6.933   4.979  14.483  0.00  0.00    +0.000 A 
ATOM     17  H   UNL     1       8.603   7.043  17.491  0.00  0.00    +0.000 HD
ENDROOT
BRANCH   8  18
ATOM     18  C   UNL     1       4.179   3.340  16.694  0.00  0.00    +0.000 C 
BRANCH  18  19
ATOM     19  C   UNL     1       3.258   3.859  17.779  0.00  0.00    +0.000 A 
ATOM     20  C   UNL     1       2.762   5.172  17.807  0.00  0.00    +0.000 A 
ATOM     21  C   UNL     1       1.785   5.501  18.734  0.00  0.00    +0.000 A 
ATOM     22  N   UNL     1       1.256   4.642  19.626  0.00  0.00    +0.000 NA
ATOM     23  C   UNL     1       1.733   3.377  19.588  0.00  0.00    +0.000 A 
ATOM     24  F   UNL     1       1.194   2.486  20.432  0.00  0.00    +0.000 F 
ATOM     25  C   UNL     1       2.705   2.949  18.706  0.00  0.00    +0.000 A 
ENDBRANCH  18  19
BRANCH  18  26
ATOM     26  O   UNL     1       4.551   1.991  16.990  0.00  0.00    +0.000 OA
ATOM     27  H   UNL     1       4.071   1.400  16.396  0.00  0.00    +0.000 HD
ENDBRANCH  18  26
ENDBRANCH   8  18
TORSDOF 3
ENDMDL
MODEL 3
REMARK VINA RESULT:      -7.8      3.804      6.967
REMARK  Name = 
REMARK  5 active torsions:
REMARK  status: ('A' for Active; 'I' for Inactive)
REMARK    1  A    between atoms: C_1  and  C_2
REMARK    2  A    between atoms: C_8  and  C_9
REMARK    3  A    between atoms: C_9  and  O_10
REMARK    4  A    between atoms: C_9  and  C_11
REMARK    5  A    between atoms: C_19  and  C_20
REMARK                            x       y       z     vdW  Elec       q    Type
REMARK                         _______ _______ _______ _____ _____    ______ ____
ROOT
ATOM      1  C   UNL     1       0.138   8.067  21.751  0.00  0.00    +0.000 C 
ATOM      2  C   UNL     1       1.057   7.890  20.567  0.00  0.00    +0.000 A 
ATOM      3  C   UNL     1       1.251   8.969  19.700  0.00  0.00    +0.000 A 
ATOM      4  C   UNL     1       2.099   8.824  18.621  0.00  0.00    +0.000 A 
ATOM      5 CL   UNL     1       2.356  10.145  17.549  0.00  0.00    +0.000 Cl
ATOM      6  C   UNL     1       2.760   7.614  18.406  0.00  0.00    +0.000 A 
ATOM      7  C   UNL     1       2.611   6.493  19.272  0.00  0.00    +0.000 A 
ATOM      8  C   UNL     1       3.320   5.217  19.122  0.00  0.00    +0.000 A 
ATOM      9  C   UNL     1       3.076   4.244  20.142  0.00  0.00    +0.000 A 
ATOM     10  C   UNL     1       3.512   2.943  20.587  0.00  0.00    +0.000 A 
ATOM     11  C   UNL     1       4.576   2.022  20.099  0.00  0.00    +0.000 C 
ATOM     12  N   UNL     1       2.838   2.522  21.670  0.00  0.00    +0.000 NA
ATOM     13  N   UNL     1       2.014   3.528  21.954  0.00  0.00    +0.000 N 
ATOM     14  C   UNL     1       2.138   4.585  21.103  0.00  0.00    +0.000 A 
ATOM     15  N   UNL     1       1.452   5.717  21.248  0.00  0.00    +0.000 NA
ATOM     16  C   UNL     1       1.714   6.667  20.364  0.00  0.00    +0.000 A 
ATOM     17  H   UNL     1       1.401   3.462  22.757  0.00  0.00    +0.000 HD
ENDROOT
BRANCH   8  18
ATOM     18  C   UNL     1       4.279   5.022  17.940  0.00  0.00    +0.000 C 
BRANCH  18  19
ATOM     19  C   UNL     1       5.658   5.647  18.001  0.00  0.00    +0.000 A 
ATOM     20  C   UNL     1       6.027   6.777  17.255  0.00  0.00    +0.000 A 
ATOM     21  C   UNL     1       7.247   7.382  17.513  0.00  0.00    +0.000 A 
ATOM     22  N   UNL     1       8.125   6.968  18.446  0.00  0.00    +0.000 NA
ATOM     23  C   UNL     1       7.760   5.883  19.167  0.00  0.00    +0.000 A 
ATOM     24  F   UNL     1       8.590   5.472  20.135  0.00  0.00    +0.000 F 
ATOM     25  C   UNL     1       6.569   5.208  18.987  0.00  0.00    +0.000 A 
ENDBRANCH  18  19
BRANCH  18  26
ATOM     26  O   UNL     1       3.659   5.354  16.695  0.00  0.00    +0.000 OA
ATOM     27  H   UNL     1       3.262   6.232  16.770  0.00  0.00    +0.000 HD
ENDBRANCH  18  26
ENDBRANCH   8  18
TORSDOF 3
ENDMDL
MODEL 4
REMARK VINA RESULT:      -7.5      3.500      7.041
REMARK  Name = 
REMARK  5 active torsions:
REMARK  status: ('A' for Active; 'I' for Inactive)
REMARK    1  A    between atoms: C_1  and  C_2
REMARK    2  A    between atoms: C_8  and  C_9
REMARK    3  A    between atoms: C_9  and  O_10
REMARK    4  A    between atoms: C_9  and  C_11
REMARK    5  A    between atoms: C_19  and  C_20
REMARK                            x       y       z     vdW  Elec       q    Type
REMARK                         _______ _______ _______ _____ _____    ______ ____
ROOT
ATOM      1  C   UNL     1       0.249   8.615  21.913  0.00  0.00    +0.000 C 
ATOM      2  C   UNL     1       1.033   8.562  20.624  0.00  0.00    +0.000 A 
ATOM      3  C   UNL     1       1.169   9.733  19.872  0.00  0.00    +0.000 A 
ATOM      4  C   UNL     1       1.894   9.701  18.698  0.00  0.00    +0.000 A 
ATOM      5 CL   UNL     1       2.077  11.134  17.765  0.00  0.00    +0.000 Cl
ATOM      6  C   UNL     1       2.490   8.512  18.275  0.00  0.00    +0.000 A 
ATOM      7  C   UNL     1       2.398   7.300  19.016  0.00  0.00    +0.000 A 
ATOM      8  C   UNL     1       3.047   6.037  18.644  0.00  0.00    +0.000 A 
ATOM      9  C   UNL     1       2.883   4.955  19.565  0.00  0.00    +0.000 A 
ATOM     10  C   UNL     1       3.322   3.603  19.807  0.00  0.00    +0.000 A 
ATOM     11  C   UNL     1       4.300   2.727  19.104  0.00  0.00    +0.000 C 
ATOM     12  N   UNL     1       2.753   3.069  20.900  0.00  0.00    +0.000 NA
ATOM     13  N   UNL     1       1.995   4.050  21.386  0.00  0.00    +0.000 N 
ATOM     14  C   UNL     1       2.061   5.198  20.655  0.00  0.00    +0.000 A 
ATOM     15  N   UNL     1       1.430   6.317  21.003  0.00  0.00    +0.000 NA
ATOM     16  C   UNL     1       1.627   7.359  20.212  0.00  0.00    +0.000 A 
ATOM     17  H   UNL     1       1.468   3.901  22.238  0.00  0.00    +0.000 HD
ENDROOT
BRANCH   8  18
ATOM     18  C   UNL     1       3.871   5.966  17.351  0.00  0.00    +0.000 C 
BRANCH  18  19
ATOM     19  C   UNL     1       5.251   5.345  17.391  0.00  0.00    +0.000 A 
ATOM     20  C   UNL     1       5.779   4.570  16.346  0.00  0.00    +0.000 A 
ATOM     21  C   UNL     1       7.114   4.197  16.395  0.00  0.00    +0.000 A 
ATOM     22  N   UNL     1       7.966   4.531  17.382  0.00  0.00    +0.000 NA
ATOM     23  C   UNL     1       7.453   5.284  18.382  0.00  0.00    +0.000 A 
ATOM     24  F   UNL     1       8.287   5.672  19.357  0.00  0.00    +0.000 F 
ATOM     25  C   UNL     1       6.139   5.705  18.428  0.00  0.00    +0.000 A 
ENDBRANCH  18  19
BRANCH  18  26
ATOM     26  O   UNL     1       3.938   7.235  16.695  0.00  0.00    +0.000 OA
ATOM     27  H   UNL     1       3.597   7.912  17.295  0.00  0.00    +0.000 HD
ENDBRANCH  18  26
ENDBRANCH   8  18
TORSDOF 3
ENDMDL
MODEL 5
REMARK VINA RESULT:      -7.5      2.948      6.524
REMARK  Name = 
REMARK  5 active torsions:
REMARK  status: ('A' for Active; 'I' for Inactive)
REMARK    1  A    between atoms: C_1  and  C_2
REMARK    2  A    between atoms: C_8  and  C_9
REMARK    3  A    between atoms: C_9  and  O_10
REMARK    4  A    between atoms: C_9  and  C_11
REMARK    5  A    between atoms: C_19  and  C_20
REMARK                            x       y       z     vdW  Elec       q    Type
REMARK                         _______ _______ _______ _____ _____    ______ ____
ROOT
ATOM      1  C   UNL     1       1.481   2.890  21.900  0.00  0.00    +0.000 C 
ATOM      2  C   UNL     1       2.215   3.163  20.609  0.00  0.00    +0.000 A 
ATOM      3  C   UNL     1       2.754   2.083  19.902  0.00  0.00    +0.000 A 
ATOM      4  C   UNL     1       3.416   2.317  18.714  0.00  0.00    +0.000 A 
ATOM      5 CL   UNL     1       4.077   1.000  17.827  0.00  0.00    +0.000 Cl
ATOM      6  C   UNL     1       3.537   3.618  18.223  0.00  0.00    +0.000 A 
ATOM      7  C   UNL     1       2.988   4.747  18.896  0.00  0.00    +0.000 A 
ATOM      8  C   UNL     1       3.042   6.127  18.400  0.00  0.00    +0.000 A 
ATOM      9  C   UNL     1       2.367   7.104  19.198  0.00  0.00    +0.000 A 
ATOM     10  C   UNL     1       1.995   8.498  19.200  0.00  0.00    +0.000 A 
ATOM     11  C   UNL     1       2.157   9.579  18.188  0.00  0.00    +0.000 C 
ATOM     12  N   UNL     1       1.349   8.852  20.323  0.00  0.00    +0.000 NA
ATOM     13  N   UNL     1       1.261   7.721  21.020  0.00  0.00    +0.000 N 
ATOM     14  C   UNL     1       1.817   6.651  20.387  0.00  0.00    +0.000 A 
ATOM     15  N   UNL     1       1.781   5.416  20.883  0.00  0.00    +0.000 NA
ATOM     16  C   UNL     1       2.329   4.476  20.129  0.00  0.00    +0.000 A 
ATOM     17  H   UNL     1       0.788   7.721  21.916  0.00  0.00    +0.000 HD
ENDROOT
BRANCH   8  18
ATOM     18  C   UNL     1       3.760   6.425  17.077  0.00  0.00    +0.000 C 
BRANCH  18  19
ATOM     19  C   UNL     1       5.180   5.936  16.884  0.00  0.00    +0.000 A 
ATOM     20  C   UNL     1       6.152   5.968  17.896  0.00  0.00    +0.000 A 
ATOM     21  C   UNL     1       7.366   5.334  17.682  0.00  0.00    +0.000 A 
ATOM     22  N   UNL     1       7.694   4.669  16.559  0.00  0.00    +0.000 NA
ATOM     23  C   UNL     1       6.750   4.634  15.590  0.00  0.00    +0.000 A 
ATOM     24  F   UNL     1       7.028   3.940  14.478  0.00  0.00    +0.000 F 
ATOM     25  C   UNL     1       5.512   5.234  15.704  0.00  0.00    +0.000 A 
ENDBRANCH  18  19
BRANCH  18  26
ATOM     26  O   UNL     1       3.681   7.810  16.731  0.00  0.00    +0.000 OA
ATOM     27  H   UNL     1       2.995   8.225  17.270  0.00  0.00    +0.000 HD
ENDBRANCH  18  26
ENDBRANCH   8  18
TORSDOF 3
ENDMDL
MODEL 6
REMARK VINA RESULT:      -7.4      2.894      6.568
REMARK  Name = 
REMARK  5 active torsions:
REMARK  status: ('A' for Active; 'I' for Inactive)
REMARK    1  A    between atoms: C_1  and  C_2
REMARK    2  A    between atoms: C_8  and  C_9
REMARK    3  A    between atoms: C_9  and  O_10
REMARK    4  A    between atoms: C_9  and  C_11
REMARK    5  A    between atoms: C_19  and  C_20
REMARK                            x       y       z     vdW  Elec       q    Type
REMARK                         _______ _______ _______ _____ _____    ______ ____
ROOT
ATOM      1  C   UNL     1       1.574   2.934  21.974  0.00  0.00    +0.000 C 
ATOM      2  C   UNL     1       2.214   3.266  20.648  0.00  0.00    +0.000 A 
ATOM      3  C   UNL     1       2.732   2.224  19.872  0.00  0.00    +0.000 A 
ATOM      4  C   UNL     1       3.307   2.513  18.652  0.00  0.00    +0.000 A 
ATOM      5 CL   UNL     1       3.941   1.241  17.681  0.00  0.00    +0.000 Cl
ATOM      6  C   UNL     1       3.364   3.831  18.198  0.00  0.00    +0.000 A 
ATOM      7  C   UNL     1       2.833   4.923  18.941  0.00  0.00    +0.000 A 
ATOM      8  C   UNL     1       2.819   6.319  18.488  0.00  0.00    +0.000 A 
ATOM      9  C   UNL     1       2.176   7.252  19.360  0.00  0.00    +0.000 A 
ATOM     10  C   UNL     1       1.770   8.635  19.432  0.00  0.00    +0.000 A 
ATOM     11  C   UNL     1       1.838   9.751  18.449  0.00  0.00    +0.000 C 
ATOM     12  N   UNL     1       1.191   8.936  20.606  0.00  0.00    +0.000 NA
ATOM     13  N   UNL     1       1.178   7.783  21.270  0.00  0.00    +0.000 N 
ATOM     14  C   UNL     1       1.716   6.748  20.567  0.00  0.00    +0.000 A 
ATOM     15  N   UNL     1       1.744   5.497  21.024  0.00  0.00    +0.000 NA
ATOM     16  C   UNL     1       2.263   4.596  20.205  0.00  0.00    +0.000 A 
ATOM     17  H   UNL     1       0.765   7.741  22.194  0.00  0.00    +0.000 HD
ENDROOT
BRANCH   8  18
ATOM     18  C   UNL     1       3.441   6.677  17.132  0.00  0.00    +0.000 C 
BRANCH  18  19
ATOM     19  C   UNL     1       4.882   6.299  16.860  0.00  0.00    +0.000 A 
ATOM     20  C   UNL     1       5.282   5.516  15.766  0.00  0.00    +0.000 A 
ATOM     21  C   UNL     1       6.635   5.376  15.499  0.00  0.00    +0.000 A 
ATOM     22  N   UNL     1       7.620   5.948  16.216  0.00  0.00    +0.000 NA
ATOM     23  C   UNL     1       7.228   6.709  17.264  0.00  0.00    +0.000 A 
ATOM     24  F   UNL     1       8.182   7.330  17.971  0.00  0.00    +0.000 F 
ATOM     25  C   UNL     1       5.908   6.909  17.615  0.00  0.00    +0.000 A 
ENDBRANCH  18  19
BRANCH  18  26
ATOM     26  O   UNL     1       3.238   8.053  16.803  0.00  0.00    +0.000 OA
ATOM     27  H   UNL     1       3.555   8.206  15.903  0.00  0.00    +0.000 HD
ENDBRANCH  18  26
ENDBRANCH   8  18
TORSDOF 3
ENDMDL
MODEL 7
REMARK VINA RESULT:      -7.4     10.414     13.255
REMARK  Name = 
REMARK  5 active torsions:
REMARK  status: ('A' for Active; 'I' for Inactive)
REMARK    1  A    between atoms: C_1  and  C_2
REMARK    2  A    between atoms: C_8  and  C_9
REMARK    3  A    between atoms: C_9  and  O_10
REMARK    4  A    between atoms: C_9  and  C_11
REMARK    5  A    between atoms: C_19  and  C_20
REMARK                            x       y       z     vdW  Elec       q    Type
REMARK                         _______ _______ _______ _____ _____    ______ ____
ROOT
ATOM      1  C   UNL     1      -2.626   9.615  16.014  0.00  0.00    +0.000 C 
ATOM      2  C   UNL     1      -2.368  10.379  17.291  0.00  0.00    +0.000 A 
ATOM      3  C   UNL     1      -1.089  10.334  17.853  0.00  0.00    +0.000 A 
ATOM      4  C   UNL     1      -0.836  11.038  19.013  0.00  0.00    +0.000 A 
ATOM      5 CL   UNL     1       0.735  11.000  19.714  0.00  0.00    +0.000 Cl
ATOM      6  C   UNL     1      -1.848  11.791  19.610  0.00  0.00    +0.000 A 
ATOM      7  C   UNL     1      -3.160  11.885  19.064  0.00  0.00    +0.000 A 
ATOM      8  C   UNL     1      -4.244  12.702  19.622  0.00  0.00    +0.000 A 
ATOM      9  C   UNL     1      -5.467  12.708  18.879  0.00  0.00    +0.000 A 
ATOM     10  C   UNL     1      -6.763  13.340  18.845  0.00  0.00    +0.000 A 
ATOM     11  C   UNL     1      -7.372  14.422  19.667  0.00  0.00    +0.000 C 
ATOM     12  N   UNL     1      -7.534  12.869  17.850  0.00  0.00    +0.000 NA
ATOM     13  N   UNL     1      -6.758  11.987  17.225  0.00  0.00    +0.000 N 
ATOM     14  C   UNL     1      -5.515  11.877  17.770  0.00  0.00    +0.000 A 
ATOM     15  N   UNL     1      -4.564  11.098  17.259  0.00  0.00    +0.000 NA
ATOM     16  C   UNL     1      -3.395  11.132  17.879  0.00  0.00    +0.000 A 
ATOM     17  H   UNL     1      -7.110  11.500  16.409  0.00  0.00    +0.000 HD
ENDROOT
BRANCH   8  18
ATOM     18  C   UNL     1      -3.997  13.507  20.904  0.00  0.00    +0.000 C 
BRANCH  18  19
ATOM     19  C   UNL     1      -4.469  12.945  22.229  0.00  0.00    +0.000 A 
ATOM     20  C   UNL     1      -3.597  12.556  23.257  0.00  0.00    +0.000 A 
ATOM     21  C   UNL     1      -4.125  12.225  24.496  0.00  0.00    +0.000 A 
ATOM     22  N   UNL     1      -5.435  12.255  24.802  0.00  0.00    +0.000 NA
ATOM     23  C   UNL     1      -6.270  12.639  23.810  0.00  0.00    +0.000 A 
ATOM     24  F   UNL     1      -7.577  12.724  24.095  0.00  0.00    +0.000 F 
ATOM     25  C   UNL     1      -5.846  12.986  22.542  0.00  0.00    +0.000 A 
ENDBRANCH  18  19
BRANCH  18  26
ATOM     26  O   UNL     1      -4.442  14.860  20.774  0.00  0.00    +0.000 OA
ATOM     27  H   UNL     1      -4.695  15.016  19.855  0.00  0.00    +0.000 HD
ENDBRANCH  18  26
ENDBRANCH   8  18
TORSDOF 3
ENDMDL
MODEL 8
REMARK VINA RESULT:      -7.4      8.489     11.849
REMARK  Name = 
REMARK  5 active torsions:
REMARK  status: ('A' for Active; 'I' for Inactive)
REMARK    1  A    between atoms: C_1  and  C_2
REMARK    2  A    between atoms: C_8  and  C_9
REMARK    3  A    between atoms: C_9  and  O_10
REMARK    4  A    between atoms: C_9  and  C_11
REMARK    5  A    between atoms: C_19  and  C_20
REMARK                            x       y       z     vdW  Elec       q    Type
REMARK                         _______ _______ _______ _____ _____    ______ ____
ROOT
ATOM      1  C   UNL     1      -6.751  12.129  17.753  0.00  0.00    +0.000 C 
ATOM      2  C   UNL     1      -5.270  11.838  17.730  0.00  0.00    +0.000 A 
ATOM      3  C   UNL     1      -4.706  11.317  16.561  0.00  0.00    +0.000 A 
ATOM      4  C   UNL     1      -3.351  11.059  16.522  0.00  0.00    +0.000 A 
ATOM      5 CL   UNL     1      -2.640  10.426  15.089  0.00  0.00    +0.000 Cl
ATOM      6  C   UNL     1      -2.554  11.323  17.637  0.00  0.00    +0.000 A 
ATOM      7  C   UNL     1      -3.078  11.872  18.843  0.00  0.00    +0.000 A 
ATOM      8  C   UNL     1      -2.278  12.216  20.024  0.00  0.00    +0.000 A 
ATOM      9  C   UNL     1      -2.992  12.820  21.106  0.00  0.00    +0.000 A 
ATOM     10  C   UNL     1      -2.781  13.434  22.394  0.00  0.00    +0.000 A 
ATOM     11  C   UNL     1      -1.544  13.759  23.158  0.00  0.00    +0.000 C 
ATOM     12  N   UNL     1      -3.932  13.806  22.978  0.00  0.00    +0.000 NA
ATOM     13  N   UNL     1      -4.868  13.487  22.087  0.00  0.00    +0.000 N 
ATOM     14  C   UNL     1      -4.365  12.932  20.949  0.00  0.00    +0.000 A 
ATOM     15  N   UNL     1      -5.125  12.598  19.908  0.00  0.00    +0.000 NA
ATOM     16  C   UNL     1      -4.482  12.108  18.859  0.00  0.00    +0.000 A 
ATOM     17  H   UNL     1      -5.840  13.690  22.287  0.00  0.00    +0.000 HD
ENDROOT
BRANCH   8  18
ATOM     18  C   UNL     1      -0.767  11.952  20.014  0.00  0.00    +0.000 C 
BRANCH  18  19
ATOM     19  C   UNL     1      -0.235  10.688  20.657  0.00  0.00    +0.000 A 
ATOM     20  C   UNL     1       0.568   9.758  19.980  0.00  0.00    +0.000 A 
ATOM     21  C   UNL     1       1.155   8.728  20.700  0.00  0.00    +0.000 A 
ATOM     22  N   UNL     1       1.019   8.549  22.028  0.00  0.00    +0.000 NA
ATOM     23  C   UNL     1       0.250   9.454  22.675  0.00  0.00    +0.000 A 
ATOM     24  F   UNL     1       0.133   9.331  24.004  0.00  0.00    +0.000 F 
ATOM     25  C   UNL     1      -0.379  10.512  22.051  0.00  0.00    +0.000 A 
ENDBRANCH  18  19
BRANCH  18  26
ATOM     26  O   UNL     1      -0.030  13.079  20.495  0.00  0.00    +0.000 OA
ATOM     27  H   UNL     1       0.105  12.977  21.446  0.00  0.00    +0.000 HD
ENDBRANCH  18  26
ENDBRANCH   8  18
TORSDOF 3
ENDMDL
MODEL 9
REMARK VINA RESULT:      -7.2      8.521     11.936
REMARK  Name = 
REMARK  5 active torsions:
REMARK  status: ('A' for Active; 'I' for Inactive)
REMARK    1  A    between atoms: C_1  and  C_2
REMARK    2  A    between atoms: C_8  and  C_9
REMARK    3  A    between atoms: C_9  and  O_10
REMARK    4  A    between atoms: C_9  and  C_11
REMARK    5  A    between atoms: C_19  and  C_20
REMARK                            x       y       z     vdW  Elec       q    Type
REMARK                         _______ _______ _______ _____ _____    ______ ____
ROOT
ATOM      1  C   UNL     1      -6.827  11.921  18.011  0.00  0.00    +0.000 C 
ATOM      2  C   UNL     1      -5.328  11.751  17.962  0.00  0.00    +0.000 A 
ATOM      3  C   UNL     1      -4.740  11.309  16.773  0.00  0.00    +0.000 A 
ATOM      4  C   UNL     1      -3.370  11.162  16.712  0.00  0.00    +0.000 A 
ATOM      5 CL   UNL     1      -2.629  10.628  15.253  0.00  0.00    +0.000 Cl
ATOM      6  C   UNL     1      -2.582  11.459  17.824  0.00  0.00    +0.000 A 
ATOM      7  C   UNL     1      -3.131  11.932  19.051  0.00  0.00    +0.000 A 
ATOM      8  C   UNL     1      -2.346  12.307  20.232  0.00  0.00    +0.000 A 
ATOM      9  C   UNL     1      -3.092  12.823  21.339  0.00  0.00    +0.000 A 
ATOM     10  C   UNL     1      -2.912  13.416  22.641  0.00  0.00    +0.000 A 
ATOM     11  C   UNL     1      -1.696  13.820  23.400  0.00  0.00    +0.000 C 
ATOM     12  N   UNL     1      -4.082  13.679  23.248  0.00  0.00    +0.000 NA
ATOM     13  N   UNL     1      -5.001  13.309  22.359  0.00  0.00    +0.000 N 
ATOM     14  C   UNL     1      -4.471  12.827  21.200  0.00  0.00    +0.000 A 
ATOM     15  N   UNL     1      -5.215  12.461  20.159  0.00  0.00    +0.000 NA
ATOM     16  C   UNL     1      -4.549  12.054  19.090  0.00  0.00    +0.000 A 
ATOM     17  H   UNL     1      -5.983  13.428  22.575  0.00  0.00    +0.000 HD
ENDROOT
BRANCH   8  18
ATOM     18  C   UNL     1      -0.818  12.167  20.197  0.00  0.00    +0.000 C 
BRANCH  18  19
ATOM     19  C   UNL     1      -0.168  11.011  20.927  0.00  0.00    +0.000 A 
ATOM     20  C   UNL     1      -0.451  10.683  22.262  0.00  0.00    +0.000 A 
ATOM     21  C   UNL     1       0.054   9.503  22.786  0.00  0.00    +0.000 A 
ATOM     22  N   UNL     1       0.807   8.622  22.100  0.00  0.00    +0.000 NA
ATOM     23  C   UNL     1       1.069   8.940  20.812  0.00  0.00    +0.000 A 
ATOM     24  F   UNL     1       1.777   8.061  20.088  0.00  0.00    +0.000 F 
ATOM     25  C   UNL     1       0.616  10.090  20.197  0.00  0.00    +0.000 A 
ENDBRANCH  18  19
BRANCH  18  26
ATOM     26  O   UNL     1      -0.166  13.387  20.559  0.00  0.00    +0.000 OA
ATOM     27  H   UNL     1       0.786  13.229  20.599  0.00  0.00    +0.000 HD
ENDBRANCH  18  26
ENDBRANCH   8  18
TORSDOF 3
ENDMDL
