MODEL 1
REMARK VINA RESULT:      -7.4      0.000      0.000
REMARK  Name = 
REMARK  3 active torsions:
REMARK  status: ('A' for Active; 'I' for Inactive)
REMARK    1  A    between atoms: C_1  and  C_2
REMARK    2  A    between atoms: C_2  and  N_3
REMARK    3  A    between atoms: C_2  and  C_15
REMARK                            x       y       z     vdW  Elec       q    Type
REMARK                         _______ _______ _______ _____ _____    ______ ____
ROOT
ATOM      1  N   UNL     1       3.366   6.199  19.531  0.00  0.00    +0.000 N 
ATOM      2  C   UNL     1       3.754   5.401  18.483  0.00  0.00    +0.000 C 
ATOM      3  O   UNL     1       2.944   4.775  17.805  0.00  0.00    +0.000 OA
ATOM      4  N   UNL     1       5.123   5.322  18.265  0.00  0.00    +0.000 N 
ATOM      5  C   UNL     1       5.526   4.372  17.224  0.00  0.00    +0.000 C 
ATOM      6  C   UNL     1       6.997   4.486  16.807  0.00  0.00    +0.000 C 
ATOM      7  C   UNL     1       7.307   5.771  16.020  0.00  0.00    +0.000 C 
ATOM      8  O   UNL     1       7.187   6.952  16.826  0.00  0.00    +0.000 OA
ATOM      9  C   UNL     1       7.962   6.823  18.023  0.00  0.00    +0.000 C 
ATOM     10  C   UNL     1       7.586   5.558  18.808  0.00  0.00    +0.000 C 
ATOM     11  C   UNL     1       6.125   5.559  19.314  0.00  0.00    +0.000 C 
ATOM     12  O   UNL     1       7.836   4.403  17.980  0.00  0.00    +0.000 OA
ATOM     13  H   UNL     1       3.919   7.032  19.649  0.00  0.00    +0.000 HD
ENDROOT
BRANCH   1  15
ATOM     14  C   UNL     1       1.520   5.412  20.964  0.00  0.00    +0.000 C 
ATOM     15  C   UNL     1       1.943   6.342  19.827  0.00  0.00    +0.000 C 
BRANCH  15  16
ATOM     16  C   UNL     1       1.567   7.787  20.106  0.00  0.00    +0.000 A 
ATOM     17  C   UNL     1       1.262   8.193  21.415  0.00  0.00    +0.000 A 
ATOM     18  C   UNL     1       0.873   9.508  21.684  0.00  0.00    +0.000 A 
ATOM     19  C   UNL     1       0.785  10.431  20.643  0.00  0.00    +0.000 A 
ATOM     20 BR   UNL     1       0.212  12.196  21.001  0.00  0.00    +0.000 Br
ATOM     21  C   UNL     1       1.103  10.057  19.340  0.00  0.00    +0.000 A 
ATOM     22  C   UNL     1       1.493   8.744  19.086  0.00  0.00    +0.000 A 
ATOM     23  F   UNL     1       1.783   8.396  17.823  0.00  0.00    +0.000 F 
ENDBRANCH  15  16
ENDBRANCH   1  15
TORSDOF 2
ENDMDL
MODEL 2
REMARK VINA RESULT:      -7.0      2.755      4.105
REMARK  Name = 
REMARK  3 active torsions:
REMARK  status: ('A' for Active; 'I' for Inactive)
REMARK    1  A    between atoms: C_1  and  C_2
REMARK    2  A    between atoms: C_2  and  N_3
REMARK    3  A    between atoms: C_2  and  C_15
REMARK                            x       y       z     vdW  Elec       q    Type
REMARK                         _______ _______ _______ _____ _____    ______ ____
ROOT
ATOM      1  N   UNL     1       1.993   7.005  18.805  0.00  0.00    +0.000 N 
ATOM      2  C   UNL     1       3.038   6.235  18.356  0.00  0.00    +0.000 C 
ATOM      3  O   UNL     1       4.087   6.730  17.953  0.00  0.00    +0.000 OA
ATOM      4  N   UNL     1       2.816   4.865  18.355  0.00  0.00    +0.000 N 
ATOM      5  C   UNL     1       3.891   4.068  17.759  0.00  0.00    +0.000 C 
ATOM      6  C   UNL     1       3.762   2.559  18.002  0.00  0.00    +0.000 C 
ATOM      7  C   UNL     1       4.018   2.157  19.466  0.00  0.00    +0.000 C 
ATOM      8  O   UNL     1       2.999   2.638  20.354  0.00  0.00    +0.000 OA
ATOM      9  C   UNL     1       1.702   2.257  19.882  0.00  0.00    +0.000 C 
ATOM     10  C   UNL     1       1.464   2.724  18.439  0.00  0.00    +0.000 C 
ATOM     11  C   UNL     1       1.478   4.262  18.279  0.00  0.00    +0.000 C 
ATOM     12  O   UNL     1       2.454   2.116  17.582  0.00  0.00    +0.000 OA
ATOM     13  H   UNL     1       1.477   6.603  19.570  0.00  0.00    +0.000 HD
ENDROOT
BRANCH   1  15
ATOM     14  C   UNL     1       1.954   9.069  17.456  0.00  0.00    +0.000 C 
ATOM     15  C   UNL     1       2.145   8.457  18.844  0.00  0.00    +0.000 C 
BRANCH  15  16
ATOM     16  C   UNL     1       1.229   9.093  19.875  0.00  0.00    +0.000 A 
ATOM     17  C   UNL     1       0.572  10.298  19.582  0.00  0.00    +0.000 A 
ATOM     18  C   UNL     1      -0.241  10.920  20.534  0.00  0.00    +0.000 A 
ATOM     19  C   UNL     1      -0.403  10.340  21.791  0.00  0.00    +0.000 A 
ATOM     20 BR   UNL     1      -1.464  11.207  23.093  0.00  0.00    +0.000 Br
ATOM     21  C   UNL     1       0.222   9.135  22.098  0.00  0.00    +0.000 A 
ATOM     22  C   UNL     1       1.027   8.524  21.139  0.00  0.00    +0.000 A 
ATOM     23  F   UNL     1       1.633   7.368  21.455  0.00  0.00    +0.000 F 
ENDBRANCH  15  16
ENDBRANCH   1  15
TORSDOF 2
ENDMDL
MODEL 3
REMARK VINA RESULT:      -6.9      3.037      4.504
REMARK  Name = 
REMARK  3 active torsions:
REMARK  status: ('A' for Active; 'I' for Inactive)
REMARK    1  A    between atoms: C_1  and  C_2
REMARK    2  A    between atoms: C_2  and  N_3
REMARK    3  A    between atoms: C_2  and  C_15
REMARK                            x       y       z     vdW  Elec       q    Type
REMARK                         _______ _______ _______ _____ _____    ______ ____
ROOT
ATOM      1  N   UNL     1       1.740   6.981  19.634  0.00  0.00    +0.000 N 
ATOM      2  C   UNL     1       2.736   6.111  19.262  0.00  0.00    +0.000 C 
ATOM      3  O   UNL     1       3.759   6.493  18.701  0.00  0.00    +0.000 OA
ATOM      4  N   UNL     1       2.494   4.771  19.533  0.00  0.00    +0.000 N 
ATOM      5  C   UNL     1       3.509   3.847  19.020  0.00  0.00    +0.000 C 
ATOM      6  C   UNL     1       3.376   2.414  19.548  0.00  0.00    +0.000 C 
ATOM      7  C   UNL     1       3.734   2.281  21.039  0.00  0.00    +0.000 C 
ATOM      8  O   UNL     1       2.792   2.947  21.893  0.00  0.00    +0.000 OA
ATOM      9  C   UNL     1       1.458   2.523  21.593  0.00  0.00    +0.000 C 
ATOM     10  C   UNL     1       1.120   2.723  20.109  0.00  0.00    +0.000 C 
ATOM     11  C   UNL     1       1.145   4.204  19.665  0.00  0.00    +0.000 C 
ATOM     12  O   UNL     1       2.033   1.939  19.312  0.00  0.00    +0.000 OA
ATOM     13  H   UNL     1       1.276   6.742  20.494  0.00  0.00    +0.000 HD
ENDROOT
BRANCH   1  15
ATOM     14  C   UNL     1       1.785   8.737  17.904  0.00  0.00    +0.000 C 
ATOM     15  C   UNL     1       1.916   8.410  19.391  0.00  0.00    +0.000 C 
BRANCH  15  16
ATOM     16  C   UNL     1       0.977   9.247  20.241  0.00  0.00    +0.000 A 
ATOM     17  C   UNL     1       0.097  10.154  19.629  0.00  0.00    +0.000 A 
ATOM     18  C   UNL     1      -0.745  10.963  20.399  0.00  0.00    +0.000 A 
ATOM     19  C   UNL     1      -0.712  10.873  21.789  0.00  0.00    +0.000 A 
ATOM     20 BR   UNL     1      -1.816  12.002  22.828  0.00  0.00    +0.000 Br
ATOM     21  C   UNL     1       0.138   9.966  22.417  0.00  0.00    +0.000 A 
ATOM     22  C   UNL     1       0.969   9.163  21.639  0.00  0.00    +0.000 A 
ATOM     23  F   UNL     1       1.791   8.303  22.260  0.00  0.00    +0.000 F 
ENDBRANCH  15  16
ENDBRANCH   1  15
TORSDOF 2
ENDMDL
MODEL 4
REMARK VINA RESULT:      -6.8      2.900      4.237
REMARK  Name = 
REMARK  3 active torsions:
REMARK  status: ('A' for Active; 'I' for Inactive)
REMARK    1  A    between atoms: C_1  and  C_2
REMARK    2  A    between atoms: C_2  and  N_3
REMARK    3  A    between atoms: C_2  and  C_15
REMARK                            x       y       z     vdW  Elec       q    Type
REMARK                         _______ _______ _______ _____ _____    ______ ____
ROOT
ATOM      1  N   UNL     1       1.826   6.927  19.548  0.00  0.00    +0.000 N 
ATOM      2  C   UNL     1       2.799   6.075  19.084  0.00  0.00    +0.000 C 
ATOM      3  O   UNL     1       3.772   6.477  18.455  0.00  0.00    +0.000 OA
ATOM      4  N   UNL     1       2.589   4.727  19.346  0.00  0.00    +0.000 N 
ATOM      5  C   UNL     1       3.570   3.823  18.739  0.00  0.00    +0.000 C 
ATOM      6  C   UNL     1       3.489   2.379  19.247  0.00  0.00    +0.000 C 
ATOM      7  C   UNL     1       3.962   2.221  20.703  0.00  0.00    +0.000 C 
ATOM      8  O   UNL     1       3.082   2.861  21.639  0.00  0.00    +0.000 OA
ATOM      9  C   UNL     1       1.732   2.430  21.434  0.00  0.00    +0.000 C 
ATOM     10  C   UNL     1       1.280   2.655  19.984  0.00  0.00    +0.000 C 
ATOM     11  C   UNL     1       1.259   4.144  19.569  0.00  0.00    +0.000 C 
ATOM     12  O   UNL     1       2.136   1.895  19.104  0.00  0.00    +0.000 OA
ATOM     13  H   UNL     1       1.432   6.667  20.437  0.00  0.00    +0.000 HD
ENDROOT
BRANCH   1  15
ATOM     14  C   UNL     1       1.690   8.721  17.862  0.00  0.00    +0.000 C 
ATOM     15  C   UNL     1       1.972   8.362  19.321  0.00  0.00    +0.000 C 
BRANCH  15  16
ATOM     16  C   UNL     1       1.120   9.175  20.280  0.00  0.00    +0.000 A 
ATOM     17  C   UNL     1       0.448   8.537  21.335  0.00  0.00    +0.000 A 
ATOM     18  C   UNL     1      -0.373   9.263  22.203  0.00  0.00    +0.000 A 
ATOM     19  C   UNL     1      -0.531  10.635  22.021  0.00  0.00    +0.000 A 
ATOM     20 BR   UNL     1      -1.681  11.605  23.166  0.00  0.00    +0.000 Br
ATOM     21  C   UNL     1       0.141  11.293  20.995  0.00  0.00    +0.000 A 
ATOM     22  C   UNL     1       0.960  10.559  20.140  0.00  0.00    +0.000 A 
ATOM     23  F   UNL     1       1.591  11.206  19.147  0.00  0.00    +0.000 F 
ENDBRANCH  15  16
ENDBRANCH   1  15
TORSDOF 2
ENDMDL
MODEL 5
REMARK VINA RESULT:      -6.6      3.274      4.902
REMARK  Name = 
REMARK  3 active torsions:
REMARK  status: ('A' for Active; 'I' for Inactive)
REMARK    1  A    between atoms: C_1  and  C_2
REMARK    2  A    between atoms: C_2  and  N_3
REMARK    3  A    between atoms: C_2  and  C_15
REMARK                            x       y       z     vdW  Elec       q    Type
REMARK                         _______ _______ _______ _____ _____    ______ ____
ROOT
ATOM      1  N   UNL     1       1.822   8.768  18.701  0.00  0.00    +0.000 N 
ATOM      2  C   UNL     1       1.828   7.893  19.760  0.00  0.00    +0.000 C 
ATOM      3  O   UNL     1       1.512   8.241  20.894  0.00  0.00    +0.000 OA
ATOM      4  N   UNL     1       2.246   6.601  19.469  0.00  0.00    +0.000 N 
ATOM      5  C   UNL     1       2.363   5.716  20.631  0.00  0.00    +0.000 C 
ATOM      6  C   UNL     1       2.562   4.238  20.275  0.00  0.00    +0.000 C 
ATOM      7  C   UNL     1       1.307   3.586  19.666  0.00  0.00    +0.000 C 
ATOM      8  O   UNL     1       0.989   4.112  18.370  0.00  0.00    +0.000 OA
ATOM      9  C   UNL     1       2.131   4.048  17.509  0.00  0.00    +0.000 C 
ATOM     10  C   UNL     1       3.346   4.756  18.126  0.00  0.00    +0.000 C 
ATOM     11  C   UNL     1       3.131   6.272  18.342  0.00  0.00    +0.000 C 
ATOM     12  O   UNL     1       3.681   4.109  19.372  0.00  0.00    +0.000 OA
ATOM     13  H   UNL     1       1.544   8.360  17.824  0.00  0.00    +0.000 HD
ENDROOT
BRANCH   1  15
ATOM     14  C   UNL     1       2.277  11.128  18.153  0.00  0.00    +0.000 C 
ATOM     15  C   UNL     1       1.391  10.145  18.918  0.00  0.00    +0.000 C 
BRANCH  15  16
ATOM     16  C   UNL     1      -0.080  10.335  18.593  0.00  0.00    +0.000 A 
ATOM     17  C   UNL     1      -0.650   9.659  17.502  0.00  0.00    +0.000 A 
ATOM     18  C   UNL     1      -1.992   9.854  17.162  0.00  0.00    +0.000 A 
ATOM     19  C   UNL     1      -2.777  10.728  17.912  0.00  0.00    +0.000 A 
ATOM     20 BR   UNL     1      -4.577  11.026  17.421  0.00  0.00    +0.000 Br
ATOM     21  C   UNL     1      -2.239  11.393  19.010  0.00  0.00    +0.000 A 
ATOM     22  C   UNL     1      -0.901  11.188  19.340  0.00  0.00    +0.000 A 
ATOM     23  F   UNL     1      -0.395  11.846  20.395  0.00  0.00    +0.000 F 
ENDBRANCH  15  16
ENDBRANCH   1  15
TORSDOF 2
ENDMDL
MODEL 6
REMARK VINA RESULT:      -6.6      3.773      6.438
REMARK  Name = 
REMARK  3 active torsions:
REMARK  status: ('A' for Active; 'I' for Inactive)
REMARK    1  A    between atoms: C_1  and  C_2
REMARK    2  A    between atoms: C_2  and  N_3
REMARK    3  A    between atoms: C_2  and  C_15
REMARK                            x       y       z     vdW  Elec       q    Type
REMARK                         _______ _______ _______ _____ _____    ______ ____
ROOT
ATOM      1  N   UNL     1       5.014   4.978  17.519  0.00  0.00    +0.000 N 
ATOM      2  C   UNL     1       4.919   3.940  18.415  0.00  0.00    +0.000 C 
ATOM      3  O   UNL     1       5.871   3.206  18.665  0.00  0.00    +0.000 OA
ATOM      4  N   UNL     1       3.669   3.757  18.990  0.00  0.00    +0.000 N 
ATOM      5  C   UNL     1       3.554   2.574  19.847  0.00  0.00    +0.000 C 
ATOM      6  C   UNL     1       2.269   2.528  20.682  0.00  0.00    +0.000 C 
ATOM      7  C   UNL     1       2.237   3.579  21.806  0.00  0.00    +0.000 C 
ATOM      8  O   UNL     1       2.156   4.920  21.302  0.00  0.00    +0.000 OA
ATOM      9  C   UNL     1       1.066   5.044  20.382  0.00  0.00    +0.000 C 
ATOM     10  C   UNL     1       1.162   4.016  19.247  0.00  0.00    +0.000 C 
ATOM     11  C   UNL     1       2.416   4.194  18.359  0.00  0.00    +0.000 C 
ATOM     12  O   UNL     1       1.127   2.689  19.813  0.00  0.00    +0.000 OA
ATOM     13  H   UNL     1       4.475   5.792  17.765  0.00  0.00    +0.000 HD
ENDROOT
BRANCH   1  15
ATOM     14  C   UNL     1       6.132   5.367  15.357  0.00  0.00    +0.000 C 
ATOM     15  C   UNL     1       6.295   5.243  16.871  0.00  0.00    +0.000 C 
BRANCH  15  16
ATOM     16  C   UNL     1       6.989   6.455  17.468  0.00  0.00    +0.000 A 
ATOM     17  C   UNL     1       6.765   7.730  16.926  0.00  0.00    +0.000 A 
ATOM     18  C   UNL     1       7.427   8.851  17.436  0.00  0.00    +0.000 A 
ATOM     19  C   UNL     1       8.322   8.705  18.494  0.00  0.00    +0.000 A 
ATOM     20 BR   UNL     1       9.253  10.214  19.149  0.00  0.00    +0.000 Br
ATOM     21  C   UNL     1       8.545   7.453  19.061  0.00  0.00    +0.000 A 
ATOM     22  C   UNL     1       7.876   6.345  18.546  0.00  0.00    +0.000 A 
ATOM     23  F   UNL     1       8.111   5.144  19.097  0.00  0.00    +0.000 F 
ENDBRANCH  15  16
ENDBRANCH   1  15
TORSDOF 2
ENDMDL
MODEL 7
REMARK VINA RESULT:      -6.4      4.082      7.395
REMARK  Name = 
REMARK  3 active torsions:
REMARK  status: ('A' for Active; 'I' for Inactive)
REMARK    1  A    between atoms: C_1  and  C_2
REMARK    2  A    between atoms: C_2  and  N_3
REMARK    3  A    between atoms: C_2  and  C_15
REMARK                            x       y       z     vdW  Elec       q    Type
REMARK                         _______ _______ _______ _____ _____    ______ ____
ROOT
ATOM      1  N   UNL     1       2.178   7.617  19.374  0.00  0.00    +0.000 N 
ATOM      2  C   UNL     1       1.513   8.247  20.397  0.00  0.00    +0.000 C 
ATOM      3  O   UNL     1       1.409   7.746  21.513  0.00  0.00    +0.000 OA
ATOM      4  N   UNL     1       0.938   9.469  20.076  0.00  0.00    +0.000 N 
ATOM      5  C   UNL     1       0.129  10.068  21.141  0.00  0.00    +0.000 C 
ATOM      6  C   UNL     1      -0.275  11.523  20.879  0.00  0.00    +0.000 C 
ATOM      7  C   UNL     1       0.907  12.506  20.964  0.00  0.00    +0.000 C 
ATOM      8  O   UNL     1       1.855  12.318  19.903  0.00  0.00    +0.000 OA
ATOM      9  C   UNL     1       1.195  12.337  18.632  0.00  0.00    +0.000 C 
ATOM     10  C   UNL     1       0.059  11.306  18.568  0.00  0.00    +0.000 C 
ATOM     11  C   UNL     1       0.545   9.844  18.710  0.00  0.00    +0.000 C 
ATOM     12  O   UNL     1      -0.914  11.618  19.588  0.00  0.00    +0.000 OA
ATOM     13  H   UNL     1       2.680   8.236  18.759  0.00  0.00    +0.000 HD
ENDROOT
BRANCH   1  15
ATOM     14  C   UNL     1       1.778   5.221  19.796  0.00  0.00    +0.000 C 
ATOM     15  C   UNL     1       2.817   6.329  19.627  0.00  0.00    +0.000 C 
BRANCH  15  16
ATOM     16  C   UNL     1       3.843   5.988  18.561  0.00  0.00    +0.000 A 
ATOM     17  C   UNL     1       3.984   6.813  17.433  0.00  0.00    +0.000 A 
ATOM     18  C   UNL     1       4.893   6.491  16.421  0.00  0.00    +0.000 A 
ATOM     19  C   UNL     1       5.670   5.339  16.528  0.00  0.00    +0.000 A 
ATOM     20 BR   UNL     1       6.863   4.881  15.135  0.00  0.00    +0.000 Br
ATOM     21  C   UNL     1       5.562   4.517  17.646  0.00  0.00    +0.000 A 
ATOM     22  C   UNL     1       4.655   4.851  18.649  0.00  0.00    +0.000 A 
ATOM     23  F   UNL     1       4.554   4.041  19.715  0.00  0.00    +0.000 F 
ENDBRANCH  15  16
ENDBRANCH   1  15
TORSDOF 2
ENDMDL
MODEL 8
REMARK VINA RESULT:      -6.3      5.372      7.939
REMARK  Name = 
REMARK  3 active torsions:
REMARK  status: ('A' for Active; 'I' for Inactive)
REMARK    1  A    between atoms: C_1  and  C_2
REMARK    2  A    between atoms: C_2  and  N_3
REMARK    3  A    between atoms: C_2  and  C_15
REMARK                            x       y       z     vdW  Elec       q    Type
REMARK                         _______ _______ _______ _____ _____    ______ ____
ROOT
ATOM      1  N   UNL     1       0.855  11.857  19.159  0.00  0.00    +0.000 N 
ATOM      2  C   UNL     1       1.518  12.501  20.175  0.00  0.00    +0.000 C 
ATOM      3  O   UNL     1       1.544  12.058  21.320  0.00  0.00    +0.000 OA
ATOM      4  N   UNL     1       2.127  13.699  19.829  0.00  0.00    +0.000 N 
ATOM      5  C   UNL     1       2.723  14.432  20.949  0.00  0.00    +0.000 C 
ATOM      6  C   UNL     1       3.616  15.605  20.527  0.00  0.00    +0.000 C 
ATOM      7  C   UNL     1       4.934  15.158  19.870  0.00  0.00    +0.000 C 
ATOM      8  O   UNL     1       4.728  14.533  18.595  0.00  0.00    +0.000 OA
ATOM      9  C   UNL     1       3.932  15.370  17.749  0.00  0.00    +0.000 C 
ATOM     10  C   UNL     1       2.602  15.748  18.417  0.00  0.00    +0.000 C 
ATOM     11  C   UNL     1       1.688  14.534  18.702  0.00  0.00    +0.000 C 
ATOM     12  O   UNL     1       2.880  16.471  19.635  0.00  0.00    +0.000 OA
ATOM     13  H   UNL     1       1.301  11.926  18.260  0.00  0.00    +0.000 HD
ENDROOT
BRANCH   1  15
ATOM     14  C   UNL     1      -1.120  10.469  18.658  0.00  0.00    +0.000 C 
ATOM     15  C   UNL     1       0.191  10.587  19.435  0.00  0.00    +0.000 C 
BRANCH  15  16
ATOM     16  C   UNL     1       1.109   9.403  19.182  0.00  0.00    +0.000 A 
ATOM     17  C   UNL     1       1.718   9.243  17.927  0.00  0.00    +0.000 A 
ATOM     18  C   UNL     1       2.532   8.138  17.664  0.00  0.00    +0.000 A 
ATOM     19  C   UNL     1       2.743   7.181  18.655  0.00  0.00    +0.000 A 
ATOM     20 BR   UNL     1       3.805   5.663  18.280  0.00  0.00    +0.000 Br
ATOM     21  C   UNL     1       2.167   7.329  19.913  0.00  0.00    +0.000 A 
ATOM     22  C   UNL     1       1.361   8.437  20.164  0.00  0.00    +0.000 A 
ATOM     23  F   UNL     1       0.802   8.559  21.379  0.00  0.00    +0.000 F 
ENDBRANCH  15  16
ENDBRANCH   1  15
TORSDOF 2
ENDMDL
MODEL 9
REMARK VINA RESULT:      -6.2      1.064      1.495
REMARK  Name = 
REMARK  3 active torsions:
REMARK  status: ('A' for Active; 'I' for Inactive)
REMARK    1  A    between atoms: C_1  and  C_2
REMARK    2  A    between atoms: C_2  and  N_3
REMARK    3  A    between atoms: C_2  and  C_15
REMARK                            x       y       z     vdW  Elec       q    Type
REMARK                         _______ _______ _______ _____ _____    ______ ____
ROOT
ATOM      1  N   UNL     1       3.336   6.416  19.439  0.00  0.00    +0.000 N 
ATOM      2  C   UNL     1       3.714   5.555  18.438  0.00  0.00    +0.000 C 
ATOM      3  O   UNL     1       2.894   4.929  17.773  0.00  0.00    +0.000 OA
ATOM      4  N   UNL     1       5.083   5.414  18.253  0.00  0.00    +0.000 N 
ATOM      5  C   UNL     1       5.469   4.402  17.267  0.00  0.00    +0.000 C 
ATOM      6  C   UNL     1       6.951   4.441  16.876  0.00  0.00    +0.000 C 
ATOM      7  C   UNL     1       7.325   5.675  16.036  0.00  0.00    +0.000 C 
ATOM      8  O   UNL     1       7.235   6.896  16.784  0.00  0.00    +0.000 OA
ATOM      9  C   UNL     1       7.982   6.795  18.002  0.00  0.00    +0.000 C 
ATOM     10  C   UNL     1       7.542   5.584  18.837  0.00  0.00    +0.000 C 
ATOM     11  C   UNL     1       6.072   5.663  19.311  0.00  0.00    +0.000 C 
ATOM     12  O   UNL     1       7.763   4.382  18.069  0.00  0.00    +0.000 OA
ATOM     13  H   UNL     1       3.918   7.232  19.530  0.00  0.00    +0.000 HD
ENDROOT
BRANCH   1  15
ATOM     14  C   UNL     1       1.494   5.988  21.022  0.00  0.00    +0.000 C 
ATOM     15  C   UNL     1       1.915   6.626  19.698  0.00  0.00    +0.000 C 
BRANCH  15  16
ATOM     16  C   UNL     1       1.540   8.096  19.632  0.00  0.00    +0.000 A 
ATOM     17  C   UNL     1       1.643   8.793  18.417  0.00  0.00    +0.000 A 
ATOM     18  C   UNL     1       1.343  10.157  18.347  0.00  0.00    +0.000 A 
ATOM     19  C   UNL     1       0.937  10.836  19.494  0.00  0.00    +0.000 A 
ATOM     20 BR   UNL     1       0.579  12.690  19.407  0.00  0.00    +0.000 Br
ATOM     21  C   UNL     1       0.808  10.162  20.705  0.00  0.00    +0.000 A 
ATOM     22  C   UNL     1       1.107   8.802  20.761  0.00  0.00    +0.000 A 
ATOM     23  F   UNL     1       0.989   8.170  21.939  0.00  0.00    +0.000 F 
ENDBRANCH  15  16
ENDBRANCH   1  15
TORSDOF 2
ENDMDL
