MODEL 1
REMARK VINA RESULT:      -6.5      0.000      0.000
REMARK  Name = 
REMARK  6 active torsions:
REMARK  status: ('A' for Active; 'I' for Inactive)
REMARK    1  A    between atoms: C_1  and  O_2
REMARK    2  A    between atoms: O_2  and  C_3
REMARK    3  A    between atoms: C_3  and  C_5
REMARK    4  A    between atoms: C_5  and  C_7
REMARK    5  A    between atoms: C_8  and  O_9
REMARK    6  A    between atoms: C_8  and  C_10
REMARK                            x       y       z     vdW  Elec       q    Type
REMARK                         _______ _______ _______ _____ _____    ______ ____
ROOT
ATOM      1  C   UNL     1       5.548   4.500  15.127  0.00  0.00    +0.000 C 
ATOM      2  C   UNL     1       5.751   4.221  16.426  0.00  0.00    +0.000 C 
ENDROOT
BRANCH   2   3
ATOM      3  C   UNL     1       4.642   4.049  17.392  0.00  0.00    +0.000 A 
ATOM      4  C   UNL     1       4.816   4.246  18.772  0.00  0.00    +0.000 A 
ATOM      5  C   UNL     1       3.751   4.084  19.664  0.00  0.00    +0.000 A 
ATOM      6  C   UNL     1       2.493   3.731  19.182  0.00  0.00    +0.000 A 
ATOM      7 BR   UNL     1       1.052   3.519  20.386  0.00  0.00    +0.000 Br
ATOM      8  C   UNL     1       2.293   3.541  17.819  0.00  0.00    +0.000 A 
ATOM      9  C   UNL     1       3.361   3.703  16.932  0.00  0.00    +0.000 A 
ENDBRANCH   2   3
BRANCH   1  10
ATOM     10  C   UNL     1       6.669   4.681  14.170  0.00  0.00    +0.000 C 
ATOM     11  N   UNL     1       7.728   5.387  14.461  0.00  0.00    +0.000 NA
ATOM     12  H   UNL     1       8.360   5.366  13.643  0.00  0.00    +0.000 HD
BRANCH  10  13
ATOM     13  C   UNL     1       6.519   3.986  12.809  0.00  0.00    +0.000 C 
ATOM     14  O   UNL     1       7.277   4.176  11.877  0.00  0.00    +0.000 OA
BRANCH  13  16
ATOM     15  C   UNL     1       4.648   3.234  11.654  0.00  0.00    +0.000 C 
ATOM     16  O   UNL     1       5.442   3.171  12.841  0.00  0.00    +0.000 OA
ENDBRANCH  13  16
ENDBRANCH  10  13
ENDBRANCH   1  10
BRANCH   2  17
ATOM     17  O   UNL     1       7.016   4.098  16.974  0.00  0.00    +0.000 OA
ATOM     18  H   UNL     1       7.433   4.992  16.951  0.00  0.00    +0.000 HD
ENDBRANCH   2  17
TORSDOF 5
ENDMDL
MODEL 2
REMARK VINA RESULT:      -6.5      0.104      1.205
REMARK  Name = 
REMARK  6 active torsions:
REMARK  status: ('A' for Active; 'I' for Inactive)
REMARK    1  A    between atoms: C_1  and  O_2
REMARK    2  A    between atoms: O_2  and  C_3
REMARK    3  A    between atoms: C_3  and  C_5
REMARK    4  A    between atoms: C_5  and  C_7
REMARK    5  A    between atoms: C_8  and  O_9
REMARK    6  A    between atoms: C_8  and  C_10
REMARK                            x       y       z     vdW  Elec       q    Type
REMARK                         _______ _______ _______ _____ _____    ______ ____
ROOT
ATOM      1  C   UNL     1       5.523   4.530  15.123  0.00  0.00    +0.000 C 
ATOM      2  C   UNL     1       5.711   4.242  16.423  0.00  0.00    +0.000 C 
ENDROOT
BRANCH   2   3
ATOM      3  C   UNL     1       4.591   4.097  17.381  0.00  0.00    +0.000 A 
ATOM      4  C   UNL     1       3.336   3.600  16.993  0.00  0.00    +0.000 A 
ATOM      5  C   UNL     1       2.295   3.465  17.919  0.00  0.00    +0.000 A 
ATOM      6  C   UNL     1       2.505   3.819  19.249  0.00  0.00    +0.000 A 
ATOM      7 BR   UNL     1       1.101   3.630  20.501  0.00  0.00    +0.000 Br
ATOM      8  C   UNL     1       3.741   4.302  19.661  0.00  0.00    +0.000 A 
ATOM      9  C   UNL     1       4.777   4.436  18.732  0.00  0.00    +0.000 A 
ENDBRANCH   2   3
BRANCH   1  10
ATOM     10  C   UNL     1       6.655   4.684  14.174  0.00  0.00    +0.000 C 
ATOM     11  N   UNL     1       7.723   5.376  14.468  0.00  0.00    +0.000 NA
ATOM     12  H   UNL     1       8.361   5.337  13.655  0.00  0.00    +0.000 HD
BRANCH  10  13
ATOM     13  C   UNL     1       6.504   3.980  12.818  0.00  0.00    +0.000 C 
ATOM     14  O   UNL     1       7.280   4.139  11.894  0.00  0.00    +0.000 OA
BRANCH  13  16
ATOM     15  C   UNL     1       4.652   3.236  11.629  0.00  0.00    +0.000 C 
ATOM     16  O   UNL     1       5.405   3.195  12.843  0.00  0.00    +0.000 OA
ENDBRANCH  13  16
ENDBRANCH  10  13
ENDBRANCH   1  10
BRANCH   2  17
ATOM     17  O   UNL     1       6.969   4.087  16.979  0.00  0.00    +0.000 OA
ATOM     18  H   UNL     1       7.553   4.771  16.576  0.00  0.00    +0.000 HD
ENDBRANCH   2  17
TORSDOF 5
ENDMDL
MODEL 3
REMARK VINA RESULT:      -6.4      1.273      1.293
REMARK  Name = 
REMARK  6 active torsions:
REMARK  status: ('A' for Active; 'I' for Inactive)
REMARK    1  A    between atoms: C_1  and  O_2
REMARK    2  A    between atoms: O_2  and  C_3
REMARK    3  A    between atoms: C_3  and  C_5
REMARK    4  A    between atoms: C_5  and  C_7
REMARK    5  A    between atoms: C_8  and  O_9
REMARK    6  A    between atoms: C_8  and  C_10
REMARK                            x       y       z     vdW  Elec       q    Type
REMARK                         _______ _______ _______ _____ _____    ______ ____
ROOT
ATOM      1  C   UNL     1       5.735   4.329  15.184  0.00  0.00    +0.000 C 
ATOM      2  C   UNL     1       5.165   5.314  15.899  0.00  0.00    +0.000 C 
ENDROOT
BRANCH   2   3
ATOM      3  C   UNL     1       4.215   5.055  17.005  0.00  0.00    +0.000 A 
ATOM      4  C   UNL     1       3.697   6.089  17.803  0.00  0.00    +0.000 A 
ATOM      5  C   UNL     1       2.795   5.819  18.838  0.00  0.00    +0.000 A 
ATOM      6  C   UNL     1       2.394   4.508  19.080  0.00  0.00    +0.000 A 
ATOM      7 BR   UNL     1       1.170   4.145  20.474  0.00  0.00    +0.000 Br
ATOM      8  C   UNL     1       2.883   3.469  18.297  0.00  0.00    +0.000 A 
ATOM      9  C   UNL     1       3.784   3.743  17.265  0.00  0.00    +0.000 A 
ENDBRANCH   2   3
BRANCH   1  10
ATOM     10  C   UNL     1       6.678   4.603  14.069  0.00  0.00    +0.000 C 
ATOM     11  N   UNL     1       7.712   5.389  14.207  0.00  0.00    +0.000 NA
ATOM     12  H   UNL     1       8.210   5.421  13.301  0.00  0.00    +0.000 HD
BRANCH  10  13
ATOM     13  C   UNL     1       6.374   3.905  12.736  0.00  0.00    +0.000 C 
ATOM     14  O   UNL     1       7.178   3.827  11.826  0.00  0.00    +0.000 OA
BRANCH  13  16
ATOM     15  C   UNL     1       4.543   3.252  11.463  0.00  0.00    +0.000 C 
ATOM     16  O   UNL     1       5.111   3.424  12.763  0.00  0.00    +0.000 OA
ENDBRANCH  13  16
ENDBRANCH  10  13
ENDBRANCH   1  10
BRANCH   2  17
ATOM     17  O   UNL     1       5.397   6.654  15.642  0.00  0.00    +0.000 OA
ATOM     18  H   UNL     1       6.375   6.785  15.631  0.00  0.00    +0.000 HD
ENDBRANCH   2  17
TORSDOF 5
ENDMDL
MODEL 4
REMARK VINA RESULT:      -6.4      1.212      1.497
REMARK  Name = 
REMARK  6 active torsions:
REMARK  status: ('A' for Active; 'I' for Inactive)
REMARK    1  A    between atoms: C_1  and  O_2
REMARK    2  A    between atoms: O_2  and  C_3
REMARK    3  A    between atoms: C_3  and  C_5
REMARK    4  A    between atoms: C_5  and  C_7
REMARK    5  A    between atoms: C_8  and  O_9
REMARK    6  A    between atoms: C_8  and  C_10
REMARK                            x       y       z     vdW  Elec       q    Type
REMARK                         _______ _______ _______ _____ _____    ______ ____
ROOT
ATOM      1  C   UNL     1       5.845   4.359  15.199  0.00  0.00    +0.000 C 
ATOM      2  C   UNL     1       5.204   5.294  15.921  0.00  0.00    +0.000 C 
ENDROOT
BRANCH   2   3
ATOM      3  C   UNL     1       4.214   4.959  16.969  0.00  0.00    +0.000 A 
ATOM      4  C   UNL     1       3.657   3.674  17.086  0.00  0.00    +0.000 A 
ATOM      5  C   UNL     1       2.728   3.379  18.090  0.00  0.00    +0.000 A 
ATOM      6  C   UNL     1       2.352   4.367  18.995  0.00  0.00    +0.000 A 
ATOM      7 BR   UNL     1       1.102   3.967  20.355  0.00  0.00    +0.000 Br
ATOM      8  C   UNL     1       2.897   5.643  18.908  0.00  0.00    +0.000 A 
ATOM      9  C   UNL     1       3.824   5.933  17.902  0.00  0.00    +0.000 A 
ENDBRANCH   2   3
BRANCH   1  10
ATOM     10  C   UNL     1       6.829   4.709  14.142  0.00  0.00    +0.000 C 
ATOM     11  N   UNL     1       7.859   5.478  14.375  0.00  0.00    +0.000 NA
ATOM     12  H   UNL     1       8.389   5.575  13.492  0.00  0.00    +0.000 HD
BRANCH  10  13
ATOM     13  C   UNL     1       6.571   4.114  12.751  0.00  0.00    +0.000 C 
ATOM     14  O   UNL     1       7.348   4.230  11.822  0.00  0.00    +0.000 OA
BRANCH  13  16
ATOM     15  C   UNL     1       5.182   2.642  11.609  0.00  0.00    +0.000 C 
ATOM     16  O   UNL     1       5.380   3.475  12.753  0.00  0.00    +0.000 OA
ENDBRANCH  13  16
ENDBRANCH  10  13
ENDBRANCH   1  10
BRANCH   2  17
ATOM     17  O   UNL     1       5.397   6.651  15.724  0.00  0.00    +0.000 OA
ATOM     18  H   UNL     1       4.510   7.051  15.557  0.00  0.00    +0.000 HD
ENDBRANCH   2  17
TORSDOF 5
ENDMDL
MODEL 5
REMARK VINA RESULT:      -6.3      4.821      6.358
REMARK  Name = 
REMARK  6 active torsions:
REMARK  status: ('A' for Active; 'I' for Inactive)
REMARK    1  A    between atoms: C_1  and  O_2
REMARK    2  A    between atoms: O_2  and  C_3
REMARK    3  A    between atoms: C_3  and  C_5
REMARK    4  A    between atoms: C_5  and  C_7
REMARK    5  A    between atoms: C_8  and  O_9
REMARK    6  A    between atoms: C_8  and  C_10
REMARK                            x       y       z     vdW  Elec       q    Type
REMARK                         _______ _______ _______ _____ _____    ______ ____
ROOT
ATOM      1  C   UNL     1       3.477   3.599  18.227  0.00  0.00    +0.000 C 
ATOM      2  C   UNL     1       4.706   3.752  18.750  0.00  0.00    +0.000 C 
ENDROOT
BRANCH   2   3
ATOM      3  C   UNL     1       5.547   4.942  18.486  0.00  0.00    +0.000 A 
ATOM      4  C   UNL     1       6.820   5.099  19.058  0.00  0.00    +0.000 A 
ATOM      5  C   UNL     1       7.599   6.229  18.787  0.00  0.00    +0.000 A 
ATOM      6  C   UNL     1       7.113   7.213  17.931  0.00  0.00    +0.000 A 
ATOM      7 BR   UNL     1       8.168   8.737  17.560  0.00  0.00    +0.000 Br
ATOM      8  C   UNL     1       5.861   7.076  17.343  0.00  0.00    +0.000 A 
ATOM      9  C   UNL     1       5.087   5.945  17.618  0.00  0.00    +0.000 A 
ENDBRANCH   2   3
BRANCH   1  10
ATOM     10  C   UNL     1       2.648   2.395  18.491  0.00  0.00    +0.000 C 
ATOM     11  N   UNL     1       3.106   1.183  18.331  0.00  0.00    +0.000 NA
ATOM     12  H   UNL     1       2.349   0.522  18.574  0.00  0.00    +0.000 HD
BRANCH  10  13
ATOM     13  C   UNL     1       1.212   2.652  18.969  0.00  0.00    +0.000 C 
ATOM     14  O   UNL     1       0.236   2.140  18.453  0.00  0.00    +0.000 OA
BRANCH  13  16
ATOM     15  C   UNL     1       1.405   2.863  21.275  0.00  0.00    +0.000 C 
ATOM     16  O   UNL     1       1.236   3.511  20.012  0.00  0.00    +0.000 OA
ENDBRANCH  13  16
ENDBRANCH  10  13
ENDBRANCH   1  10
BRANCH   2  17
ATOM     17  O   UNL     1       5.299   2.796  19.557  0.00  0.00    +0.000 OA
ATOM     18  H   UNL     1       6.275   2.886  19.448  0.00  0.00    +0.000 HD
ENDBRANCH   2  17
TORSDOF 5
ENDMDL
MODEL 6
REMARK VINA RESULT:      -6.3      4.790      6.416
REMARK  Name = 
REMARK  6 active torsions:
REMARK  status: ('A' for Active; 'I' for Inactive)
REMARK    1  A    between atoms: C_1  and  O_2
REMARK    2  A    between atoms: O_2  and  C_3
REMARK    3  A    between atoms: C_3  and  C_5
REMARK    4  A    between atoms: C_5  and  C_7
REMARK    5  A    between atoms: C_8  and  O_9
REMARK    6  A    between atoms: C_8  and  C_10
REMARK                            x       y       z     vdW  Elec       q    Type
REMARK                         _______ _______ _______ _____ _____    ______ ____
ROOT
ATOM      1  C   UNL     1       3.488   3.600  18.116  0.00  0.00    +0.000 C 
ATOM      2  C   UNL     1       4.703   3.788  18.659  0.00  0.00    +0.000 C 
ENDROOT
BRANCH   2   3
ATOM      3  C   UNL     1       5.530   4.984  18.379  0.00  0.00    +0.000 A 
ATOM      4  C   UNL     1       5.089   6.015  17.533  0.00  0.00    +0.000 A 
ATOM      5  C   UNL     1       5.886   7.139  17.289  0.00  0.00    +0.000 A 
ATOM      6  C   UNL     1       7.133   7.247  17.900  0.00  0.00    +0.000 A 
ATOM      7 BR   UNL     1       8.207   8.768  17.576  0.00  0.00    +0.000 Br
ATOM      8  C   UNL     1       7.587   6.245  18.750  0.00  0.00    +0.000 A 
ATOM      9  C   UNL     1       6.787   5.124  18.989  0.00  0.00    +0.000 A 
ENDBRANCH   2   3
BRANCH   1  10
ATOM     10  C   UNL     1       2.672   2.391  18.397  0.00  0.00    +0.000 C 
ATOM     11  N   UNL     1       3.140   1.182  18.239  0.00  0.00    +0.000 NA
ATOM     12  H   UNL     1       2.392   0.515  18.495  0.00  0.00    +0.000 HD
BRANCH  10  13
ATOM     13  C   UNL     1       1.239   2.637  18.888  0.00  0.00    +0.000 C 
ATOM     14  O   UNL     1       0.266   2.083  18.411  0.00  0.00    +0.000 OA
BRANCH  13  16
ATOM     15  C   UNL     1       1.352   2.944  21.188  0.00  0.00    +0.000 C 
ATOM     16  O   UNL     1       1.261   3.541  19.893  0.00  0.00    +0.000 OA
ENDBRANCH  13  16
ENDBRANCH  10  13
ENDBRANCH   1  10
BRANCH   2  17
ATOM     17  O   UNL     1       5.294   2.864  19.503  0.00  0.00    +0.000 OA
ATOM     18  H   UNL     1       5.929   2.337  18.962  0.00  0.00    +0.000 HD
ENDBRANCH   2  17
TORSDOF 5
ENDMDL
MODEL 7
REMARK VINA RESULT:      -6.3      4.485      5.758
REMARK  Name = 
REMARK  6 active torsions:
REMARK  status: ('A' for Active; 'I' for Inactive)
REMARK    1  A    between atoms: C_1  and  O_2
REMARK    2  A    between atoms: O_2  and  C_3
REMARK    3  A    between atoms: C_3  and  C_5
REMARK    4  A    between atoms: C_5  and  C_7
REMARK    5  A    between atoms: C_8  and  O_9
REMARK    6  A    between atoms: C_8  and  C_10
REMARK                            x       y       z     vdW  Elec       q    Type
REMARK                         _______ _______ _______ _____ _____    ______ ____
ROOT
ATOM      1  C   UNL     1       4.092   5.207  19.489  0.00  0.00    +0.000 C 
ATOM      2  C   UNL     1       3.606   5.969  18.494  0.00  0.00    +0.000 C 
ENDROOT
BRANCH   2   3
ATOM      3  C   UNL     1       2.757   7.157  18.737  0.00  0.00    +0.000 A 
ATOM      4  C   UNL     1       2.128   7.386  19.972  0.00  0.00    +0.000 A 
ATOM      5  C   UNL     1       1.335   8.521  20.179  0.00  0.00    +0.000 A 
ATOM      6  C   UNL     1       1.171   9.446  19.152  0.00  0.00    +0.000 A 
ATOM      7 BR   UNL     1       0.106  10.982  19.434  0.00  0.00    +0.000 Br
ATOM      8  C   UNL     1       1.792   9.248  17.924  0.00  0.00    +0.000 A 
ATOM      9  C   UNL     1       2.582   8.112  17.721  0.00  0.00    +0.000 A 
ENDBRANCH   2   3
BRANCH   1  10
ATOM     10  C   UNL     1       4.934   4.011  19.231  0.00  0.00    +0.000 C 
ATOM     11  N   UNL     1       6.090   4.087  18.629  0.00  0.00    +0.000 NA
ATOM     12  H   UNL     1       6.481   3.132  18.567  0.00  0.00    +0.000 HD
BRANCH  10  13
ATOM     13  C   UNL     1       4.371   2.667  19.716  0.00  0.00    +0.000 C 
ATOM     14  O   UNL     1       5.010   1.879  20.387  0.00  0.00    +0.000 OA
BRANCH  13  16
ATOM     15  C   UNL     1       3.008   1.924  17.986  0.00  0.00    +0.000 C 
ATOM     16  O   UNL     1       3.100   2.532  19.276  0.00  0.00    +0.000 OA
ENDBRANCH  13  16
ENDBRANCH  10  13
ENDBRANCH   1  10
BRANCH   2  17
ATOM     17  O   UNL     1       3.836   5.689  17.158  0.00  0.00    +0.000 OA
ATOM     18  H   UNL     1       3.180   5.005  16.885  0.00  0.00    +0.000 HD
ENDBRANCH   2  17
TORSDOF 5
ENDMDL
MODEL 8
REMARK VINA RESULT:      -6.2      3.026      3.312
REMARK  Name = 
REMARK  6 active torsions:
REMARK  status: ('A' for Active; 'I' for Inactive)
REMARK    1  A    between atoms: C_1  and  O_2
REMARK    2  A    between atoms: O_2  and  C_3
REMARK    3  A    between atoms: C_3  and  C_5
REMARK    4  A    between atoms: C_5  and  C_7
REMARK    5  A    between atoms: C_8  and  O_9
REMARK    6  A    between atoms: C_8  and  C_10
REMARK                            x       y       z     vdW  Elec       q    Type
REMARK                         _______ _______ _______ _____ _____    ______ ____
ROOT
ATOM      1  C   UNL     1       6.108   5.832  17.093  0.00  0.00    +0.000 C 
ATOM      2  C   UNL     1       4.843   5.474  17.370  0.00  0.00    +0.000 C 
ENDROOT
BRANCH   2   3
ATOM      3  C   UNL     1       3.866   6.397  17.991  0.00  0.00    +0.000 A 
ATOM      4  C   UNL     1       3.508   7.618  17.396  0.00  0.00    +0.000 A 
ATOM      5  C   UNL     1       2.577   8.470  17.999  0.00  0.00    +0.000 A 
ATOM      6  C   UNL     1       1.986   8.103  19.205  0.00  0.00    +0.000 A 
ATOM      7 BR   UNL     1       0.723   9.252  20.018  0.00  0.00    +0.000 Br
ATOM      8  C   UNL     1       2.315   6.895  19.810  0.00  0.00    +0.000 A 
ATOM      9  C   UNL     1       3.246   6.048  19.203  0.00  0.00    +0.000 A 
ENDBRANCH   2   3
BRANCH   1  10
ATOM     10  C   UNL     1       7.082   4.893  16.479  0.00  0.00    +0.000 C 
ATOM     11  N   UNL     1       7.917   4.188  17.193  0.00  0.00    +0.000 NA
ATOM     12  H   UNL     1       8.486   3.617  16.546  0.00  0.00    +0.000 HD
BRANCH  10  13
ATOM     13  C   UNL     1       7.054   4.793  14.947  0.00  0.00    +0.000 C 
ATOM     14  O   UNL     1       7.725   5.503  14.220  0.00  0.00    +0.000 OA
BRANCH  13  16
ATOM     15  C   UNL     1       6.087   3.661  13.163  0.00  0.00    +0.000 C 
ATOM     16  O   UNL     1       6.189   3.822  14.579  0.00  0.00    +0.000 OA
ENDBRANCH  13  16
ENDBRANCH  10  13
ENDBRANCH   1  10
BRANCH   2  17
ATOM     17  O   UNL     1       4.356   4.202  17.122  0.00  0.00    +0.000 OA
ATOM     18  H   UNL     1       4.027   4.191  16.192  0.00  0.00    +0.000 HD
ENDBRANCH   2  17
TORSDOF 5
ENDMDL
MODEL 9
REMARK VINA RESULT:      -6.1      4.660      5.916
REMARK  Name = 
REMARK  6 active torsions:
REMARK  status: ('A' for Active; 'I' for Inactive)
REMARK    1  A    between atoms: C_1  and  O_2
REMARK    2  A    between atoms: O_2  and  C_3
REMARK    3  A    between atoms: C_3  and  C_5
REMARK    4  A    between atoms: C_5  and  C_7
REMARK    5  A    between atoms: C_8  and  O_9
REMARK    6  A    between atoms: C_8  and  C_10
REMARK                            x       y       z     vdW  Elec       q    Type
REMARK                         _______ _______ _______ _____ _____    ______ ____
ROOT
ATOM      1  C   UNL     1       3.401   5.063  18.338  0.00  0.00    +0.000 C 
ATOM      2  C   UNL     1       2.943   5.764  19.389  0.00  0.00    +0.000 C 
ENDROOT
BRANCH   2   3
ATOM      3  C   UNL     1       2.340   7.110  19.253  0.00  0.00    +0.000 A 
ATOM      4  C   UNL     1       2.341   7.809  18.035  0.00  0.00    +0.000 A 
ATOM      5  C   UNL     1       1.759   9.077  17.930  0.00  0.00    +0.000 A 
ATOM      6  C   UNL     1       1.160   9.656  19.046  0.00  0.00    +0.000 A 
ATOM      7 BR   UNL     1       0.367  11.366  18.903  0.00  0.00    +0.000 Br
ATOM      8  C   UNL     1       1.136   8.980  20.260  0.00  0.00    +0.000 A 
ATOM      9  C   UNL     1       1.719   7.714  20.360  0.00  0.00    +0.000 A 
ENDBRANCH   2   3
BRANCH   1  10
ATOM     10  C   UNL     1       4.014   3.718  18.488  0.00  0.00    +0.000 C 
ATOM     11  N   UNL     1       5.213   3.548  18.975  0.00  0.00    +0.000 NA
ATOM     12  H   UNL     1       5.414   2.534  18.979  0.00  0.00    +0.000 HD
BRANCH  10  13
ATOM     13  C   UNL     1       3.155   2.528  18.039  0.00  0.00    +0.000 C 
ATOM     14  O   UNL     1       3.584   1.392  17.949  0.00  0.00    +0.000 OA
BRANCH  13  16
ATOM     15  C   UNL     1       0.925   2.455  18.687  0.00  0.00    +0.000 C 
ATOM     16  O   UNL     1       1.901   2.957  17.772  0.00  0.00    +0.000 OA
ENDBRANCH  13  16
ENDBRANCH  10  13
ENDBRANCH   1  10
BRANCH   2  17
ATOM     17  O   UNL     1       3.022   5.297  20.690  0.00  0.00    +0.000 OA
ATOM     18  H   UNL     1       3.079   4.313  20.644  0.00  0.00    +0.000 HD
ENDBRANCH   2  17
TORSDOF 5
ENDMDL
