MODEL 1
REMARK VINA RESULT:      -6.8      0.000      0.000
REMARK  Name = 
REMARK  4 active torsions:
REMARK  status: ('A' for Active; 'I' for Inactive)
REMARK    1  A    between atoms: C_1  and  C_2
REMARK    2  A    between atoms: C_2  and  C_3
REMARK    3  A    between atoms: C_2  and  C_11
REMARK    4  A    between atoms: C_3  and  C_5
REMARK                            x       y       z     vdW  Elec       q    Type
REMARK                         _______ _______ _______ _____ _____    ______ ____
ROOT
ATOM      1  C   UNL     1       2.997   7.011  18.291  0.00  0.00    +0.000 C 
ATOM      2  C   UNL     1       2.802   5.556  17.845  0.00  0.00    +0.000 C 
ENDROOT
BRANCH   2   3
ATOM      3  C   UNL     1       2.201   4.732  18.965  0.00  0.00    +0.000 A 
ATOM      4  C   UNL     1       1.306   3.690  18.720  0.00  0.00    +0.000 A 
ATOM      5  C   UNL     1       0.894   2.890  19.782  0.00  0.00    +0.000 A 
ATOM      6  C   UNL     1       1.369   3.154  21.060  0.00  0.00    +0.000 A 
ATOM      7  C   UNL     1       2.232   4.222  21.226  0.00  0.00    +0.000 A 
ATOM      8  N   UNL     1       2.652   5.013  20.215  0.00  0.00    +0.000 NA
ENDBRANCH   2   3
BRANCH   2   9
ATOM      9  C   UNL     1       4.106   4.964  17.326  0.00  0.00    +0.000 C 
ATOM     10  O   UNL     1       4.124   3.984  16.577  0.00  0.00    +0.000 OA
BRANCH   9  11
ATOM     11  C   UNL     1       5.420   5.555  17.740  0.00  0.00    +0.000 A 
ATOM     12  C   UNL     1       6.093   6.518  16.988  0.00  0.00    +0.000 A 
ATOM     13  C   UNL     1       7.304   6.992  17.470  0.00  0.00    +0.000 A 
ATOM     14  N   UNL     1       7.869   6.584  18.623  0.00  0.00    +0.000 NA
ATOM     15  C   UNL     1       7.202   5.652  19.334  0.00  0.00    +0.000 A 
ATOM     16  C   UNL     1       5.990   5.115  18.939  0.00  0.00    +0.000 A 
ENDBRANCH   9  11
ENDBRANCH   2   9
TORSDOF 3
ENDMDL
MODEL 2
REMARK VINA RESULT:      -6.8      3.017      6.101
REMARK  Name = 
REMARK  4 active torsions:
REMARK  status: ('A' for Active; 'I' for Inactive)
REMARK    1  A    between atoms: C_1  and  C_2
REMARK    2  A    between atoms: C_2  and  C_3
REMARK    3  A    between atoms: C_2  and  C_11
REMARK    4  A    between atoms: C_3  and  C_5
REMARK                            x       y       z     vdW  Elec       q    Type
REMARK                         _______ _______ _______ _____ _____    ______ ____
ROOT
ATOM      1  C   UNL     1       7.258   6.316  17.025  0.00  0.00    +0.000 C 
ATOM      2  C   UNL     1       6.500   5.041  16.634  0.00  0.00    +0.000 C 
ENDROOT
BRANCH   2   3
ATOM      3  C   UNL     1       6.726   4.716  15.172  0.00  0.00    +0.000 A 
ATOM      4  C   UNL     1       5.928   3.798  14.486  0.00  0.00    +0.000 A 
ATOM      5  C   UNL     1       6.105   3.644  13.114  0.00  0.00    +0.000 A 
ATOM      6  C   UNL     1       7.076   4.392  12.462  0.00  0.00    +0.000 A 
ATOM      7  C   UNL     1       7.845   5.259  13.216  0.00  0.00    +0.000 A 
ATOM      8  N   UNL     1       7.694   5.434  14.547  0.00  0.00    +0.000 NA
ENDBRANCH   2   3
BRANCH   2   9
ATOM      9  C   UNL     1       5.022   5.155  16.982  0.00  0.00    +0.000 C 
ATOM     10  O   UNL     1       4.358   6.150  16.684  0.00  0.00    +0.000 OA
BRANCH   9  11
ATOM     11  C   UNL     1       4.336   4.051  17.729  0.00  0.00    +0.000 A 
ATOM     12  C   UNL     1       4.775   3.582  18.967  0.00  0.00    +0.000 A 
ATOM     13  C   UNL     1       4.062   2.554  19.565  0.00  0.00    +0.000 A 
ATOM     14  N   UNL     1       2.966   1.983  19.026  0.00  0.00    +0.000 NA
ATOM     15  C   UNL     1       2.559   2.451  17.829  0.00  0.00    +0.000 A 
ATOM     16  C   UNL     1       3.203   3.471  17.150  0.00  0.00    +0.000 A 
ENDBRANCH   9  11
ENDBRANCH   2   9
TORSDOF 3
ENDMDL
MODEL 3
REMARK VINA RESULT:      -6.8      0.126      1.181
REMARK  Name = 
REMARK  4 active torsions:
REMARK  status: ('A' for Active; 'I' for Inactive)
REMARK    1  A    between atoms: C_1  and  C_2
REMARK    2  A    between atoms: C_2  and  C_3
REMARK    3  A    between atoms: C_2  and  C_11
REMARK    4  A    between atoms: C_3  and  C_5
REMARK                            x       y       z     vdW  Elec       q    Type
REMARK                         _______ _______ _______ _____ _____    ______ ____
ROOT
ATOM      1  C   UNL     1       2.964   6.962  18.451  0.00  0.00    +0.000 C 
ATOM      2  C   UNL     1       2.756   5.526  17.953  0.00  0.00    +0.000 C 
ENDROOT
BRANCH   2   3
ATOM      3  C   UNL     1       2.166   4.663  19.049  0.00  0.00    +0.000 A 
ATOM      4  C   UNL     1       1.291   3.611  18.773  0.00  0.00    +0.000 A 
ATOM      5  C   UNL     1       0.890   2.777  19.813  0.00  0.00    +0.000 A 
ATOM      6  C   UNL     1       1.355   3.016  21.099  0.00  0.00    +0.000 A 
ATOM      7  C   UNL     1       2.197   4.095  21.296  0.00  0.00    +0.000 A 
ATOM      8  N   UNL     1       2.607   4.919  20.307  0.00  0.00    +0.000 NA
ENDBRANCH   2   3
BRANCH   2   9
ATOM      9  C   UNL     1       4.049   4.949  17.393  0.00  0.00    +0.000 C 
ATOM     10  O   UNL     1       4.051   4.031  16.570  0.00  0.00    +0.000 OA
BRANCH   9  11
ATOM     11  C   UNL     1       5.374   5.476  17.859  0.00  0.00    +0.000 A 
ATOM     12  C   UNL     1       5.949   5.119  19.078  0.00  0.00    +0.000 A 
ATOM     13  C   UNL     1       7.179   5.672  19.405  0.00  0.00    +0.000 A 
ATOM     14  N   UNL     1       7.855   6.528  18.614  0.00  0.00    +0.000 NA
ATOM     15  C   UNL     1       7.280   6.860  17.440  0.00  0.00    +0.000 A 
ATOM     16  C   UNL     1       6.056   6.365  17.024  0.00  0.00    +0.000 A 
ENDBRANCH   9  11
ENDBRANCH   2   9
TORSDOF 3
ENDMDL
MODEL 4
REMARK VINA RESULT:      -6.7      0.716      1.688
REMARK  Name = 
REMARK  4 active torsions:
REMARK  status: ('A' for Active; 'I' for Inactive)
REMARK    1  A    between atoms: C_1  and  C_2
REMARK    2  A    between atoms: C_2  and  C_3
REMARK    3  A    between atoms: C_2  and  C_11
REMARK    4  A    between atoms: C_3  and  C_5
REMARK                            x       y       z     vdW  Elec       q    Type
REMARK                         _______ _______ _______ _____ _____    ______ ____
ROOT
ATOM      1  C   UNL     1       3.067   6.868  18.203  0.00  0.00    +0.000 C 
ATOM      2  C   UNL     1       2.975   5.395  17.783  0.00  0.00    +0.000 C 
ENDROOT
BRANCH   2   3
ATOM      3  C   UNL     1       2.437   4.551  18.919  0.00  0.00    +0.000 A 
ATOM      4  C   UNL     1       2.708   4.848  20.256  0.00  0.00    +0.000 A 
ATOM      5  C   UNL     1       2.076   4.110  21.253  0.00  0.00    +0.000 A 
ATOM      6  C   UNL     1       1.205   3.089  20.899  0.00  0.00    +0.000 A 
ATOM      7  C   UNL     1       1.010   2.837  19.553  0.00  0.00    +0.000 A 
ATOM      8  N   UNL     1       1.605   3.538  18.563  0.00  0.00    +0.000 NA
ENDBRANCH   2   3
BRANCH   2   9
ATOM      9  C   UNL     1       4.316   4.889  17.268  0.00  0.00    +0.000 C 
ATOM     10  O   UNL     1       4.394   3.975  16.444  0.00  0.00    +0.000 OA
BRANCH   9  11
ATOM     11  C   UNL     1       5.594   5.484  17.780  0.00  0.00    +0.000 A 
ATOM     12  C   UNL     1       6.185   5.098  18.982  0.00  0.00    +0.000 A 
ATOM     13  C   UNL     1       7.367   5.719  19.356  0.00  0.00    +0.000 A 
ATOM     14  N   UNL     1       7.983   6.670  18.626  0.00  0.00    +0.000 NA
ATOM     15  C   UNL     1       7.394   7.028  17.468  0.00  0.00    +0.000 A 
ATOM     16  C   UNL     1       6.214   6.471  17.008  0.00  0.00    +0.000 A 
ENDBRANCH   9  11
ENDBRANCH   2   9
TORSDOF 3
ENDMDL
MODEL 5
REMARK VINA RESULT:      -6.7      3.135      6.163
REMARK  Name = 
REMARK  4 active torsions:
REMARK  status: ('A' for Active; 'I' for Inactive)
REMARK    1  A    between atoms: C_1  and  C_2
REMARK    2  A    between atoms: C_2  and  C_3
REMARK    3  A    between atoms: C_2  and  C_11
REMARK    4  A    between atoms: C_3  and  C_5
REMARK                            x       y       z     vdW  Elec       q    Type
REMARK                         _______ _______ _______ _____ _____    ______ ____
ROOT
ATOM      1  C   UNL     1       7.349   5.076  16.913  0.00  0.00    +0.000 C 
ATOM      2  C   UNL     1       6.151   4.799  15.996  0.00  0.00    +0.000 C 
ENDROOT
BRANCH   2   3
ATOM      3  C   UNL     1       6.612   4.587  14.569  0.00  0.00    +0.000 A 
ATOM      4  C   UNL     1       5.951   3.719  13.698  0.00  0.00    +0.000 A 
ATOM      5  C   UNL     1       6.347   3.670  12.364  0.00  0.00    +0.000 A 
ATOM      6  C   UNL     1       7.396   4.472  11.933  0.00  0.00    +0.000 A 
ATOM      7  C   UNL     1       8.018   5.285  12.863  0.00  0.00    +0.000 A 
ATOM      8  N   UNL     1       7.654   5.357  14.162  0.00  0.00    +0.000 NA
ENDBRANCH   2   3
BRANCH   2   9
ATOM      9  C   UNL     1       5.108   5.903  16.110  0.00  0.00    +0.000 C 
ATOM     10  O   UNL     1       5.076   6.853  15.324  0.00  0.00    +0.000 OA
BRANCH   9  11
ATOM     11  C   UNL     1       4.094   5.871  17.215  0.00  0.00    +0.000 A 
ATOM     12  C   UNL     1       3.573   7.024  17.803  0.00  0.00    +0.000 A 
ATOM     13  C   UNL     1       2.642   6.872  18.819  0.00  0.00    +0.000 A 
ATOM     14  N   UNL     1       2.204   5.680  19.271  0.00  0.00    +0.000 NA
ATOM     15  C   UNL     1       2.722   4.580  18.688  0.00  0.00    +0.000 A 
ATOM     16  C   UNL     1       3.657   4.624  17.669  0.00  0.00    +0.000 A 
ENDBRANCH   9  11
ENDBRANCH   2   9
TORSDOF 3
ENDMDL
MODEL 6
REMARK VINA RESULT:      -6.7      1.389      5.488
REMARK  Name = 
REMARK  4 active torsions:
REMARK  status: ('A' for Active; 'I' for Inactive)
REMARK    1  A    between atoms: C_1  and  C_2
REMARK    2  A    between atoms: C_2  and  C_3
REMARK    3  A    between atoms: C_2  and  C_11
REMARK    4  A    between atoms: C_3  and  C_5
REMARK                            x       y       z     vdW  Elec       q    Type
REMARK                         _______ _______ _______ _____ _____    ______ ____
ROOT
ATOM      1  C   UNL     1       4.250   3.699  17.215  0.00  0.00    +0.000 C 
ATOM      2  C   UNL     1       4.168   5.229  17.289  0.00  0.00    +0.000 C 
ENDROOT
BRANCH   2   3
ATOM      3  C   UNL     1       5.473   5.807  17.796  0.00  0.00    +0.000 A 
ATOM      4  C   UNL     1       6.161   5.249  18.875  0.00  0.00    +0.000 A 
ATOM      5  C   UNL     1       7.417   5.749  19.206  0.00  0.00    +0.000 A 
ATOM      6  C   UNL     1       7.951   6.797  18.468  0.00  0.00    +0.000 A 
ATOM      7  C   UNL     1       7.196   7.314  17.431  0.00  0.00    +0.000 A 
ATOM      8  N   UNL     1       5.977   6.848  17.084  0.00  0.00    +0.000 NA
ENDBRANCH   2   3
BRANCH   2   9
ATOM      9  C   UNL     1       2.974   5.673  18.123  0.00  0.00    +0.000 C 
ATOM     10  O   UNL     1       2.486   6.801  18.013  0.00  0.00    +0.000 OA
BRANCH   9  11
ATOM     11  C   UNL     1       2.370   4.742  19.131  0.00  0.00    +0.000 A 
ATOM     12  C   UNL     1       2.746   4.727  20.474  0.00  0.00    +0.000 A 
ATOM     13  C   UNL     1       2.120   3.820  21.316  0.00  0.00    +0.000 A 
ATOM     14  N   UNL     1       1.165   2.956  20.918  0.00  0.00    +0.000 NA
ATOM     15  C   UNL     1       0.818   2.988  19.615  0.00  0.00    +0.000 A 
ATOM     16  C   UNL     1       1.384   3.852  18.695  0.00  0.00    +0.000 A 
ENDBRANCH   9  11
ENDBRANCH   2   9
TORSDOF 3
ENDMDL
MODEL 7
REMARK VINA RESULT:      -6.6      2.979      6.233
REMARK  Name = 
REMARK  4 active torsions:
REMARK  status: ('A' for Active; 'I' for Inactive)
REMARK    1  A    between atoms: C_1  and  C_2
REMARK    2  A    between atoms: C_2  and  C_3
REMARK    3  A    between atoms: C_2  and  C_11
REMARK    4  A    between atoms: C_3  and  C_5
REMARK                            x       y       z     vdW  Elec       q    Type
REMARK                         _______ _______ _______ _____ _____    ______ ____
ROOT
ATOM      1  C   UNL     1       7.389   5.221  17.213  0.00  0.00    +0.000 C 
ATOM      2  C   UNL     1       6.240   4.618  16.395  0.00  0.00    +0.000 C 
ENDROOT
BRANCH   2   3
ATOM      3  C   UNL     1       6.633   4.497  14.937  0.00  0.00    +0.000 A 
ATOM      4  C   UNL     1       5.960   3.648  14.057  0.00  0.00    +0.000 A 
ATOM      5  C   UNL     1       6.287   3.682  12.704  0.00  0.00    +0.000 A 
ATOM      6  C   UNL     1       7.279   4.546  12.262  0.00  0.00    +0.000 A 
ATOM      7  C   UNL     1       7.919   5.337  13.200  0.00  0.00    +0.000 A 
ATOM      8  N   UNL     1       7.621   5.328  14.518  0.00  0.00    +0.000 NA
ENDBRANCH   2   3
BRANCH   2   9
ATOM      9  C   UNL     1       4.956   5.415  16.585  0.00  0.00    +0.000 C 
ATOM     10  O   UNL     1       4.844   6.576  16.185  0.00  0.00    +0.000 OA
BRANCH   9  11
ATOM     11  C   UNL     1       3.788   4.803  17.298  0.00  0.00    +0.000 A 
ATOM     12  C   UNL     1       3.410   3.470  17.135  0.00  0.00    +0.000 A 
ATOM     13  C   UNL     1       2.309   3.014  17.846  0.00  0.00    +0.000 A 
ATOM     14  N   UNL     1       1.586   3.776  18.688  0.00  0.00    +0.000 NA
ATOM     15  C   UNL     1       1.969   5.061  18.830  0.00  0.00    +0.000 A 
ATOM     16  C   UNL     1       3.049   5.614  18.165  0.00  0.00    +0.000 A 
ENDBRANCH   9  11
ENDBRANCH   2   9
TORSDOF 3
ENDMDL
MODEL 8
REMARK VINA RESULT:      -6.6      1.881      2.194
REMARK  Name = 
REMARK  4 active torsions:
REMARK  status: ('A' for Active; 'I' for Inactive)
REMARK    1  A    between atoms: C_1  and  C_2
REMARK    2  A    between atoms: C_2  and  C_3
REMARK    3  A    between atoms: C_2  and  C_11
REMARK    4  A    between atoms: C_3  and  C_5
REMARK                            x       y       z     vdW  Elec       q    Type
REMARK                         _______ _______ _______ _____ _____    ______ ____
ROOT
ATOM      1  C   UNL     1       1.375   4.461  17.249  0.00  0.00    +0.000 C 
ATOM      2  C   UNL     1       2.725   4.002  17.813  0.00  0.00    +0.000 C 
ENDROOT
BRANCH   2   3
ATOM      3  C   UNL     1       2.550   3.406  19.194  0.00  0.00    +0.000 A 
ATOM      4  C   UNL     1       3.600   2.784  19.871  0.00  0.00    +0.000 A 
ATOM      5  C   UNL     1       3.405   2.375  21.188  0.00  0.00    +0.000 A 
ATOM      6  C   UNL     1       2.173   2.581  21.792  0.00  0.00    +0.000 A 
ATOM      7  C   UNL     1       1.174   3.180  21.046  0.00  0.00    +0.000 A 
ATOM      8  N   UNL     1       1.333   3.590  19.769  0.00  0.00    +0.000 NA
ENDBRANCH   2   3
BRANCH   2   9
ATOM      9  C   UNL     1       3.740   5.138  17.796  0.00  0.00    +0.000 C 
ATOM     10  O   UNL     1       3.460   6.267  18.204  0.00  0.00    +0.000 OA
BRANCH   9  11
ATOM     11  C   UNL     1       5.118   4.910  17.250  0.00  0.00    +0.000 A 
ATOM     12  C   UNL     1       5.378   4.729  15.892  0.00  0.00    +0.000 A 
ATOM     13  C   UNL     1       6.693   4.524  15.502  0.00  0.00    +0.000 A 
ATOM     14  N   UNL     1       7.737   4.494  16.354  0.00  0.00    +0.000 NA
ATOM     15  C   UNL     1       7.462   4.671  17.662  0.00  0.00    +0.000 A 
ATOM     16  C   UNL     1       6.185   4.880  18.152  0.00  0.00    +0.000 A 
ENDBRANCH   9  11
ENDBRANCH   2   9
TORSDOF 3
ENDMDL
MODEL 9
REMARK VINA RESULT:      -6.6      1.360      5.464
REMARK  Name = 
REMARK  4 active torsions:
REMARK  status: ('A' for Active; 'I' for Inactive)
REMARK    1  A    between atoms: C_1  and  C_2
REMARK    2  A    between atoms: C_2  and  C_3
REMARK    3  A    between atoms: C_2  and  C_11
REMARK    4  A    between atoms: C_3  and  C_5
REMARK                            x       y       z     vdW  Elec       q    Type
REMARK                         _______ _______ _______ _____ _____    ______ ____
ROOT
ATOM      1  C   UNL     1       4.327   3.400  17.368  0.00  0.00    +0.000 C 
ATOM      2  C   UNL     1       4.294   4.932  17.288  0.00  0.00    +0.000 C 
ENDROOT
BRANCH   2   3
ATOM      3  C   UNL     1       5.632   5.514  17.692  0.00  0.00    +0.000 A 
ATOM      4  C   UNL     1       6.209   6.587  17.010  0.00  0.00    +0.000 A 
ATOM      5  C   UNL     1       7.375   7.157  17.513  0.00  0.00    +0.000 A 
ATOM      6  C   UNL     1       7.946   6.640  18.668  0.00  0.00    +0.000 A 
ATOM      7  C   UNL     1       7.329   5.559  19.271  0.00  0.00    +0.000 A 
ATOM      8  N   UNL     1       6.196   4.987  18.809  0.00  0.00    +0.000 NA
ENDBRANCH   2   3
BRANCH   2   9
ATOM      9  C   UNL     1       3.143   5.497  18.111  0.00  0.00    +0.000 C 
ATOM     10  O   UNL     1       2.751   6.658  17.970  0.00  0.00    +0.000 OA
BRANCH   9  11
ATOM     11  C   UNL     1       2.468   4.648  19.146  0.00  0.00    +0.000 A 
ATOM     12  C   UNL     1       2.852   4.633  20.487  0.00  0.00    +0.000 A 
ATOM     13  C   UNL     1       2.155   3.806  21.355  0.00  0.00    +0.000 A 
ATOM     14  N   UNL     1       1.125   3.019  20.984  0.00  0.00    +0.000 NA
ATOM     15  C   UNL     1       0.771   3.049  19.683  0.00  0.00    +0.000 A 
ATOM     16  C   UNL     1       1.404   3.838  18.738  0.00  0.00    +0.000 A 
ENDBRANCH   9  11
ENDBRANCH   2   9
TORSDOF 3
ENDMDL
