MODEL 1
REMARK VINA RESULT:      -7.9      0.000      0.000
REMARK  Name = 
REMARK  9 active torsions:
REMARK  status: ('A' for Active; 'I' for Inactive)
REMARK    1  A    between atoms: C_1  and  C_2
REMARK    2  A    between atoms: C_2  and  C_3
REMARK    3  A    between atoms: C_2  and  C_4
REMARK    4  A    between atoms: C_4  and  C_5
REMARK    5  A    between atoms: C_7  and  C_8
REMARK    6  A    between atoms: C_8  and  N_9
REMARK    7  A    between atoms: N_9  and  C_10
REMARK    8  A    between atoms: N_9  and  S_11
REMARK    9  A    between atoms: S_11  and  N_14
REMARK                            x       y       z     vdW  Elec       q    Type
REMARK                         _______ _______ _______ _____ _____    ______ ____
ROOT
ATOM      1  C   UNL     1       6.581   4.274  17.247  0.00  0.00    +0.000 C 
ENDROOT
BRANCH   1   4
ATOM      2  C   UNL     1       6.722   4.318  13.725  0.00  0.00    +0.000 A 
ATOM      3  N   UNL     1       6.208   3.801  14.814  0.00  0.00    +0.000 NA
ATOM      4  C   UNL     1       6.762   4.589  15.796  0.00  0.00    +0.000 A 
ATOM      5  N   UNL     1       7.542   5.582  15.346  0.00  0.00    +0.000 NA
ATOM      6  O   UNL     1       7.520   5.401  13.961  0.00  0.00    +0.000 OA
BRANCH   2   7
ATOM      7  C   UNL     1       6.615   3.845  12.321  0.00  0.00    +0.000 C 
BRANCH   7   9
ATOM      8  C   UNL     1       4.291   3.323  11.440  0.00  0.00    +0.000 C 
ATOM      9  C   UNL     1       5.536   2.767  12.134  0.00  0.00    +0.000 C 
ATOM     10  C   UNL     1       6.096   1.596  11.321  0.00  0.00    +0.000 C 
ENDBRANCH   7   9
ENDBRANCH   2   7
ENDBRANCH   1   4
BRANCH   1  11
ATOM     11  N   UNL     1       5.254   4.718  17.765  0.00  0.00    +0.000 NA
ATOM     12  C   UNL     1       4.490   5.532  16.786  0.00  0.00    +0.000 C 
BRANCH  11  13
ATOM     13  S   UNL     1       4.352   3.461  18.437  0.00  0.00    +0.000 S 
ATOM     14  O   UNL     1       3.997   2.545  17.386  0.00  0.00    +0.000 OA
ATOM     15  O   UNL     1       5.010   3.014  19.649  0.00  0.00    +0.000 OA
BRANCH  13  16
ATOM     16  N   UNL     1       2.955   4.305  18.879  0.00  0.00    +0.000 NA
ATOM     17  C   UNL     1       3.070   5.065  20.161  0.00  0.00    +0.000 C 
ATOM     18  C   UNL     1       2.043   4.426  21.079  0.00  0.00    +0.000 C 
ATOM     19  C   UNL     1       0.930   4.053  20.127  0.00  0.00    +0.000 C 
ATOM     20  C   UNL     1       1.687   3.522  18.927  0.00  0.00    +0.000 C 
ENDBRANCH  13  16
ENDBRANCH  11  13
ENDBRANCH   1  11
TORSDOF 6
ENDMDL
MODEL 2
REMARK VINA RESULT:      -7.8      1.099      1.571
REMARK  Name = 
REMARK  9 active torsions:
REMARK  status: ('A' for Active; 'I' for Inactive)
REMARK    1  A    between atoms: C_1  and  C_2
REMARK    2  A    between atoms: C_2  and  C_3
REMARK    3  A    between atoms: C_2  and  C_4
REMARK    4  A    between atoms: C_4  and  C_5
REMARK    5  A    between atoms: C_7  and  C_8
REMARK    6  A    between atoms: C_8  and  N_9
REMARK    7  A    between atoms: N_9  and  C_10
REMARK    8  A    between atoms: N_9  and  S_11
REMARK    9  A    between atoms: S_11  and  N_14
REMARK                            x       y       z     vdW  Elec       q    Type
REMARK                         _______ _______ _______ _____ _____    ______ ____
ROOT
ATOM      1  C   UNL     1       5.234   5.240  16.638  0.00  0.00    +0.000 C 
ENDROOT
BRANCH   1   4
ATOM      2  C   UNL     1       6.445   4.319  13.457  0.00  0.00    +0.000 A 
ATOM      3  N   UNL     1       5.471   4.279  14.335  0.00  0.00    +0.000 NA
ATOM      4  C   UNL     1       5.949   5.097  15.332  0.00  0.00    +0.000 A 
ATOM      5  N   UNL     1       7.137   5.663  15.073  0.00  0.00    +0.000 NA
ATOM      6  O   UNL     1       7.472   5.140  13.821  0.00  0.00    +0.000 OA
BRANCH   2   7
ATOM      7  C   UNL     1       6.603   3.549  12.197  0.00  0.00    +0.000 C 
BRANCH   7   9
ATOM      8  C   UNL     1       4.283   3.186  11.228  0.00  0.00    +0.000 C 
ATOM      9  C   UNL     1       5.463   2.545  11.963  0.00  0.00    +0.000 C 
ATOM     10  C   UNL     1       5.974   1.344  11.161  0.00  0.00    +0.000 C 
ENDBRANCH   7   9
ENDBRANCH   2   7
ENDBRANCH   1   4
BRANCH   1  11
ATOM     11  N   UNL     1       5.786   4.337  17.690  0.00  0.00    +0.000 NA
ATOM     12  C   UNL     1       7.188   4.658  18.056  0.00  0.00    +0.000 C 
BRANCH  11  13
ATOM     13  S   UNL     1       4.766   4.176  19.024  0.00  0.00    +0.000 S 
ATOM     14  O   UNL     1       5.200   3.040  19.793  0.00  0.00    +0.000 OA
ATOM     15  O   UNL     1       4.582   5.480  19.629  0.00  0.00    +0.000 OA
BRANCH  13  16
ATOM     16  N   UNL     1       3.327   3.751  18.245  0.00  0.00    +0.000 NA
ATOM     17  C   UNL     1       2.138   4.560  18.655  0.00  0.00    +0.000 C 
ATOM     18  C   UNL     1       1.190   3.554  19.285  0.00  0.00    +0.000 C 
ATOM     19  C   UNL     1       1.432   2.308  18.465  0.00  0.00    +0.000 C 
ATOM     20  C   UNL     1       2.938   2.312  18.295  0.00  0.00    +0.000 C 
ENDBRANCH  13  16
ENDBRANCH  11  13
ENDBRANCH   1  11
TORSDOF 6
ENDMDL
MODEL 3
REMARK VINA RESULT:      -7.8      1.007      1.318
REMARK  Name = 
REMARK  9 active torsions:
REMARK  status: ('A' for Active; 'I' for Inactive)
REMARK    1  A    between atoms: C_1  and  C_2
REMARK    2  A    between atoms: C_2  and  C_3
REMARK    3  A    between atoms: C_2  and  C_4
REMARK    4  A    between atoms: C_4  and  C_5
REMARK    5  A    between atoms: C_7  and  C_8
REMARK    6  A    between atoms: C_8  and  N_9
REMARK    7  A    between atoms: N_9  and  C_10
REMARK    8  A    between atoms: N_9  and  S_11
REMARK    9  A    between atoms: S_11  and  N_14
REMARK                            x       y       z     vdW  Elec       q    Type
REMARK                         _______ _______ _______ _____ _____    ______ ____
ROOT
ATOM      1  C   UNL     1       4.969   5.259  16.881  0.00  0.00    +0.000 C 
ENDROOT
BRANCH   1   4
ATOM      2  C   UNL     1       6.440   4.444  13.783  0.00  0.00    +0.000 A 
ATOM      3  N   UNL     1       5.378   4.430  14.551  0.00  0.00    +0.000 NA
ATOM      4  C   UNL     1       5.807   5.140  15.648  0.00  0.00    +0.000 A 
ATOM      5  N   UNL     1       7.056   5.620  15.553  0.00  0.00    +0.000 NA
ATOM      6  O   UNL     1       7.482   5.152  14.308  0.00  0.00    +0.000 OA
BRANCH   2   7
ATOM      7  C   UNL     1       6.673   3.745  12.493  0.00  0.00    +0.000 C 
BRANCH   7   9
ATOM      8  C   UNL     1       4.429   3.431  11.346  0.00  0.00    +0.000 C 
ATOM      9  C   UNL     1       5.552   2.756  12.138  0.00  0.00    +0.000 C 
ATOM     10  C   UNL     1       6.118   1.586  11.328  0.00  0.00    +0.000 C 
ENDBRANCH   7   9
ENDBRANCH   2   7
ENDBRANCH   1   4
BRANCH   1  11
ATOM     11  N   UNL     1       5.090   4.066  17.769  0.00  0.00    +0.000 NA
ATOM     12  C   UNL     1       5.783   4.361  19.048  0.00  0.00    +0.000 C 
BRANCH  11  13
ATOM     13  S   UNL     1       3.633   3.242  17.972  0.00  0.00    +0.000 S 
ATOM     14  O   UNL     1       2.713   3.691  16.961  0.00  0.00    +0.000 OA
ATOM     15  O   UNL     1       3.917   1.836  18.174  0.00  0.00    +0.000 OA
BRANCH  13  16
ATOM     16  N   UNL     1       3.130   3.894  19.450  0.00  0.00    +0.000 NA
ATOM     17  C   UNL     1       2.775   2.877  20.486  0.00  0.00    +0.000 C 
ATOM     18  C   UNL     1       1.300   3.110  20.762  0.00  0.00    +0.000 C 
ATOM     19  C   UNL     1       1.165   4.608  20.611  0.00  0.00    +0.000 C 
ATOM     20  C   UNL     1       2.027   4.896  19.399  0.00  0.00    +0.000 C 
ENDBRANCH  13  16
ENDBRANCH  11  13
ENDBRANCH   1  11
TORSDOF 6
ENDMDL
MODEL 4
REMARK VINA RESULT:      -7.7      1.342      1.696
REMARK  Name = 
REMARK  9 active torsions:
REMARK  status: ('A' for Active; 'I' for Inactive)
REMARK    1  A    between atoms: C_1  and  C_2
REMARK    2  A    between atoms: C_2  and  C_3
REMARK    3  A    between atoms: C_2  and  C_4
REMARK    4  A    between atoms: C_4  and  C_5
REMARK    5  A    between atoms: C_7  and  C_8
REMARK    6  A    between atoms: C_8  and  N_9
REMARK    7  A    between atoms: N_9  and  C_10
REMARK    8  A    between atoms: N_9  and  S_11
REMARK    9  A    between atoms: S_11  and  N_14
REMARK                            x       y       z     vdW  Elec       q    Type
REMARK                         _______ _______ _______ _____ _____    ______ ____
ROOT
ATOM      1  C   UNL     1       6.002   4.411  17.175  0.00  0.00    +0.000 C 
ENDROOT
BRANCH   1   4
ATOM      2  C   UNL     1       6.650   4.331  13.711  0.00  0.00    +0.000 A 
ATOM      3  N   UNL     1       5.907   3.935  14.716  0.00  0.00    +0.000 NA
ATOM      4  C   UNL     1       6.437   4.650  15.765  0.00  0.00    +0.000 A 
ATOM      5  N   UNL     1       7.427   5.490  15.428  0.00  0.00    +0.000 NA
ATOM      6  O   UNL     1       7.573   5.275  14.055  0.00  0.00    +0.000 OA
BRANCH   2   7
ATOM      7  C   UNL     1       6.667   3.842  12.309  0.00  0.00    +0.000 C 
BRANCH   7   9
ATOM      8  C   UNL     1       4.380   3.260  11.368  0.00  0.00    +0.000 C 
ATOM      9  C   UNL     1       5.641   2.727  12.052  0.00  0.00    +0.000 C 
ATOM     10  C   UNL     1       6.265   1.625  11.189  0.00  0.00    +0.000 C 
ENDBRANCH   7   9
ENDBRANCH   2   7
ENDBRANCH   1   4
BRANCH   1  11
ATOM     11  N   UNL     1       4.541   4.124  17.279  0.00  0.00    +0.000 NA
ATOM     12  C   UNL     1       4.233   2.672  17.298  0.00  0.00    +0.000 C 
BRANCH  11  13
ATOM     13  S   UNL     1       3.785   4.984  18.518  0.00  0.00    +0.000 S 
ATOM     14  O   UNL     1       4.782   5.355  19.486  0.00  0.00    +0.000 OA
ATOM     15  O   UNL     1       2.894   5.963  17.927  0.00  0.00    +0.000 OA
BRANCH  13  16
ATOM     16  N   UNL     1       2.841   3.756  19.196  0.00  0.00    +0.000 NA
ATOM     17  C   UNL     1       1.369   3.927  18.999  0.00  0.00    +0.000 C 
ATOM     18  C   UNL     1       0.809   4.073  20.403  0.00  0.00    +0.000 C 
ATOM     19  C   UNL     1       1.704   3.165  21.215  0.00  0.00    +0.000 C 
ATOM     20  C   UNL     1       3.075   3.449  20.636  0.00  0.00    +0.000 C 
ENDBRANCH  13  16
ENDBRANCH  11  13
ENDBRANCH   1  11
TORSDOF 6
ENDMDL
MODEL 5
REMARK VINA RESULT:      -7.4      1.399      1.961
REMARK  Name = 
REMARK  9 active torsions:
REMARK  status: ('A' for Active; 'I' for Inactive)
REMARK    1  A    between atoms: C_1  and  C_2
REMARK    2  A    between atoms: C_2  and  C_3
REMARK    3  A    between atoms: C_2  and  C_4
REMARK    4  A    between atoms: C_4  and  C_5
REMARK    5  A    between atoms: C_7  and  C_8
REMARK    6  A    between atoms: C_8  and  N_9
REMARK    7  A    between atoms: N_9  and  C_10
REMARK    8  A    between atoms: N_9  and  S_11
REMARK    9  A    between atoms: S_11  and  N_14
REMARK                            x       y       z     vdW  Elec       q    Type
REMARK                         _______ _______ _______ _____ _____    ______ ____
ROOT
ATOM      1  C   UNL     1       6.647   4.270  17.041  0.00  0.00    +0.000 C 
ENDROOT
BRANCH   1   4
ATOM      2  C   UNL     1       6.740   4.269  13.517  0.00  0.00    +0.000 A 
ATOM      3  N   UNL     1       6.255   3.752  14.620  0.00  0.00    +0.000 NA
ATOM      4  C   UNL     1       6.800   4.569  15.584  0.00  0.00    +0.000 A 
ATOM      5  N   UNL     1       7.546   5.577  15.110  0.00  0.00    +0.000 NA
ATOM      6  O   UNL     1       7.511   5.375  13.727  0.00  0.00    +0.000 OA
BRANCH   2   7
ATOM      7  C   UNL     1       6.628   3.773  12.121  0.00  0.00    +0.000 C 
BRANCH   7   9
ATOM      8  C   UNL     1       4.293   3.199  11.302  0.00  0.00    +0.000 C 
ATOM      9  C   UNL     1       5.569   2.671  11.962  0.00  0.00    +0.000 C 
ATOM     10  C   UNL     1       6.133   1.513  11.133  0.00  0.00    +0.000 C 
ENDBRANCH   7   9
ENDBRANCH   2   7
ENDBRANCH   1   4
BRANCH   1  11
ATOM     11  N   UNL     1       5.250   4.480  17.522  0.00  0.00    +0.000 NA
ATOM     12  C   UNL     1       4.307   3.436  17.046  0.00  0.00    +0.000 C 
BRANCH  11  13
ATOM     13  S   UNL     1       5.157   4.758  19.183  0.00  0.00    +0.000 S 
ATOM     14  O   UNL     1       4.433   3.670  19.785  0.00  0.00    +0.000 OA
ATOM     15  O   UNL     1       6.465   5.161  19.661  0.00  0.00    +0.000 OA
BRANCH  13  16
ATOM     16  N   UNL     1       4.151   6.117  19.199  0.00  0.00    +0.000 NA
ATOM     17  C   UNL     1       2.731   5.832  19.572  0.00  0.00    +0.000 C 
ATOM     18  C   UNL     1       1.928   6.209  18.339  0.00  0.00    +0.000 C 
ATOM     19  C   UNL     1       2.697   7.389  17.788  0.00  0.00    +0.000 C 
ATOM     20  C   UNL     1       4.138   6.955  17.966  0.00  0.00    +0.000 C 
ENDBRANCH  13  16
ENDBRANCH  11  13
ENDBRANCH   1  11
TORSDOF 6
ENDMDL
MODEL 6
REMARK VINA RESULT:      -7.3      1.188      1.493
REMARK  Name = 
REMARK  9 active torsions:
REMARK  status: ('A' for Active; 'I' for Inactive)
REMARK    1  A    between atoms: C_1  and  C_2
REMARK    2  A    between atoms: C_2  and  C_3
REMARK    3  A    between atoms: C_2  and  C_4
REMARK    4  A    between atoms: C_4  and  C_5
REMARK    5  A    between atoms: C_7  and  C_8
REMARK    6  A    between atoms: C_8  and  N_9
REMARK    7  A    between atoms: N_9  and  C_10
REMARK    8  A    between atoms: N_9  and  S_11
REMARK    9  A    between atoms: S_11  and  N_14
REMARK                            x       y       z     vdW  Elec       q    Type
REMARK                         _______ _______ _______ _____ _____    ______ ____
ROOT
ATOM      1  C   UNL     1       5.623   3.833  17.902  0.00  0.00    +0.000 C 
ENDROOT
BRANCH   1   4
ATOM      2  C   UNL     1       6.528   4.527  14.566  0.00  0.00    +0.000 A 
ATOM      3  N   UNL     1       5.746   3.883  15.399  0.00  0.00    +0.000 NA
ATOM      4  C   UNL     1       6.141   4.391  16.615  0.00  0.00    +0.000 A 
ATOM      5  N   UNL     1       7.085   5.341  16.547  0.00  0.00    +0.000 NA
ATOM      6  O   UNL     1       7.348   5.430  15.177  0.00  0.00    +0.000 OA
BRANCH   2   7
ATOM      7  C   UNL     1       6.686   4.347  13.100  0.00  0.00    +0.000 C 
BRANCH   7   9
ATOM      8  C   UNL     1       4.622   3.542  11.857  0.00  0.00    +0.000 C 
ATOM      9  C   UNL     1       5.917   3.131  12.561  0.00  0.00    +0.000 C 
ATOM     10  C   UNL     1       6.798   2.339  11.590  0.00  0.00    +0.000 C 
ENDBRANCH   7   9
ENDBRANCH   2   7
ENDBRANCH   1   4
BRANCH   1  11
ATOM     11  N   UNL     1       4.189   4.173  18.134  0.00  0.00    +0.000 NA
ATOM     12  C   UNL     1       3.782   5.447  17.490  0.00  0.00    +0.000 C 
BRANCH  11  13
ATOM     13  S   UNL     1       3.143   2.892  17.803  0.00  0.00    +0.000 S 
ATOM     14  O   UNL     1       2.195   3.325  16.811  0.00  0.00    +0.000 OA
ATOM     15  O   UNL     1       3.927   1.684  17.633  0.00  0.00    +0.000 OA
BRANCH  13  16
ATOM     16  N   UNL     1       2.329   2.786  19.281  0.00  0.00    +0.000 NA
ATOM     17  C   UNL     1       1.087   3.613  19.364  0.00  0.00    +0.000 C 
ATOM     18  C   UNL     1       1.367   4.615  20.471  0.00  0.00    +0.000 C 
ATOM     19  C   UNL     1       2.215   3.818  21.436  0.00  0.00    +0.000 C 
ATOM     20  C   UNL     1       3.134   3.048  20.509  0.00  0.00    +0.000 C 
ENDBRANCH  13  16
ENDBRANCH  11  13
ENDBRANCH   1  11
TORSDOF 6
ENDMDL
MODEL 7
REMARK VINA RESULT:      -7.2      1.465      2.035
REMARK  Name = 
REMARK  9 active torsions:
REMARK  status: ('A' for Active; 'I' for Inactive)
REMARK    1  A    between atoms: C_1  and  C_2
REMARK    2  A    between atoms: C_2  and  C_3
REMARK    3  A    between atoms: C_2  and  C_4
REMARK    4  A    between atoms: C_4  and  C_5
REMARK    5  A    between atoms: C_7  and  C_8
REMARK    6  A    between atoms: C_8  and  N_9
REMARK    7  A    between atoms: N_9  and  C_10
REMARK    8  A    between atoms: N_9  and  S_11
REMARK    9  A    between atoms: S_11  and  N_14
REMARK                            x       y       z     vdW  Elec       q    Type
REMARK                         _______ _______ _______ _____ _____    ______ ____
ROOT
ATOM      1  C   UNL     1       5.297   5.439  16.442  0.00  0.00    +0.000 C 
ENDROOT
BRANCH   1   4
ATOM      2  C   UNL     1       6.491   4.333  13.316  0.00  0.00    +0.000 A 
ATOM      3  N   UNL     1       5.532   4.326  14.209  0.00  0.00    +0.000 NA
ATOM      4  C   UNL     1       5.998   5.226  15.139  0.00  0.00    +0.000 A 
ATOM      5  N   UNL     1       7.164   5.808  14.822  0.00  0.00    +0.000 NA
ATOM      6  O   UNL     1       7.497   5.209  13.604  0.00  0.00    +0.000 OA
BRANCH   2   7
ATOM      7  C   UNL     1       6.656   3.481  12.110  0.00  0.00    +0.000 C 
BRANCH   7   9
ATOM      8  C   UNL     1       4.319   3.153  11.171  0.00  0.00    +0.000 C 
ATOM      9  C   UNL     1       5.490   2.500  11.907  0.00  0.00    +0.000 C 
ATOM     10  C   UNL     1       5.965   1.271  11.126  0.00  0.00    +0.000 C 
ENDBRANCH   7   9
ENDBRANCH   2   7
ENDBRANCH   1   4
BRANCH   1  11
ATOM     11  N   UNL     1       5.803   4.533  17.515  0.00  0.00    +0.000 NA
ATOM     12  C   UNL     1       7.285   4.482  17.582  0.00  0.00    +0.000 C 
BRANCH  11  13
ATOM     13  S   UNL     1       5.075   4.810  19.012  0.00  0.00    +0.000 S 
ATOM     14  O   UNL     1       6.111   4.956  20.000  0.00  0.00    +0.000 OA
ATOM     15  O   UNL     1       4.034   5.804  18.846  0.00  0.00    +0.000 OA
BRANCH  13  16
ATOM     16  N   UNL     1       4.335   3.310  19.261  0.00  0.00    +0.000 NA
ATOM     17  C   UNL     1       3.941   2.598  18.007  0.00  0.00    +0.000 C 
ATOM     18  C   UNL     1       2.428   2.490  18.086  0.00  0.00    +0.000 C 
ATOM     19  C   UNL     1       2.184   2.310  19.566  0.00  0.00    +0.000 C 
ATOM     20  C   UNL     1       3.164   3.286  20.184  0.00  0.00    +0.000 C 
ENDBRANCH  13  16
ENDBRANCH  11  13
ENDBRANCH   1  11
TORSDOF 6
ENDMDL
MODEL 8
REMARK VINA RESULT:      -7.2      1.478      1.735
REMARK  Name = 
REMARK  9 active torsions:
REMARK  status: ('A' for Active; 'I' for Inactive)
REMARK    1  A    between atoms: C_1  and  C_2
REMARK    2  A    between atoms: C_2  and  C_3
REMARK    3  A    between atoms: C_2  and  C_4
REMARK    4  A    between atoms: C_4  and  C_5
REMARK    5  A    between atoms: C_7  and  C_8
REMARK    6  A    between atoms: C_8  and  N_9
REMARK    7  A    between atoms: N_9  and  C_10
REMARK    8  A    between atoms: N_9  and  S_11
REMARK    9  A    between atoms: S_11  and  N_14
REMARK                            x       y       z     vdW  Elec       q    Type
REMARK                         _______ _______ _______ _____ _____    ______ ____
ROOT
ATOM      1  C   UNL     1       6.442   4.260  17.140  0.00  0.00    +0.000 C 
ENDROOT
BRANCH   1   4
ATOM      2  C   UNL     1       6.683   4.296  13.624  0.00  0.00    +0.000 A 
ATOM      3  N   UNL     1       6.080   3.842  14.696  0.00  0.00    +0.000 NA
ATOM      4  C   UNL     1       6.699   4.554  15.697  0.00  0.00    +0.000 A 
ATOM      5  N   UNL     1       7.607   5.446  15.273  0.00  0.00    +0.000 NA
ATOM      6  O   UNL     1       7.600   5.272  13.887  0.00  0.00    +0.000 OA
BRANCH   2   7
ATOM      7  C   UNL     1       6.557   3.843  12.215  0.00  0.00    +0.000 C 
BRANCH   7   9
ATOM      8  C   UNL     1       4.269   3.211  11.313  0.00  0.00    +0.000 C 
ATOM      9  C   UNL     1       5.524   2.720  12.038  0.00  0.00    +0.000 C 
ATOM     10  C   UNL     1       6.140   1.552  11.261  0.00  0.00    +0.000 C 
ENDBRANCH   7   9
ENDBRANCH   2   7
ENDBRANCH   1   4
BRANCH   1  11
ATOM     11  N   UNL     1       5.897   5.441  17.873  0.00  0.00    +0.000 NA
ATOM     12  C   UNL     1       6.654   6.690  17.608  0.00  0.00    +0.000 C 
BRANCH  11  13
ATOM     13  S   UNL     1       4.229   5.619  17.694  0.00  0.00    +0.000 S 
ATOM     14  O   UNL     1       3.958   6.974  17.294  0.00  0.00    +0.000 OA
ATOM     15  O   UNL     1       3.719   4.486  16.948  0.00  0.00    +0.000 OA
BRANCH  13  16
ATOM     16  N   UNL     1       3.741   5.451  19.304  0.00  0.00    +0.000 NA
ATOM     17  C   UNL     1       3.503   4.039  19.735  0.00  0.00    +0.000 C 
ATOM     18  C   UNL     1       2.027   3.991  20.091  0.00  0.00    +0.000 C 
ATOM     19  C   UNL     1       1.778   5.365  20.668  0.00  0.00    +0.000 C 
ATOM     20  C   UNL     1       2.567   6.262  19.737  0.00  0.00    +0.000 C 
ENDBRANCH  13  16
ENDBRANCH  11  13
ENDBRANCH   1  11
TORSDOF 6
ENDMDL
MODEL 9
REMARK VINA RESULT:      -6.9      1.976      2.510
REMARK  Name = 
REMARK  9 active torsions:
REMARK  status: ('A' for Active; 'I' for Inactive)
REMARK    1  A    between atoms: C_1  and  C_2
REMARK    2  A    between atoms: C_2  and  C_3
REMARK    3  A    between atoms: C_2  and  C_4
REMARK    4  A    between atoms: C_4  and  C_5
REMARK    5  A    between atoms: C_7  and  C_8
REMARK    6  A    between atoms: C_8  and  N_9
REMARK    7  A    between atoms: N_9  and  C_10
REMARK    8  A    between atoms: N_9  and  S_11
REMARK    9  A    between atoms: S_11  and  N_14
REMARK                            x       y       z     vdW  Elec       q    Type
REMARK                         _______ _______ _______ _____ _____    ______ ____
ROOT
ATOM      1  C   UNL     1       4.974   6.593  17.189  0.00  0.00    +0.000 C 
ENDROOT
BRANCH   1   4
ATOM      2  C   UNL     1       6.249   4.472  14.679  0.00  0.00    +0.000 A 
ATOM      3  N   UNL     1       5.212   4.897  15.359  0.00  0.00    +0.000 NA
ATOM      4  C   UNL     1       5.761   5.902  16.122  0.00  0.00    +0.000 A 
ATOM      5  N   UNL     1       7.063   6.132  15.896  0.00  0.00    +0.000 NA
ATOM      6  O   UNL     1       7.392   5.174  14.933  0.00  0.00    +0.000 OA
BRANCH   2   7
ATOM      7  C   UNL     1       6.354   3.312  13.757  0.00  0.00    +0.000 C 
BRANCH   7   9
ATOM      8  C   UNL     1       7.135   2.946  11.368  0.00  0.00    +0.000 C 
ATOM      9  C   UNL     1       6.170   3.703  12.282  0.00  0.00    +0.000 C 
ATOM     10  C   UNL     1       4.728   3.432  11.841  0.00  0.00    +0.000 C 
ENDBRANCH   7   9
ENDBRANCH   2   7
ENDBRANCH   1   4
BRANCH   1  11
ATOM     11  N   UNL     1       4.383   5.637  18.171  0.00  0.00    +0.000 NA
ATOM     12  C   UNL     1       5.304   5.304  19.286  0.00  0.00    +0.000 C 
BRANCH  11  13
ATOM     13  S   UNL     1       2.842   6.087  18.687  0.00  0.00    +0.000 S 
ATOM     14  O   UNL     1       2.846   6.150  20.125  0.00  0.00    +0.000 OA
ATOM     15  O   UNL     1       2.386   7.198  17.876  0.00  0.00    +0.000 OA
BRANCH  13  16
ATOM     16  N   UNL     1       1.966   4.713  18.236  0.00  0.00    +0.000 NA
ATOM     17  C   UNL     1       1.284   4.014  19.367  0.00  0.00    +0.000 C 
ATOM     18  C   UNL     1       1.929   2.640  19.414  0.00  0.00    +0.000 C 
ATOM     19  C   UNL     1       2.201   2.349  17.956  0.00  0.00    +0.000 C 
ATOM     20  C   UNL     1       2.696   3.685  17.440  0.00  0.00    +0.000 C 
ENDBRANCH  13  16
ENDBRANCH  11  13
ENDBRANCH   1  11
TORSDOF 6
ENDMDL
