MODEL 1
REMARK VINA RESULT:      -7.3      0.000      0.000
REMARK  Name = 
REMARK  2 active torsions:
REMARK  status: ('A' for Active; 'I' for Inactive)
REMARK    1  A    between atoms: C_7  and  C_9
REMARK    2  A    between atoms: C_9  and  N_10
REMARK                            x       y       z     vdW  Elec       q    Type
REMARK                         _______ _______ _______ _____ _____    ______ ____
ROOT
ATOM      1  C   UNL     1       3.875   4.440  19.014  0.00  0.00    +0.000 C 
ENDROOT
BRANCH   1   2
ATOM      2  N   UNL     1       3.214   5.703  19.301  0.00  0.00    +0.000 N 
ATOM      3  C   UNL     1       3.121   6.750  18.425  0.00  0.00    +0.000 C 
ATOM      4  O   UNL     1       3.611   6.875  17.320  0.00  0.00    +0.000 OA
ATOM      5  C   UNL     1       2.248   7.746  19.044  0.00  0.00    +0.000 A 
ATOM      6  C   UNL     1       1.825   8.978  18.586  0.00  0.00    +0.000 A 
ATOM      7  C   UNL     1       0.945   9.696  19.402  0.00  0.00    +0.000 A 
ATOM      8  C   UNL     1       0.516   9.169  20.639  0.00  0.00    +0.000 A 
ATOM      9  C   UNL     1       0.958   7.918  21.079  0.00  0.00    +0.000 A 
ATOM     10  C   UNL     1       1.826   7.229  20.254  0.00  0.00    +0.000 A 
ATOM     11  C   UNL     1       2.420   5.903  20.401  0.00  0.00    +0.000 C 
ATOM     12  O   UNL     1       2.184   5.157  21.328  0.00  0.00    +0.000 OA
ENDBRANCH   1   2
BRANCH   1  19
ATOM     13  O   UNL     1       6.455   3.844  12.752  0.00  0.00    +0.000 OA
ATOM     14  C   UNL     1       7.096   4.428  13.621  0.00  0.00    +0.000 C 
ATOM     15  N   UNL     1       6.587   4.880  14.814  0.00  0.00    +0.000 N 
ATOM     16  C   UNL     1       5.187   4.647  15.157  0.00  0.00    +0.000 C 
ATOM     17  C   UNL     1       5.087   3.743  16.386  0.00  0.00    +0.000 C 
ATOM     18  N   UNL     1       5.873   4.296  17.492  0.00  0.00    +0.000 N 
ATOM     19  C   UNL     1       5.377   4.629  18.742  0.00  0.00    +0.000 C 
ATOM     20  O   UNL     1       6.110   5.105  19.613  0.00  0.00    +0.000 OA
ATOM     21  C   UNL     1       7.295   4.516  17.165  0.00  0.00    +0.000 C 
ATOM     22  C   UNL     1       7.444   5.382  15.895  0.00  0.00    +0.000 C 
ENDBRANCH   1  19
TORSDOF 2
ENDMDL
MODEL 2
REMARK VINA RESULT:      -7.2      0.227      1.875
REMARK  Name = 
REMARK  2 active torsions:
REMARK  status: ('A' for Active; 'I' for Inactive)
REMARK    1  A    between atoms: C_7  and  C_9
REMARK    2  A    between atoms: C_9  and  N_10
REMARK                            x       y       z     vdW  Elec       q    Type
REMARK                         _______ _______ _______ _____ _____    ______ ____
ROOT
ATOM      1  C   UNL     1       3.714   4.221  18.918  0.00  0.00    +0.000 C 
ENDROOT
BRANCH   1   2
ATOM      2  N   UNL     1       2.948   5.436  19.142  0.00  0.00    +0.000 N 
ATOM      3  C   UNL     1       2.302   5.746  20.307  0.00  0.00    +0.000 C 
ATOM      4  O   UNL     1       2.167   5.079  21.314  0.00  0.00    +0.000 OA
ATOM      5  C   UNL     1       1.800   7.112  20.166  0.00  0.00    +0.000 A 
ATOM      6  C   UNL     1       1.087   7.903  21.045  0.00  0.00    +0.000 A 
ATOM      7  C   UNL     1       0.781   9.203  20.631  0.00  0.00    +0.000 A 
ATOM      8  C   UNL     1       1.192   9.673  19.365  0.00  0.00    +0.000 A 
ATOM      9  C   UNL     1       1.916   8.853  18.495  0.00  0.00    +0.000 A 
ATOM     10  C   UNL     1       2.205   7.573  18.927  0.00  0.00    +0.000 A 
ATOM     11  C   UNL     1       2.971   6.507  18.286  0.00  0.00    +0.000 C 
ATOM     12  O   UNL     1       3.527   6.627  17.215  0.00  0.00    +0.000 OA
ENDBRANCH   1   2
BRANCH   1  19
ATOM     13  O   UNL     1       6.692   4.042  12.809  0.00  0.00    +0.000 OA
ATOM     14  C   UNL     1       7.243   4.629  13.736  0.00  0.00    +0.000 C 
ATOM     15  N   UNL     1       6.636   4.999  14.912  0.00  0.00    +0.000 N 
ATOM     16  C   UNL     1       5.236   4.667  15.159  0.00  0.00    +0.000 C 
ATOM     17  C   UNL     1       5.121   3.708  16.345  0.00  0.00    +0.000 C 
ATOM     18  N   UNL     1       5.803   4.263  17.517  0.00  0.00    +0.000 N 
ATOM     19  C   UNL     1       5.215   4.513  18.747  0.00  0.00    +0.000 C 
ATOM     20  O   UNL     1       5.863   4.998  19.677  0.00  0.00    +0.000 OA
ATOM     21  C   UNL     1       7.226   4.584  17.287  0.00  0.00    +0.000 C 
ATOM     22  C   UNL     1       7.394   5.508  16.062  0.00  0.00    +0.000 C 
ENDBRANCH   1  19
TORSDOF 2
ENDMDL
MODEL 3
REMARK VINA RESULT:      -7.2      2.395      7.234
REMARK  Name = 
REMARK  2 active torsions:
REMARK  status: ('A' for Active; 'I' for Inactive)
REMARK    1  A    between atoms: C_7  and  C_9
REMARK    2  A    between atoms: C_9  and  N_10
REMARK                            x       y       z     vdW  Elec       q    Type
REMARK                         _______ _______ _______ _____ _____    ______ ____
ROOT
ATOM      1  C   UNL     1       5.914   5.164  17.975  0.00  0.00    +0.000 C 
ENDROOT
BRANCH   1   2
ATOM      2  N   UNL     1       6.246   4.838  16.598  0.00  0.00    +0.000 N 
ATOM      3  C   UNL     1       5.580   3.921  15.832  0.00  0.00    +0.000 C 
ATOM      4  O   UNL     1       4.678   3.167  16.143  0.00  0.00    +0.000 OA
ATOM      5  C   UNL     1       6.125   4.020  14.479  0.00  0.00    +0.000 A 
ATOM      6  C   UNL     1       5.805   3.326  13.329  0.00  0.00    +0.000 A 
ATOM      7  C   UNL     1       6.485   3.679  12.159  0.00  0.00    +0.000 A 
ATOM      8  C   UNL     1       7.454   4.704  12.170  0.00  0.00    +0.000 A 
ATOM      9  C   UNL     1       7.758   5.393  13.348  0.00  0.00    +0.000 A 
ATOM     10  C   UNL     1       7.073   5.026  14.489  0.00  0.00    +0.000 A 
ATOM     11  C   UNL     1       7.124   5.573  15.842  0.00  0.00    +0.000 C 
ATOM     12  O   UNL     1       7.809   6.522  16.160  0.00  0.00    +0.000 OA
ENDBRANCH   1   2
BRANCH   1  19
ATOM     13  O   UNL     1       1.538   1.946  22.065  0.00  0.00    +0.000 OA
ATOM     14  C   UNL     1       1.293   3.091  21.692  0.00  0.00    +0.000 C 
ATOM     15  N   UNL     1       2.203   3.953  21.130  0.00  0.00    +0.000 N 
ATOM     16  C   UNL     1       3.579   3.526  20.892  0.00  0.00    +0.000 C 
ATOM     17  C   UNL     1       3.879   3.517  19.392  0.00  0.00    +0.000 C 
ATOM     18  N   UNL     1       3.563   4.821  18.801  0.00  0.00    +0.000 N 
ATOM     19  C   UNL     1       4.455   5.631  18.118  0.00  0.00    +0.000 C 
ATOM     20  O   UNL     1       4.106   6.724  17.665  0.00  0.00    +0.000 OA
ATOM     21  C   UNL     1       2.168   5.254  19.016  0.00  0.00    +0.000 C 
ATOM     22  C   UNL     1       1.804   5.226  20.516  0.00  0.00    +0.000 C 
ENDBRANCH   1  19
TORSDOF 2
ENDMDL
MODEL 4
REMARK VINA RESULT:      -7.1      2.344      7.144
REMARK  Name = 
REMARK  2 active torsions:
REMARK  status: ('A' for Active; 'I' for Inactive)
REMARK    1  A    between atoms: C_7  and  C_9
REMARK    2  A    between atoms: C_9  and  N_10
REMARK                            x       y       z     vdW  Elec       q    Type
REMARK                         _______ _______ _______ _____ _____    ______ ____
ROOT
ATOM      1  C   UNL     1       5.797   5.172  17.835  0.00  0.00    +0.000 C 
ENDROOT
BRANCH   1   2
ATOM      2  N   UNL     1       6.005   5.001  16.407  0.00  0.00    +0.000 N 
ATOM      3  C   UNL     1       7.008   5.594  15.690  0.00  0.00    +0.000 C 
ATOM      4  O   UNL     1       7.839   6.405  16.052  0.00  0.00    +0.000 OA
ATOM      5  C   UNL     1       6.955   5.035  14.340  0.00  0.00    +0.000 A 
ATOM      6  C   UNL     1       7.740   5.286  13.232  0.00  0.00    +0.000 A 
ATOM      7  C   UNL     1       7.464   4.552  12.074  0.00  0.00    +0.000 A 
ATOM      8  C   UNL     1       6.424   3.598  12.055  0.00  0.00    +0.000 A 
ATOM      9  C   UNL     1       5.645   3.362  13.191  0.00  0.00    +0.000 A 
ATOM     10  C   UNL     1       5.938   4.099  14.322  0.00  0.00    +0.000 A 
ATOM     11  C   UNL     1       5.353   4.055  15.659  0.00  0.00    +0.000 C 
ATOM     12  O   UNL     1       4.482   3.277  15.989  0.00  0.00    +0.000 OA
ENDBRANCH   1   2
BRANCH   1  19
ATOM     13  O   UNL     1       1.544   1.919  22.026  0.00  0.00    +0.000 OA
ATOM     14  C   UNL     1       1.359   3.106  21.773  0.00  0.00    +0.000 C 
ATOM     15  N   UNL     1       2.282   3.950  21.203  0.00  0.00    +0.000 N 
ATOM     16  C   UNL     1       3.595   3.450  20.807  0.00  0.00    +0.000 C 
ATOM     17  C   UNL     1       3.766   3.553  19.291  0.00  0.00    +0.000 C 
ATOM     18  N   UNL     1       3.504   4.923  18.840  0.00  0.00    +0.000 N 
ATOM     19  C   UNL     1       4.396   5.726  18.147  0.00  0.00    +0.000 C 
ATOM     20  O   UNL     1       4.096   6.876  17.819  0.00  0.00    +0.000 OA
ATOM     21  C   UNL     1       2.170   5.432  19.215  0.00  0.00    +0.000 C 
ATOM     22  C   UNL     1       1.932   5.297  20.735  0.00  0.00    +0.000 C 
ENDBRANCH   1  19
TORSDOF 2
ENDMDL
MODEL 5
REMARK VINA RESULT:      -6.8      3.079      7.518
REMARK  Name = 
REMARK  2 active torsions:
REMARK  status: ('A' for Active; 'I' for Inactive)
REMARK    1  A    between atoms: C_7  and  C_9
REMARK    2  A    between atoms: C_9  and  N_10
REMARK                            x       y       z     vdW  Elec       q    Type
REMARK                         _______ _______ _______ _____ _____    ______ ____
ROOT
ATOM      1  C   UNL     1       2.813   7.840  19.261  0.00  0.00    +0.000 C 
ENDROOT
BRANCH   1   2
ATOM      2  N   UNL     1       2.557   6.438  18.973  0.00  0.00    +0.000 N 
ATOM      3  C   UNL     1       3.148   5.730  17.963  0.00  0.00    +0.000 C 
ATOM      4  O   UNL     1       3.902   6.115  17.091  0.00  0.00    +0.000 OA
ATOM      5  C   UNL     1       2.740   4.336  18.126  0.00  0.00    +0.000 A 
ATOM      6  C   UNL     1       3.054   3.215  17.383  0.00  0.00    +0.000 A 
ATOM      7  C   UNL     1       2.533   1.992  17.818  0.00  0.00    +0.000 A 
ATOM      8  C   UNL     1       1.723   1.923  18.971  0.00  0.00    +0.000 A 
ATOM      9  C   UNL     1       1.422   3.072  19.708  0.00  0.00    +0.000 A 
ATOM     10  C   UNL     1       1.948   4.267  19.257  0.00  0.00    +0.000 A 
ATOM     11  C   UNL     1       1.861   5.613  19.818  0.00  0.00    +0.000 C 
ATOM     12  O   UNL     1       1.294   5.874  20.858  0.00  0.00    +0.000 OA
ENDBRANCH   1   2
BRANCH   1  19
ATOM     13  O   UNL     1      -1.661  11.813  22.489  0.00  0.00    +0.000 OA
ATOM     14  C   UNL     1      -1.359  12.059  21.325  0.00  0.00    +0.000 C 
ATOM     15  N   UNL     1      -0.272  11.542  20.661  0.00  0.00    +0.000 N 
ATOM     16  C   UNL     1       0.614  10.589  21.322  0.00  0.00    +0.000 C 
ATOM     17  C   UNL     1       0.558   9.235  20.614  0.00  0.00    +0.000 C 
ATOM     18  N   UNL     1       0.838   9.395  19.184  0.00  0.00    +0.000 N 
ATOM     19  C   UNL     1       1.859   8.767  18.489  0.00  0.00    +0.000 C 
ATOM     20  O   UNL     1       2.031   8.972  17.286  0.00  0.00    +0.000 OA
ATOM     21  C   UNL     1      -0.066  10.340  18.499  0.00  0.00    +0.000 C 
ATOM     22  C   UNL     1      -0.083  11.708  19.214  0.00  0.00    +0.000 C 
ENDBRANCH   1  19
TORSDOF 2
ENDMDL
MODEL 6
REMARK VINA RESULT:      -6.6      1.032      1.204
REMARK  Name = 
REMARK  2 active torsions:
REMARK  status: ('A' for Active; 'I' for Inactive)
REMARK    1  A    between atoms: C_7  and  C_9
REMARK    2  A    between atoms: C_9  and  N_10
REMARK                            x       y       z     vdW  Elec       q    Type
REMARK                         _______ _______ _______ _____ _____    ______ ____
ROOT
ATOM      1  C   UNL     1       2.783   5.534  18.460  0.00  0.00    +0.000 C 
ENDROOT
BRANCH   1   2
ATOM      2  N   UNL     1       2.342   6.769  19.087  0.00  0.00    +0.000 N 
ATOM      3  C   UNL     1       2.214   7.967  18.440  0.00  0.00    +0.000 C 
ATOM      4  O   UNL     1       2.502   8.260  17.295  0.00  0.00    +0.000 OA
ATOM      5  C   UNL     1       1.596   8.896  19.384  0.00  0.00    +0.000 A 
ATOM      6  C   UNL     1       1.245  10.224  19.239  0.00  0.00    +0.000 A 
ATOM      7  C   UNL     1       0.623  10.844  20.328  0.00  0.00    +0.000 A 
ATOM      8  C   UNL     1       0.372  10.129  21.518  0.00  0.00    +0.000 A 
ATOM      9  C   UNL     1       0.735   8.784  21.638  0.00  0.00    +0.000 A 
ATOM     10  C   UNL     1       1.346   8.195  20.549  0.00  0.00    +0.000 A 
ATOM     11  C   UNL     1       1.796   6.821  20.343  0.00  0.00    +0.000 C 
ATOM     12  O   UNL     1       1.648   5.934  21.158  0.00  0.00    +0.000 OA
ENDBRANCH   1   2
BRANCH   1  19
ATOM     13  O   UNL     1       6.890   4.316  13.180  0.00  0.00    +0.000 OA
ATOM     14  C   UNL     1       7.367   4.690  14.248  0.00  0.00    +0.000 C 
ATOM     15  N   UNL     1       6.657   5.252  15.281  0.00  0.00    +0.000 N 
ATOM     16  C   UNL     1       5.209   5.412  15.182  0.00  0.00    +0.000 C 
ATOM     17  C   UNL     1       4.508   4.557  16.239  0.00  0.00    +0.000 C 
ATOM     18  N   UNL     1       5.038   4.858  17.571  0.00  0.00    +0.000 N 
ATOM     19  C   UNL     1       4.292   5.301  18.652  0.00  0.00    +0.000 C 
ATOM     20  O   UNL     1       4.824   5.546  19.737  0.00  0.00    +0.000 OA
ATOM     21  C   UNL     1       6.498   4.679  17.690  0.00  0.00    +0.000 C 
ATOM     22  C   UNL     1       7.246   5.484  16.606  0.00  0.00    +0.000 C 
ENDBRANCH   1  19
TORSDOF 2
ENDMDL
MODEL 7
REMARK VINA RESULT:      -6.5      3.061      7.685
REMARK  Name = 
REMARK  2 active torsions:
REMARK  status: ('A' for Active; 'I' for Inactive)
REMARK    1  A    between atoms: C_7  and  C_9
REMARK    2  A    between atoms: C_9  and  N_10
REMARK                            x       y       z     vdW  Elec       q    Type
REMARK                         _______ _______ _______ _____ _____    ______ ____
ROOT
ATOM      1  C   UNL     1       2.911   7.957  19.266  0.00  0.00    +0.000 C 
ENDROOT
BRANCH   1   2
ATOM      2  N   UNL     1       2.762   6.520  19.107  0.00  0.00    +0.000 N 
ATOM      3  C   UNL     1       1.936   5.734  19.864  0.00  0.00    +0.000 C 
ATOM      4  O   UNL     1       1.256   6.034  20.826  0.00  0.00    +0.000 OA
ATOM      5  C   UNL     1       1.964   4.397  19.276  0.00  0.00    +0.000 A 
ATOM      6  C   UNL     1       1.311   3.238  19.647  0.00  0.00    +0.000 A 
ATOM      7  C   UNL     1       1.511   2.107  18.849  0.00  0.00    +0.000 A 
ATOM      8  C   UNL     1       2.348   2.164  17.714  0.00  0.00    +0.000 A 
ATOM      9  C   UNL     1       2.996   3.351  17.358  0.00  0.00    +0.000 A 
ATOM     10  C   UNL     1       2.781   4.453  18.162  0.00  0.00    +0.000 A 
ATOM     11  C   UNL     1       3.265   5.825  18.037  0.00  0.00    +0.000 C 
ATOM     12  O   UNL     1       3.949   6.218  17.116  0.00  0.00    +0.000 OA
ENDBRANCH   1   2
BRANCH   1  19
ATOM     13  O   UNL     1      -1.658  11.933  22.354  0.00  0.00    +0.000 OA
ATOM     14  C   UNL     1      -1.437  12.079  21.155  0.00  0.00    +0.000 C 
ATOM     15  N   UNL     1      -0.354  11.570  20.480  0.00  0.00    +0.000 N 
ATOM     16  C   UNL     1       0.633  10.750  21.177  0.00  0.00    +0.000 C 
ATOM     17  C   UNL     1       0.637   9.330  20.610  0.00  0.00    +0.000 C 
ATOM     18  N   UNL     1       0.827   9.362  19.157  0.00  0.00    +0.000 N 
ATOM     19  C   UNL     1       1.852   8.735  18.467  0.00  0.00    +0.000 C 
ATOM     20  O   UNL     1       1.945   8.827  17.240  0.00  0.00    +0.000 OA
ATOM     21  C   UNL     1      -0.178  10.170  18.439  0.00  0.00    +0.000 C 
ATOM     22  C   UNL     1      -0.254  11.600  19.016  0.00  0.00    +0.000 C 
ENDBRANCH   1  19
TORSDOF 2
ENDMDL
MODEL 8
REMARK VINA RESULT:      -6.5      2.946      6.861
REMARK  Name = 
REMARK  2 active torsions:
REMARK  status: ('A' for Active; 'I' for Inactive)
REMARK    1  A    between atoms: C_7  and  C_9
REMARK    2  A    between atoms: C_9  and  N_10
REMARK                            x       y       z     vdW  Elec       q    Type
REMARK                         _______ _______ _______ _____ _____    ______ ____
ROOT
ATOM      1  C   UNL     1       5.522   5.867  17.588  0.00  0.00    +0.000 C 
ENDROOT
BRANCH   1   2
ATOM      2  N   UNL     1       5.935   5.318  16.307  0.00  0.00    +0.000 N 
ATOM      3  C   UNL     1       5.181   4.468  15.545  0.00  0.00    +0.000 C 
ATOM      4  O   UNL     1       4.108   3.954  15.796  0.00  0.00    +0.000 OA
ATOM      5  C   UNL     1       5.889   4.291  14.278  0.00  0.00    +0.000 A 
ATOM      6  C   UNL     1       5.565   3.543  13.164  0.00  0.00    +0.000 A 
ATOM      7  C   UNL     1       6.437   3.608  12.073  0.00  0.00    +0.000 A 
ATOM      8  C   UNL     1       7.597   4.411  12.124  0.00  0.00    +0.000 A 
ATOM      9  C   UNL     1       7.901   5.161  13.263  0.00  0.00    +0.000 A 
ATOM     10  C   UNL     1       7.024   5.079  14.327  0.00  0.00    +0.000 A 
ATOM     11  C   UNL     1       7.033   5.763  15.617  0.00  0.00    +0.000 C 
ATOM     12  O   UNL     1       7.864   6.587  15.938  0.00  0.00    +0.000 OA
ENDBRANCH   1   2
BRANCH   1  19
ATOM     13  O   UNL     1      -0.089   2.413  19.269  0.00  0.00    +0.000 OA
ATOM     14  C   UNL     1       1.013   1.978  19.593  0.00  0.00    +0.000 C 
ATOM     15  N   UNL     1       2.215   2.396  19.074  0.00  0.00    +0.000 N 
ATOM     16  C   UNL     1       2.260   3.466  18.081  0.00  0.00    +0.000 C 
ATOM     17  C   UNL     1       3.005   4.678  18.643  0.00  0.00    +0.000 C 
ATOM     18  N   UNL     1       4.327   4.281  19.134  0.00  0.00    +0.000 N 
ATOM     19  C   UNL     1       5.536   4.802  18.699  0.00  0.00    +0.000 C 
ATOM     20  O   UNL     1       6.607   4.398  19.158  0.00  0.00    +0.000 OA
ATOM     21  C   UNL     1       4.293   3.215  20.154  0.00  0.00    +0.000 C 
ATOM     22  C   UNL     1       3.503   1.989  19.649  0.00  0.00    +0.000 C 
ENDBRANCH   1  19
TORSDOF 2
ENDMDL
MODEL 9
REMARK VINA RESULT:      -6.5      2.960      6.708
REMARK  Name = 
REMARK  2 active torsions:
REMARK  status: ('A' for Active; 'I' for Inactive)
REMARK    1  A    between atoms: C_7  and  C_9
REMARK    2  A    between atoms: C_9  and  N_10
REMARK                            x       y       z     vdW  Elec       q    Type
REMARK                         _______ _______ _______ _____ _____    ______ ____
ROOT
ATOM      1  C   UNL     1       5.515   5.914  17.631  0.00  0.00    +0.000 C 
ENDROOT
BRANCH   1   2
ATOM      2  N   UNL     1       5.826   5.540  16.261  0.00  0.00    +0.000 N 
ATOM      3  C   UNL     1       6.980   5.873  15.607  0.00  0.00    +0.000 C 
ATOM      4  O   UNL     1       7.899   6.578  15.975  0.00  0.00    +0.000 OA
ATOM      5  C   UNL     1       6.960   5.170  14.325  0.00  0.00    +0.000 A 
ATOM      6  C   UNL     1       7.879   5.155  13.294  0.00  0.00    +0.000 A 
ATOM      7  C   UNL     1       7.592   4.339  12.194  0.00  0.00    +0.000 A 
ATOM      8  C   UNL     1       6.410   3.570  12.155  0.00  0.00    +0.000 A 
ATOM      9  C   UNL     1       5.498   3.601  13.214  0.00  0.00    +0.000 A 
ATOM     10  C   UNL     1       5.804   4.413  14.288  0.00  0.00    +0.000 A 
ATOM     11  C   UNL     1       5.094   4.627  15.547  0.00  0.00    +0.000 C 
ATOM     12  O   UNL     1       4.075   4.045  15.853  0.00  0.00    +0.000 OA
ENDBRANCH   1   2
BRANCH   1  19
ATOM     13  O   UNL     1      -0.056   2.426  19.374  0.00  0.00    +0.000 OA
ATOM     14  C   UNL     1       1.052   1.920  19.530  0.00  0.00    +0.000 C 
ATOM     15  N   UNL     1       2.217   2.370  18.957  0.00  0.00    +0.000 N 
ATOM     16  C   UNL     1       2.216   3.562  18.115  0.00  0.00    +0.000 C 
ATOM     17  C   UNL     1       3.058   4.666  18.758  0.00  0.00    +0.000 C 
ATOM     18  N   UNL     1       4.403   4.169  19.061  0.00  0.00    +0.000 N 
ATOM     19  C   UNL     1       5.586   4.709  18.584  0.00  0.00    +0.000 C 
ATOM     20  O   UNL     1       6.677   4.216  18.880  0.00  0.00    +0.000 OA
ATOM     21  C   UNL     1       4.419   2.975  19.930  0.00  0.00    +0.000 C 
ATOM     22  C   UNL     1       3.536   1.852  19.346  0.00  0.00    +0.000 C 
ENDBRANCH   1  19
TORSDOF 2
ENDMDL
