MODEL 1
REMARK VINA RESULT:      -8.0      0.000      0.000
REMARK  Name = 
REMARK  8 active torsions:
REMARK  status: ('A' for Active; 'I' for Inactive)
REMARK    1  A    between atoms: C_1  and  C_2
REMARK    2  A    between atoms: C_4  and  C_5
REMARK    3  A    between atoms: N_7  and  C_8
REMARK    4  A    between atoms: C_8  and  C_9
REMARK    5  A    between atoms: C_9  and  C_10
REMARK    6  A    between atoms: C_10  and  N_11
REMARK    7  A    between atoms: N_14  and  C_15
REMARK    8  A    between atoms: C_26  and  C_27
REMARK                            x       y       z     vdW  Elec       q    Type
REMARK                         _______ _______ _______ _____ _____    ______ ____
ROOT
ATOM      1  C   UNL     1       7.953   7.304  18.174  0.00  0.00    +0.000 C 
ENDROOT
BRANCH   1   2
ATOM      2  N   UNL     1       7.400   6.381  17.155  0.00  0.00    +0.000 NA
ATOM      3  C   UNL     1       7.451   4.984  17.639  0.00  0.00    +0.000 C 
ATOM      4  C   UNL     1       6.422   4.724  18.758  0.00  0.00    +0.000 C 
ATOM      5  N   UNL     1       5.097   5.120  18.298  0.00  0.00    +0.000 N 
ATOM      6  C   UNL     1       4.986   6.480  17.778  0.00  0.00    +0.000 C 
ATOM      7  C   UNL     1       6.031   6.694  16.675  0.00  0.00    +0.000 C 
BRANCH   5   8
ATOM      8  C   UNL     1       3.980   4.207  18.298  0.00  0.00    +0.000 A 
ATOM      9  C   UNL     1       3.905   3.192  17.318  0.00  0.00    +0.000 A 
ATOM     10  C   UNL     1       2.844   2.288  17.291  0.00  0.00    +0.000 A 
ATOM     11  C   UNL     1       1.828   2.372  18.236  0.00  0.00    +0.000 A 
ATOM     12  C   UNL     1       1.856   3.368  19.209  0.00  0.00    +0.000 A 
ATOM     13 CL   UNL     1       0.522   3.437  20.360  0.00  0.00    +0.000 Cl
ATOM     14  C   UNL     1       2.916   4.295  19.252  0.00  0.00    +0.000 A 
ATOM     15 CL   UNL     1       2.800   5.585  20.460  0.00  0.00    +0.000 Cl
ENDBRANCH   5   8
ENDBRANCH   1   2
BRANCH   1  16
ATOM     16  C   UNL     1       8.005   8.760  17.714  0.00  0.00    +0.000 C 
BRANCH  16  17
ATOM     17  C   UNL     1       8.948   9.536  18.626  0.00  0.00    +0.000 C 
BRANCH  17  20
ATOM     18  C   UNL     1       9.642  11.788  18.024  0.00  0.00    +0.000 C 
ATOM     19  O   UNL     1      10.708  11.332  17.631  0.00  0.00    +0.000 OA
ATOM     20  N   UNL     1       8.701  10.958  18.541  0.00  0.00    +0.000 N 
ATOM     21  H   UNL     1       7.804  11.340  18.877  0.00  0.00    +0.000 HD
BRANCH  18  25
ATOM     22  C   UNL     1      11.272  16.410  17.089  0.00  0.00    +0.000 C 
ATOM     23  C   UNL     1      10.175  15.467  17.468  0.00  0.00    +0.000 A 
ATOM     24  C   UNL     1      10.436  14.104  17.575  0.00  0.00    +0.000 A 
ATOM     25  C   UNL     1       9.395  13.240  17.921  0.00  0.00    +0.000 A 
ATOM     26  N   UNL     1       8.154  13.751  18.149  0.00  0.00    +0.000 NA
ATOM     27  C   UNL     1       7.909  15.082  18.047  0.00  0.00    +0.000 A 
ATOM     28  C   UNL     1       6.537  15.613  18.306  0.00  0.00    +0.000 C 
ATOM     29  N   UNL     1       8.917  15.930  17.705  0.00  0.00    +0.000 NA
ENDBRANCH  18  25
ENDBRANCH  17  20
ENDBRANCH  16  17
ENDBRANCH   1  16
TORSDOF 6
ENDMDL
MODEL 2
REMARK VINA RESULT:      -7.8      0.877      1.722
REMARK  Name = 
REMARK  8 active torsions:
REMARK  status: ('A' for Active; 'I' for Inactive)
REMARK    1  A    between atoms: C_1  and  C_2
REMARK    2  A    between atoms: C_4  and  C_5
REMARK    3  A    between atoms: N_7  and  C_8
REMARK    4  A    between atoms: C_8  and  C_9
REMARK    5  A    between atoms: C_9  and  C_10
REMARK    6  A    between atoms: C_10  and  N_11
REMARK    7  A    between atoms: N_14  and  C_15
REMARK    8  A    between atoms: C_26  and  C_27
REMARK                            x       y       z     vdW  Elec       q    Type
REMARK                         _______ _______ _______ _____ _____    ______ ____
ROOT
ATOM      1  C   UNL     1       7.933   7.436  18.110  0.00  0.00    +0.000 C 
ENDROOT
BRANCH   1   2
ATOM      2  N   UNL     1       7.379   6.506  17.097  0.00  0.00    +0.000 NA
ATOM      3  C   UNL     1       7.466   5.108  17.575  0.00  0.00    +0.000 C 
ATOM      4  C   UNL     1       6.464   4.825  18.711  0.00  0.00    +0.000 C 
ATOM      5  N   UNL     1       5.123   5.196  18.277  0.00  0.00    +0.000 N 
ATOM      6  C   UNL     1       4.975   6.556  17.764  0.00  0.00    +0.000 C 
ATOM      7  C   UNL     1       5.996   6.794  16.644  0.00  0.00    +0.000 C 
BRANCH   5   8
ATOM      8  C   UNL     1       4.024   4.261  18.294  0.00  0.00    +0.000 A 
ATOM      9  C   UNL     1       4.000   3.191  17.371  0.00  0.00    +0.000 A 
ATOM     10  C   UNL     1       2.958   2.265  17.362  0.00  0.00    +0.000 A 
ATOM     11  C   UNL     1       1.911   2.381  18.268  0.00  0.00    +0.000 A 
ATOM     12  C   UNL     1       1.888   3.430  19.183  0.00  0.00    +0.000 A 
ATOM     13 CL   UNL     1       0.516   3.536  20.287  0.00  0.00    +0.000 Cl
ATOM     14  C   UNL     1       2.928   4.381  19.208  0.00  0.00    +0.000 A 
ATOM     15 CL   UNL     1       2.748   5.733  20.337  0.00  0.00    +0.000 Cl
ENDBRANCH   5   8
ENDBRANCH   1   2
BRANCH   1  16
ATOM     16  C   UNL     1       7.922   8.898  17.665  0.00  0.00    +0.000 C 
BRANCH  16  17
ATOM     17  C   UNL     1       8.849   9.700  18.573  0.00  0.00    +0.000 C 
BRANCH  17  20
ATOM     18  C   UNL     1       9.181  12.065  19.028  0.00  0.00    +0.000 C 
ATOM     19  O   UNL     1       9.301  11.799  20.217  0.00  0.00    +0.000 OA
ATOM     20  N   UNL     1       8.948  11.072  18.132  0.00  0.00    +0.000 N 
ATOM     21  H   UNL     1       8.842  11.295  17.130  0.00  0.00    +0.000 HD
BRANCH  18  25
ATOM     22  C   UNL     1       7.233  16.632  18.529  0.00  0.00    +0.000 C 
ATOM     23  C   UNL     1       8.364  15.670  18.347  0.00  0.00    +0.000 A 
ATOM     24  C   UNL     1       8.224  14.347  18.756  0.00  0.00    +0.000 A 
ATOM     25  C   UNL     1       9.298  13.469  18.586  0.00  0.00    +0.000 A 
ATOM     26  N   UNL     1      10.448  13.927  18.022  0.00  0.00    +0.000 NA
ATOM     27  C   UNL     1      10.574  15.218  17.622  0.00  0.00    +0.000 A 
ATOM     28  C   UNL     1      11.850  15.689  17.004  0.00  0.00    +0.000 C 
ATOM     29  N   UNL     1       9.535  16.081  17.789  0.00  0.00    +0.000 NA
ENDBRANCH  18  25
ENDBRANCH  17  20
ENDBRANCH  16  17
ENDBRANCH   1  16
TORSDOF 6
ENDMDL
MODEL 3
REMARK VINA RESULT:      -7.5      1.124      1.127
REMARK  Name = 
REMARK  8 active torsions:
REMARK  status: ('A' for Active; 'I' for Inactive)
REMARK    1  A    between atoms: C_1  and  C_2
REMARK    2  A    between atoms: C_4  and  C_5
REMARK    3  A    between atoms: N_7  and  C_8
REMARK    4  A    between atoms: C_8  and  C_9
REMARK    5  A    between atoms: C_9  and  C_10
REMARK    6  A    between atoms: C_10  and  N_11
REMARK    7  A    between atoms: N_14  and  C_15
REMARK    8  A    between atoms: C_26  and  C_27
REMARK                            x       y       z     vdW  Elec       q    Type
REMARK                         _______ _______ _______ _____ _____    ______ ____
ROOT
ATOM      1  C   UNL     1       6.982   8.053  17.678  0.00  0.00    +0.000 C 
ENDROOT
BRANCH   1   2
ATOM      2  N   UNL     1       6.792   6.777  16.949  0.00  0.00    +0.000 NA
ATOM      3  C   UNL     1       7.132   5.628  17.817  0.00  0.00    +0.000 C 
ATOM      4  C   UNL     1       6.081   5.413  18.924  0.00  0.00    +0.000 C 
ATOM      5  N   UNL     1       4.759   5.299  18.321  0.00  0.00    +0.000 N 
ATOM      6  C   UNL     1       4.374   6.387  17.426  0.00  0.00    +0.000 C 
ATOM      7  C   UNL     1       5.451   6.570  16.349  0.00  0.00    +0.000 C 
BRANCH   5   8
ATOM      8  C   UNL     1       3.909   4.155  18.543  0.00  0.00    +0.000 A 
ATOM      9  C   UNL     1       4.022   3.025  17.702  0.00  0.00    +0.000 A 
ATOM     10  C   UNL     1       3.221   1.899  17.891  0.00  0.00    +0.000 A 
ATOM     11  C   UNL     1       2.287   1.868  18.918  0.00  0.00    +0.000 A 
ATOM     12  C   UNL     1       2.133   2.967  19.760  0.00  0.00    +0.000 A 
ATOM     13 CL   UNL     1       0.910   2.874  21.027  0.00  0.00    +0.000 Cl
ATOM     14  C   UNL     1       2.928   4.118  19.585  0.00  0.00    +0.000 A 
ATOM     15 CL   UNL     1       2.579   5.497  20.639  0.00  0.00    +0.000 Cl
ENDBRANCH   5   8
ENDBRANCH   1   2
BRANCH   1  16
ATOM     16  C   UNL     1       8.349   8.693  17.440  0.00  0.00    +0.000 C 
BRANCH  16  17
ATOM     17  C   UNL     1       8.768   9.450  18.695  0.00  0.00    +0.000 C 
BRANCH  17  20
ATOM     18  C   UNL     1       9.402  11.701  19.362  0.00  0.00    +0.000 C 
ATOM     19  O   UNL     1       9.833  11.246  20.414  0.00  0.00    +0.000 OA
ATOM     20  N   UNL     1       8.848  10.871  18.443  0.00  0.00    +0.000 N 
ATOM     21  H   UNL     1       8.480  11.253  17.557  0.00  0.00    +0.000 HD
BRANCH  18  25
ATOM     22  C   UNL     1      11.457  15.555  16.950  0.00  0.00    +0.000 C 
ATOM     23  C   UNL     1      10.484  15.011  17.947  0.00  0.00    +0.000 A 
ATOM     24  C   UNL     1      10.423  13.640  18.181  0.00  0.00    +0.000 A 
ATOM     25  C   UNL     1       9.499  13.153  19.109  0.00  0.00    +0.000 A 
ATOM     26  N   UNL     1       8.689  14.028  19.764  0.00  0.00    +0.000 NA
ATOM     27  C   UNL     1       8.759  15.364  19.533  0.00  0.00    +0.000 A 
ATOM     28  C   UNL     1       7.857  16.299  20.269  0.00  0.00    +0.000 C 
ATOM     29  N   UNL     1       9.652  15.847  18.626  0.00  0.00    +0.000 NA
ENDBRANCH  18  25
ENDBRANCH  17  20
ENDBRANCH  16  17
ENDBRANCH   1  16
TORSDOF 6
ENDMDL
MODEL 4
REMARK VINA RESULT:      -7.5      4.837      7.770
REMARK  Name = 
REMARK  8 active torsions:
REMARK  status: ('A' for Active; 'I' for Inactive)
REMARK    1  A    between atoms: C_1  and  C_2
REMARK    2  A    between atoms: C_4  and  C_5
REMARK    3  A    between atoms: N_7  and  C_8
REMARK    4  A    between atoms: C_8  and  C_9
REMARK    5  A    between atoms: C_9  and  C_10
REMARK    6  A    between atoms: C_10  and  N_11
REMARK    7  A    between atoms: N_14  and  C_15
REMARK    8  A    between atoms: C_26  and  C_27
REMARK                            x       y       z     vdW  Elec       q    Type
REMARK                         _______ _______ _______ _____ _____    ______ ____
ROOT
ATOM      1  C   UNL     1       2.312   2.972  20.305  0.00  0.00    +0.000 C 
ENDROOT
BRANCH   1   2
ATOM      2  N   UNL     1       1.236   3.729  19.623  0.00  0.00    +0.000 NA
ATOM      3  C   UNL     1       0.648   4.733  20.538  0.00  0.00    +0.000 C 
ATOM      4  C   UNL     1       1.613   5.905  20.802  0.00  0.00    +0.000 C 
ATOM      5  N   UNL     1       2.042   6.475  19.531  0.00  0.00    +0.000 N 
ATOM      6  C   UNL     1       2.603   5.530  18.569  0.00  0.00    +0.000 C 
ATOM      7  C   UNL     1       1.614   4.380  18.344  0.00  0.00    +0.000 C 
BRANCH   5   8
ATOM      8  C   UNL     1       1.866   7.872  19.218  0.00  0.00    +0.000 A 
ATOM      9  C   UNL     1       2.346   8.381  17.990  0.00  0.00    +0.000 A 
ATOM     10  C   UNL     1       2.188   9.724  17.651  0.00  0.00    +0.000 A 
ATOM     11  C   UNL     1       1.553  10.597  18.525  0.00  0.00    +0.000 A 
ATOM     12  C   UNL     1       1.080  10.140  19.753  0.00  0.00    +0.000 A 
ATOM     13 CL   UNL     1       0.309  11.305  20.828  0.00  0.00    +0.000 Cl
ATOM     14  C   UNL     1       1.232   8.787  20.119  0.00  0.00    +0.000 A 
ATOM     15 CL   UNL     1       0.692   8.334  21.743  0.00  0.00    +0.000 Cl
ENDBRANCH   5   8
ENDBRANCH   1   2
BRANCH   1  16
ATOM     16  C   UNL     1       2.986   1.932  19.411  0.00  0.00    +0.000 C 
BRANCH  16  17
ATOM     17  C   UNL     1       4.495   2.005  19.614  0.00  0.00    +0.000 C 
BRANCH  17  20
ATOM     18  C   UNL     1       5.641   4.040  18.937  0.00  0.00    +0.000 C 
ATOM     19  O   UNL     1       5.584   4.434  20.095  0.00  0.00    +0.000 OA
ATOM     20  N   UNL     1       5.116   2.833  18.606  0.00  0.00    +0.000 N 
ATOM     21  H   UNL     1       5.159   2.502  17.630  0.00  0.00    +0.000 HD
BRANCH  18  25
ATOM     22  C   UNL     1       7.057   4.833  14.218  0.00  0.00    +0.000 C 
ATOM     23  C   UNL     1       6.969   5.275  15.645  0.00  0.00    +0.000 A 
ATOM     24  C   UNL     1       6.369   4.450  16.592  0.00  0.00    +0.000 A 
ATOM     25  C   UNL     1       6.289   4.888  17.916  0.00  0.00    +0.000 A 
ATOM     26  N   UNL     1       6.804   6.103  18.248  0.00  0.00    +0.000 NA
ATOM     27  C   UNL     1       7.392   6.898  17.318  0.00  0.00    +0.000 A 
ATOM     28  C   UNL     1       7.949   8.227  17.714  0.00  0.00    +0.000 C 
ATOM     29  N   UNL     1       7.469   6.482  16.024  0.00  0.00    +0.000 NA
ENDBRANCH  18  25
ENDBRANCH  17  20
ENDBRANCH  16  17
ENDBRANCH   1  16
TORSDOF 6
ENDMDL
MODEL 5
REMARK VINA RESULT:      -7.4      5.479      8.319
REMARK  Name = 
REMARK  8 active torsions:
REMARK  status: ('A' for Active; 'I' for Inactive)
REMARK    1  A    between atoms: C_1  and  C_2
REMARK    2  A    between atoms: C_4  and  C_5
REMARK    3  A    between atoms: N_7  and  C_8
REMARK    4  A    between atoms: C_8  and  C_9
REMARK    5  A    between atoms: C_9  and  C_10
REMARK    6  A    between atoms: C_10  and  N_11
REMARK    7  A    between atoms: N_14  and  C_15
REMARK    8  A    between atoms: C_26  and  C_27
REMARK                            x       y       z     vdW  Elec       q    Type
REMARK                         _______ _______ _______ _____ _____    ______ ____
ROOT
ATOM      1  C   UNL     1       3.187   4.381  20.462  0.00  0.00    +0.000 C 
ENDROOT
BRANCH   1   2
ATOM      2  N   UNL     1       2.090   4.873  19.596  0.00  0.00    +0.000 NA
ATOM      3  C   UNL     1       0.968   5.379  20.418  0.00  0.00    +0.000 C 
ATOM      4  C   UNL     1       1.320   6.710  21.112  0.00  0.00    +0.000 C 
ATOM      5  N   UNL     1       1.775   7.671  20.115  0.00  0.00    +0.000 N 
ATOM      6  C   UNL     1       2.860   7.220  19.249  0.00  0.00    +0.000 C 
ATOM      7  C   UNL     1       2.470   5.892  18.587  0.00  0.00    +0.000 C 
BRANCH   5   8
ATOM      8  C   UNL     1       1.151   8.962  19.953  0.00  0.00    +0.000 A 
ATOM      9  C   UNL     1       1.002   9.510  18.658  0.00  0.00    +0.000 A 
ATOM     10  C   UNL     1       0.399  10.752  18.463  0.00  0.00    +0.000 A 
ATOM     11  C   UNL     1      -0.067  11.482  19.548  0.00  0.00    +0.000 A 
ATOM     12  C   UNL     1       0.075  10.986  20.841  0.00  0.00    +0.000 A 
ATOM     13 CL   UNL     1      -0.513  11.976  22.177  0.00  0.00    +0.000 Cl
ATOM     14  C   UNL     1       0.685   9.735  21.064  0.00  0.00    +0.000 A 
ATOM     15 CL   UNL     1       0.912   9.246  22.750  0.00  0.00    +0.000 Cl
ENDBRANCH   5   8
ENDBRANCH   1   2
BRANCH   1  16
ATOM     16  C   UNL     1       3.115   2.881  20.744  0.00  0.00    +0.000 C 
BRANCH  16  17
ATOM     17  C   UNL     1       3.937   2.138  19.697  0.00  0.00    +0.000 C 
BRANCH  17  20
ATOM     18  C   UNL     1       4.717   3.352  17.739  0.00  0.00    +0.000 C 
ATOM     19  O   UNL     1       3.778   2.889  17.103  0.00  0.00    +0.000 OA
ATOM     20  N   UNL     1       4.875   3.025  19.047  0.00  0.00    +0.000 N 
ATOM     21  H   UNL     1       5.667   3.411  19.583  0.00  0.00    +0.000 HD
BRANCH  18  25
ATOM     22  C   UNL     1       7.179   4.816  13.653  0.00  0.00    +0.000 C 
ATOM     23  C   UNL     1       6.846   4.977  15.103  0.00  0.00    +0.000 A 
ATOM     24  C   UNL     1       5.965   4.091  15.717  0.00  0.00    +0.000 A 
ATOM     25  C   UNL     1       5.662   4.267  17.069  0.00  0.00    +0.000 A 
ATOM     26  N   UNL     1       6.236   5.294  17.752  0.00  0.00    +0.000 NA
ATOM     27  C   UNL     1       7.098   6.151  17.146  0.00  0.00    +0.000 A 
ATOM     28  C   UNL     1       7.714   7.267  17.924  0.00  0.00    +0.000 C 
ATOM     29  N   UNL     1       7.395   5.990  15.828  0.00  0.00    +0.000 NA
ENDBRANCH  18  25
ENDBRANCH  17  20
ENDBRANCH  16  17
ENDBRANCH   1  16
TORSDOF 6
ENDMDL
MODEL 6
REMARK VINA RESULT:      -7.4      4.957      7.789
REMARK  Name = 
REMARK  8 active torsions:
REMARK  status: ('A' for Active; 'I' for Inactive)
REMARK    1  A    between atoms: C_1  and  C_2
REMARK    2  A    between atoms: C_4  and  C_5
REMARK    3  A    between atoms: N_7  and  C_8
REMARK    4  A    between atoms: C_8  and  C_9
REMARK    5  A    between atoms: C_9  and  C_10
REMARK    6  A    between atoms: C_10  and  N_11
REMARK    7  A    between atoms: N_14  and  C_15
REMARK    8  A    between atoms: C_26  and  C_27
REMARK                            x       y       z     vdW  Elec       q    Type
REMARK                         _______ _______ _______ _____ _____    ______ ____
ROOT
ATOM      1  C   UNL     1       2.636   2.581  18.766  0.00  0.00    +0.000 C 
ENDROOT
BRANCH   1   2
ATOM      2  N   UNL     1       1.380   3.363  18.680  0.00  0.00    +0.000 NA
ATOM      3  C   UNL     1       0.953   3.805  20.027  0.00  0.00    +0.000 C 
ATOM      4  C   UNL     1       1.868   4.913  20.586  0.00  0.00    +0.000 C 
ATOM      5  N   UNL     1       1.948   6.006  19.625  0.00  0.00    +0.000 N 
ATOM      6  C   UNL     1       2.335   5.631  18.267  0.00  0.00    +0.000 C 
ATOM      7  C   UNL     1       1.404   4.524  17.757  0.00  0.00    +0.000 C 
BRANCH   5   8
ATOM      8  C   UNL     1       1.607   7.363  19.976  0.00  0.00    +0.000 A 
ATOM      9  C   UNL     1       1.007   7.633  21.227  0.00  0.00    +0.000 A 
ATOM     10  C   UNL     1       0.669   8.932  21.603  0.00  0.00    +0.000 A 
ATOM     11  C   UNL     1       0.915   9.996  20.744  0.00  0.00    +0.000 A 
ATOM     12  C   UNL     1       1.489   9.771  19.495  0.00  0.00    +0.000 A 
ATOM     13 CL   UNL     1       1.748  11.161  18.442  0.00  0.00    +0.000 Cl
ATOM     14  C   UNL     1       1.835   8.466  19.092  0.00  0.00    +0.000 A 
ATOM     15 CL   UNL     1       2.459   8.277  17.446  0.00  0.00    +0.000 Cl
ENDBRANCH   5   8
ENDBRANCH   1   2
BRANCH   1  16
ATOM     16  C   UNL     1       3.054   2.252  20.198  0.00  0.00    +0.000 C 
BRANCH  16  17
ATOM     17  C   UNL     1       4.574   2.172  20.267  0.00  0.00    +0.000 C 
BRANCH  17  20
ATOM     18  C   UNL     1       5.461   4.199  19.258  0.00  0.00    +0.000 C 
ATOM     19  O   UNL     1       5.190   4.805  20.287  0.00  0.00    +0.000 OA
ATOM     20  N   UNL     1       5.183   2.874  19.160  0.00  0.00    +0.000 N 
ATOM     21  H   UNL     1       5.406   2.363  18.292  0.00  0.00    +0.000 HD
BRANCH  18  25
ATOM     22  C   UNL     1       7.976   8.138  17.509  0.00  0.00    +0.000 C 
ATOM     23  C   UNL     1       7.308   6.817  17.292  0.00  0.00    +0.000 A 
ATOM     24  C   UNL     1       6.703   6.161  18.361  0.00  0.00    +0.000 A 
ATOM     25  C   UNL     1       6.094   4.924  18.138  0.00  0.00    +0.000 A 
ATOM     26  N   UNL     1       6.103   4.394  16.884  0.00  0.00    +0.000 NA
ATOM     27  C   UNL     1       6.691   5.043  15.847  0.00  0.00    +0.000 A 
ATOM     28  C   UNL     1       6.682   4.436  14.483  0.00  0.00    +0.000 C 
ATOM     29  N   UNL     1       7.292   6.246  16.057  0.00  0.00    +0.000 NA
ENDBRANCH  18  25
ENDBRANCH  17  20
ENDBRANCH  16  17
ENDBRANCH   1  16
TORSDOF 6
ENDMDL
MODEL 7
REMARK VINA RESULT:      -7.3      2.433      3.032
REMARK  Name = 
REMARK  8 active torsions:
REMARK  status: ('A' for Active; 'I' for Inactive)
REMARK    1  A    between atoms: C_1  and  C_2
REMARK    2  A    between atoms: C_4  and  C_5
REMARK    3  A    between atoms: N_7  and  C_8
REMARK    4  A    between atoms: C_8  and  C_9
REMARK    5  A    between atoms: C_9  and  C_10
REMARK    6  A    between atoms: C_10  and  N_11
REMARK    7  A    between atoms: N_14  and  C_15
REMARK    8  A    between atoms: C_26  and  C_27
REMARK                            x       y       z     vdW  Elec       q    Type
REMARK                         _______ _______ _______ _____ _____    ______ ____
ROOT
ATOM      1  C   UNL     1       8.024   7.371  18.160  0.00  0.00    +0.000 C 
ENDROOT
BRANCH   1   2
ATOM      2  N   UNL     1       7.541   6.346  17.205  0.00  0.00    +0.000 NA
ATOM      3  C   UNL     1       7.533   5.009  17.840  0.00  0.00    +0.000 C 
ATOM      4  C   UNL     1       6.415   4.878  18.893  0.00  0.00    +0.000 C 
ATOM      5  N   UNL     1       5.137   5.230  18.288  0.00  0.00    +0.000 N 
ATOM      6  C   UNL     1       5.086   6.525  17.617  0.00  0.00    +0.000 C 
ATOM      7  C   UNL     1       6.219   6.612  16.586  0.00  0.00    +0.000 C 
BRANCH   5   8
ATOM      8  C   UNL     1       4.010   4.328  18.297  0.00  0.00    +0.000 A 
ATOM      9  C   UNL     1       3.951   3.271  17.361  0.00  0.00    +0.000 A 
ATOM     10  C   UNL     1       2.881   2.377  17.343  0.00  0.00    +0.000 A 
ATOM     11  C   UNL     1       1.842   2.513  18.255  0.00  0.00    +0.000 A 
ATOM     12  C   UNL     1       1.853   3.550  19.184  0.00  0.00    +0.000 A 
ATOM     13 CL   UNL     1       0.489   3.682  20.293  0.00  0.00    +0.000 Cl
ATOM     14  C   UNL     1       2.922   4.468  19.217  0.00  0.00    +0.000 A 
ATOM     15 CL   UNL     1       2.786   5.810  20.363  0.00  0.00    +0.000 Cl
ENDBRANCH   5   8
ENDBRANCH   1   2
BRANCH   1  16
ATOM     16  C   UNL     1       7.712   8.803  17.727  0.00  0.00    +0.000 C 
BRANCH  16  17
ATOM     17  C   UNL     1       8.928   9.680  17.999  0.00  0.00    +0.000 C 
BRANCH  17  20
ATOM     18  C   UNL     1       9.495  11.536  19.464  0.00  0.00    +0.000 C 
ATOM     19  O   UNL     1      10.273  11.945  18.612  0.00  0.00    +0.000 OA
ATOM     20  N   UNL     1       8.780  10.404  19.241  0.00  0.00    +0.000 N 
ATOM     21  H   UNL     1       8.127  10.056  19.959  0.00  0.00    +0.000 HD
BRANCH  18  25
ATOM     22  C   UNL     1       7.928  11.808  24.194  0.00  0.00    +0.000 C 
ATOM     23  C   UNL     1       8.592  12.424  23.003  0.00  0.00    +0.000 A 
ATOM     24  C   UNL     1       8.709  11.699  21.821  0.00  0.00    +0.000 A 
ATOM     25  C   UNL     1       9.341  12.291  20.724  0.00  0.00    +0.000 A 
ATOM     26  N   UNL     1       9.821  13.559  20.837  0.00  0.00    +0.000 NA
ATOM     27  C   UNL     1       9.697  14.261  21.993  0.00  0.00    +0.000 A 
ATOM     28  C   UNL     1      10.232  15.652  22.085  0.00  0.00    +0.000 C 
ATOM     29  N   UNL     1       9.088  13.690  23.068  0.00  0.00    +0.000 NA
ENDBRANCH  18  25
ENDBRANCH  17  20
ENDBRANCH  16  17
ENDBRANCH   1  16
TORSDOF 6
ENDMDL
MODEL 8
REMARK VINA RESULT:      -7.2      6.458      8.750
REMARK  Name = 
REMARK  8 active torsions:
REMARK  status: ('A' for Active; 'I' for Inactive)
REMARK    1  A    between atoms: C_1  and  C_2
REMARK    2  A    between atoms: C_4  and  C_5
REMARK    3  A    between atoms: N_7  and  C_8
REMARK    4  A    between atoms: C_8  and  C_9
REMARK    5  A    between atoms: C_9  and  C_10
REMARK    6  A    between atoms: C_10  and  N_11
REMARK    7  A    between atoms: N_14  and  C_15
REMARK    8  A    between atoms: C_26  and  C_27
REMARK                            x       y       z     vdW  Elec       q    Type
REMARK                         _______ _______ _______ _____ _____    ______ ____
ROOT
ATOM      1  C   UNL     1       2.897   3.117  19.356  0.00  0.00    +0.000 C 
ENDROOT
BRANCH   1   2
ATOM      2  N   UNL     1       1.678   3.887  19.011  0.00  0.00    +0.000 NA
ATOM      3  C   UNL     1       0.972   4.318  20.238  0.00  0.00    +0.000 C 
ATOM      4  C   UNL     1       1.737   5.432  20.980  0.00  0.00    +0.000 C 
ATOM      5  N   UNL     1       2.005   6.530  20.061  0.00  0.00    +0.000 N 
ATOM      6  C   UNL     1       2.673   6.166  18.814  0.00  0.00    +0.000 C 
ATOM      7  C   UNL     1       1.882   5.053  18.116  0.00  0.00    +0.000 C 
BRANCH   5   8
ATOM      8  C   UNL     1       1.582   7.882  20.336  0.00  0.00    +0.000 A 
ATOM      9  C   UNL     1       1.208   8.245  21.650  0.00  0.00    +0.000 A 
ATOM     10  C   UNL     1       0.800   9.543  21.954  0.00  0.00    +0.000 A 
ATOM     11  C   UNL     1       0.750  10.513  20.960  0.00  0.00    +0.000 A 
ATOM     12  C   UNL     1       1.094  10.192  19.649  0.00  0.00    +0.000 A 
ATOM     13 CL   UNL     1       0.982  11.462  18.431  0.00  0.00    +0.000 Cl
ATOM     14  C   UNL     1       1.506   8.886  19.318  0.00  0.00    +0.000 A 
ATOM     15 CL   UNL     1       1.818   8.557  17.606  0.00  0.00    +0.000 Cl
ENDBRANCH   5   8
ENDBRANCH   1   2
BRANCH   1  16
ATOM     16  C   UNL     1       3.702   2.672  18.137  0.00  0.00    +0.000 C 
BRANCH  16  17
ATOM     17  C   UNL     1       4.960   3.526  18.033  0.00  0.00    +0.000 C 
BRANCH  17  20
ATOM     18  C   UNL     1       5.459   4.441  15.836  0.00  0.00    +0.000 C 
ATOM     19  O   UNL     1       4.858   5.462  16.147  0.00  0.00    +0.000 OA
ATOM     20  N   UNL     1       5.557   3.417  16.721  0.00  0.00    +0.000 N 
ATOM     21  H   UNL     1       6.059   2.555  16.460  0.00  0.00    +0.000 HD
BRANCH  18  25
ATOM     22  C   UNL     1       5.712   2.342  11.317  0.00  0.00    +0.000 C 
ATOM     23  C   UNL     1       6.199   3.339  12.320  0.00  0.00    +0.000 A 
ATOM     24  C   UNL     1       5.612   3.399  13.581  0.00  0.00    +0.000 A 
ATOM     25  C   UNL     1       6.076   4.345  14.498  0.00  0.00    +0.000 A 
ATOM     26  N   UNL     1       7.090   5.179  14.139  0.00  0.00    +0.000 NA
ATOM     27  C   UNL     1       7.658   5.110  12.908  0.00  0.00    +0.000 A 
ATOM     28  C   UNL     1       8.771   6.039  12.545  0.00  0.00    +0.000 C 
ATOM     29  N   UNL     1       7.209   4.195  12.007  0.00  0.00    +0.000 NA
ENDBRANCH  18  25
ENDBRANCH  17  20
ENDBRANCH  16  17
ENDBRANCH   1  16
TORSDOF 6
ENDMDL
MODEL 9
REMARK VINA RESULT:      -7.1      4.838      7.639
REMARK  Name = 
REMARK  8 active torsions:
REMARK  status: ('A' for Active; 'I' for Inactive)
REMARK    1  A    between atoms: C_1  and  C_2
REMARK    2  A    between atoms: C_4  and  C_5
REMARK    3  A    between atoms: N_7  and  C_8
REMARK    4  A    between atoms: C_8  and  C_9
REMARK    5  A    between atoms: C_9  and  C_10
REMARK    6  A    between atoms: C_10  and  N_11
REMARK    7  A    between atoms: N_14  and  C_15
REMARK    8  A    between atoms: C_26  and  C_27
REMARK                            x       y       z     vdW  Elec       q    Type
REMARK                         _______ _______ _______ _____ _____    ______ ____
ROOT
ATOM      1  C   UNL     1       2.502   2.337  18.770  0.00  0.00    +0.000 C 
ENDROOT
BRANCH   1   2
ATOM      2  N   UNL     1       1.306   3.209  18.686  0.00  0.00    +0.000 NA
ATOM      3  C   UNL     1       1.164   4.013  19.921  0.00  0.00    +0.000 C 
ATOM      4  C   UNL     1       2.238   5.115  20.017  0.00  0.00    +0.000 C 
ATOM      5  N   UNL     1       2.212   5.923  18.804  0.00  0.00    +0.000 N 
ATOM      6  C   UNL     1       2.318   5.186  17.548  0.00  0.00    +0.000 C 
ATOM      7  C   UNL     1       1.237   4.098  17.500  0.00  0.00    +0.000 C 
BRANCH   5   8
ATOM      8  C   UNL     1       2.032   7.354  18.839  0.00  0.00    +0.000 A 
ATOM      9  C   UNL     1       2.432   8.137  17.732  0.00  0.00    +0.000 A 
ATOM     10  C   UNL     1       2.268   9.522  17.728  0.00  0.00    +0.000 A 
ATOM     11  C   UNL     1       1.705  10.163  18.824  0.00  0.00    +0.000 A 
ATOM     12  C   UNL     1       1.313   9.430  19.942  0.00  0.00    +0.000 A 
ATOM     13 CL   UNL     1       0.632  10.309  21.310  0.00  0.00    +0.000 Cl
ATOM     14  C   UNL     1       1.473   8.030  19.970  0.00  0.00    +0.000 A 
ATOM     15 CL   UNL     1       1.042   7.208  21.477  0.00  0.00    +0.000 Cl
ENDBRANCH   5   8
ENDBRANCH   1   2
BRANCH   1  16
ATOM     16  C   UNL     1       2.988   2.106  20.200  0.00  0.00    +0.000 C 
BRANCH  16  17
ATOM     17  C   UNL     1       4.512   2.148  20.219  0.00  0.00    +0.000 C 
BRANCH  17  20
ATOM     18  C   UNL     1       5.694   4.059  19.290  0.00  0.00    +0.000 C 
ATOM     19  O   UNL     1       5.857   4.485  20.426  0.00  0.00    +0.000 OA
ATOM     20  N   UNL     1       5.026   2.894  19.094  0.00  0.00    +0.000 N 
ATOM     21  H   UNL     1       4.883   2.536  18.137  0.00  0.00    +0.000 HD
BRANCH  18  25
ATOM     22  C   UNL     1       7.901   8.141  17.455  0.00  0.00    +0.000 C 
ATOM     23  C   UNL     1       7.300   6.785  17.261  0.00  0.00    +0.000 A 
ATOM     24  C   UNL     1       6.782   6.092  18.351  0.00  0.00    +0.000 A 
ATOM     25  C   UNL     1       6.234   4.823  18.148  0.00  0.00    +0.000 A 
ATOM     26  N   UNL     1       6.217   4.299  16.891  0.00  0.00    +0.000 NA
ATOM     27  C   UNL     1       6.720   4.985  15.834  0.00  0.00    +0.000 A 
ATOM     28  C   UNL     1       6.685   4.384  14.467  0.00  0.00    +0.000 C 
ATOM     29  N   UNL     1       7.261   6.219  16.024  0.00  0.00    +0.000 NA
ENDBRANCH  18  25
ENDBRANCH  17  20
ENDBRANCH  16  17
ENDBRANCH   1  16
TORSDOF 6
ENDMDL
