MODEL 1
REMARK VINA RESULT:      -6.9      0.000      0.000
REMARK  Name = 
REMARK  7 active torsions:
REMARK  status: ('A' for Active; 'I' for Inactive)
REMARK    1  A    between atoms: C_1  and  C_2
REMARK    2  A    between atoms: C_2  and  C_3
REMARK    3  A    between atoms: C_2  and  C_8
REMARK    4  A    between atoms: C_3  and  C_4
REMARK    5  A    between atoms: C_13  and  O_14
REMARK    6  A    between atoms: C_13  and  C_15
REMARK    7  A    between atoms: C_15  and  N_16
REMARK                            x       y       z     vdW  Elec       q    Type
REMARK                         _______ _______ _______ _____ _____    ______ ____
ROOT
ATOM      1  C   UNL     1       2.917   5.921  19.510  0.00  0.00    +0.000 C 
ATOM      2  O   UNL     1       3.205   6.761  20.366  0.00  0.00    +0.000 OA
ATOM      3  N   UNL     1       3.485   5.961  18.244  0.00  0.00    +0.000 N 
ATOM      4  C   UNL     1       3.126   5.149  17.091  0.00  0.00    +0.000 C 
ATOM      5  C   UNL     1       4.352   4.445  16.519  0.00  0.00    +0.000 C 
ATOM      6  C   UNL     1       5.539   5.405  16.256  0.00  0.00    +0.000 C 
ATOM      7  C   UNL     1       5.830   6.283  17.537  0.00  0.00    +0.000 C 
ATOM      8  C   UNL     1       6.896   7.391  17.301  0.00  0.00    +0.000 C 
ATOM      9  C   UNL     1       7.939   7.234  18.406  0.00  0.00    +0.000 C 
ATOM     10  C   UNL     1       7.864   5.776  18.809  0.00  0.00    +0.000 C 
ATOM     11  C   UNL     1       6.380   5.468  18.739  0.00  0.00    +0.000 C 
ATOM     12  C   UNL     1       4.503   6.968  17.959  0.00  0.00    +0.000 C 
ENDROOT
BRANCH   1  14
ATOM     13  C   UNL     1       0.658   5.267  20.408  0.00  0.00    +0.000 C 
ATOM     14  C   UNL     1       1.997   4.752  19.871  0.00  0.00    +0.000 C 
BRANCH  14  15
ATOM     15  C   UNL     1       2.684   3.758  20.830  0.00  0.00    +0.000 C 
BRANCH  15  16
ATOM     16  C   UNL     1       3.031   2.404  20.207  0.00  0.00    +0.000 C 
ATOM     17  C   UNL     1       2.356   1.954  18.881  0.00  0.00    +0.000 C 
ATOM     18  C   UNL     1       3.706   1.331  18.480  0.00  0.00    +0.000 C 
ATOM     19  C   UNL     1       4.371   2.363  19.412  0.00  0.00    +0.000 C 
ENDBRANCH  15  16
ENDBRANCH  14  15
ENDBRANCH   1  14
BRANCH   6  20
ATOM     20  O   UNL     1       5.142   6.317  15.207  0.00  0.00    +0.000 OA
ATOM     21  H   UNL     1       5.922   6.853  14.978  0.00  0.00    +0.000 HD
ENDBRANCH   6  20
BRANCH   6  22
ATOM     22  C   UNL     1       6.781   4.602  15.738  0.00  0.00    +0.000 C 
BRANCH  22  23
ATOM     23  N   UNL     1       6.770   4.369  14.281  0.00  0.00    +0.000 N 
ATOM     24  C   UNL     1       5.869   3.487  13.714  0.00  0.00    +0.000 A 
ATOM     25  C   UNL     1       5.895   3.223  12.400  0.00  0.00    +0.000 A 
ATOM     26  N   UNL     1       6.779   3.777  11.509  0.00  0.00    +0.000 NA
ATOM     27  C   UNL     1       7.616   4.642  11.997  0.00  0.00    +0.000 A 
ATOM     28  C   UNL     1       7.676   5.034  13.459  0.00  0.00    +0.000 A 
ATOM     29  O   UNL     1       8.508   5.861  13.813  0.00  0.00    +0.000 OA
ENDBRANCH  22  23
ENDBRANCH   6  22
TORSDOF 6
ENDMDL
MODEL 2
REMARK VINA RESULT:      -6.0      8.422     12.356
REMARK  Name = 
REMARK  7 active torsions:
REMARK  status: ('A' for Active; 'I' for Inactive)
REMARK    1  A    between atoms: C_1  and  C_2
REMARK    2  A    between atoms: C_2  and  C_3
REMARK    3  A    between atoms: C_2  and  C_8
REMARK    4  A    between atoms: C_3  and  C_4
REMARK    5  A    between atoms: C_13  and  O_14
REMARK    6  A    between atoms: C_13  and  C_15
REMARK    7  A    between atoms: C_15  and  N_16
REMARK                            x       y       z     vdW  Elec       q    Type
REMARK                         _______ _______ _______ _____ _____    ______ ____
ROOT
ATOM      1  C   UNL     1       1.225  11.130  19.172  0.00  0.00    +0.000 C 
ATOM      2  O   UNL     1       2.141  11.640  18.523  0.00  0.00    +0.000 OA
ATOM      3  N   UNL     1       0.738  11.731  20.324  0.00  0.00    +0.000 N 
ATOM      4  C   UNL     1      -0.214  11.175  21.274  0.00  0.00    +0.000 C 
ATOM      5  C   UNL     1      -1.386  12.127  21.490  0.00  0.00    +0.000 C 
ATOM      6  C   UNL     1      -0.942  13.572  21.831  0.00  0.00    +0.000 C 
ATOM      7  C   UNL     1       0.126  14.080  20.784  0.00  0.00    +0.000 C 
ATOM      8  C   UNL     1       0.749  15.457  21.151  0.00  0.00    +0.000 C 
ATOM      9  C   UNL     1       0.597  16.346  19.918  0.00  0.00    +0.000 C 
ATOM     10  C   UNL     1      -0.597  15.784  19.176  0.00  0.00    +0.000 C 
ATOM     11  C   UNL     1      -0.450  14.285  19.356  0.00  0.00    +0.000 C 
ATOM     12  C   UNL     1       1.269  13.032  20.719  0.00  0.00    +0.000 C 
ENDROOT
BRANCH   1  14
ATOM     13  C   UNL     1       1.572   8.878  18.100  0.00  0.00    +0.000 C 
ATOM     14  C   UNL     1       0.537   9.865  18.649  0.00  0.00    +0.000 C 
BRANCH  14  15
ATOM     15  C   UNL     1      -0.574  10.196  17.632  0.00  0.00    +0.000 C 
BRANCH  15  16
ATOM     16  C   UNL     1      -1.982  10.279  18.228  0.00  0.00    +0.000 C 
ATOM     17  C   UNL     1      -2.784  11.610  18.165  0.00  0.00    +0.000 C 
ATOM     18  C   UNL     1      -4.046  10.763  17.920  0.00  0.00    +0.000 C 
ATOM     19  C   UNL     1      -3.114   9.681  17.338  0.00  0.00    +0.000 C 
ENDBRANCH  15  16
ENDBRANCH  14  15
ENDBRANCH   1  14
BRANCH   6  20
ATOM     20  O   UNL     1      -0.282  13.536  23.116  0.00  0.00    +0.000 OA
ATOM     21  H   UNL     1      -0.308  14.438  23.480  0.00  0.00    +0.000 HD
ENDBRANCH   6  20
BRANCH   6  22
ATOM     22  C   UNL     1      -2.194  14.504  21.968  0.00  0.00    +0.000 C 
BRANCH  22  23
ATOM     23  N   UNL     1      -3.422  13.791  22.369  0.00  0.00    +0.000 N 
ATOM     24  C   UNL     1      -4.310  13.326  21.417  0.00  0.00    +0.000 A 
ATOM     25  C   UNL     1      -5.458  12.734  21.776  0.00  0.00    +0.000 A 
ATOM     26  N   UNL     1      -5.861  12.530  23.071  0.00  0.00    +0.000 NA
ATOM     27  C   UNL     1      -5.035  12.917  23.994  0.00  0.00    +0.000 A 
ATOM     28  C   UNL     1      -3.703  13.584  23.717  0.00  0.00    +0.000 A 
ATOM     29  O   UNL     1      -3.001  13.912  24.665  0.00  0.00    +0.000 OA
ENDBRANCH  22  23
ENDBRANCH   6  22
TORSDOF 6
ENDMDL
MODEL 3
REMARK VINA RESULT:      -6.0      2.287      6.804
REMARK  Name = 
REMARK  7 active torsions:
REMARK  status: ('A' for Active; 'I' for Inactive)
REMARK    1  A    between atoms: C_1  and  C_2
REMARK    2  A    between atoms: C_2  and  C_3
REMARK    3  A    between atoms: C_2  and  C_8
REMARK    4  A    between atoms: C_3  and  C_4
REMARK    5  A    between atoms: C_13  and  O_14
REMARK    6  A    between atoms: C_13  and  C_15
REMARK    7  A    between atoms: C_15  and  N_16
REMARK                            x       y       z     vdW  Elec       q    Type
REMARK                         _______ _______ _______ _____ _____    ______ ____
ROOT
ATOM      1  C   UNL     1       6.708   4.214  13.752  0.00  0.00    +0.000 C 
ATOM      2  O   UNL     1       7.418   5.116  13.300  0.00  0.00    +0.000 OA
ATOM      3  N   UNL     1       6.576   4.019  15.119  0.00  0.00    +0.000 N 
ATOM      4  C   UNL     1       5.914   2.911  15.792  0.00  0.00    +0.000 C 
ATOM      5  C   UNL     1       4.872   3.420  16.782  0.00  0.00    +0.000 C 
ATOM      6  C   UNL     1       5.426   4.492  17.753  0.00  0.00    +0.000 C 
ATOM      7  C   UNL     1       6.171   5.630  16.948  0.00  0.00    +0.000 C 
ATOM      8  C   UNL     1       6.904   6.656  17.858  0.00  0.00    +0.000 C 
ATOM      9  C   UNL     1       6.434   8.041  17.418  0.00  0.00    +0.000 C 
ATOM     10  C   UNL     1       5.067   7.815  16.806  0.00  0.00    +0.000 C 
ATOM     11  C   UNL     1       5.225   6.496  16.073  0.00  0.00    +0.000 C 
ATOM     12  C   UNL     1       7.226   4.955  16.032  0.00  0.00    +0.000 C 
ENDROOT
BRANCH   1  14
ATOM     13  C   UNL     1       6.775   2.643  11.786  0.00  0.00    +0.000 C 
ATOM     14  C   UNL     1       5.872   3.356  12.797  0.00  0.00    +0.000 C 
BRANCH  14  15
ATOM     15  C   UNL     1       4.750   4.173  12.126  0.00  0.00    +0.000 C 
BRANCH  15  16
ATOM     16  C   UNL     1       4.211   3.573  10.825  0.00  0.00    +0.000 C 
ATOM     17  C   UNL     1       3.037   2.555  10.858  0.00  0.00    +0.000 C 
ATOM     18  C   UNL     1       2.513   3.215   9.569  0.00  0.00    +0.000 C 
ATOM     19  C   UNL     1       3.247   4.494  10.018  0.00  0.00    +0.000 C 
ENDBRANCH  15  16
ENDBRANCH  14  15
ENDBRANCH   1  14
BRANCH   6  20
ATOM     20  O   UNL     1       6.418   3.855  18.589  0.00  0.00    +0.000 OA
ATOM     21  H   UNL     1       6.850   4.555  19.110  0.00  0.00    +0.000 HD
ENDBRANCH   6  20
BRANCH   6  22
ATOM     22  C   UNL     1       4.285   5.017  18.689  0.00  0.00    +0.000 C 
BRANCH  22  23
ATOM     23  N   UNL     1       3.136   4.096  18.796  0.00  0.00    +0.000 N 
ATOM     24  C   UNL     1       1.973   4.335  18.087  0.00  0.00    +0.000 A 
ATOM     25  C   UNL     1       0.904   3.539  18.228  0.00  0.00    +0.000 A 
ATOM     26  N   UNL     1       0.848   2.444  19.053  0.00  0.00    +0.000 NA
ATOM     27  C   UNL     1       1.935   2.163  19.705  0.00  0.00    +0.000 A 
ATOM     28  C   UNL     1       3.210   2.977  19.619  0.00  0.00    +0.000 A 
ATOM     29  O   UNL     1       4.179   2.623  20.280  0.00  0.00    +0.000 OA
ENDBRANCH  22  23
ENDBRANCH   6  22
TORSDOF 6
ENDMDL
MODEL 4
REMARK VINA RESULT:      -6.0      8.324     12.214
REMARK  Name = 
REMARK  7 active torsions:
REMARK  status: ('A' for Active; 'I' for Inactive)
REMARK    1  A    between atoms: C_1  and  C_2
REMARK    2  A    between atoms: C_2  and  C_3
REMARK    3  A    between atoms: C_2  and  C_8
REMARK    4  A    between atoms: C_3  and  C_4
REMARK    5  A    between atoms: C_13  and  O_14
REMARK    6  A    between atoms: C_13  and  C_15
REMARK    7  A    between atoms: C_15  and  N_16
REMARK                            x       y       z     vdW  Elec       q    Type
REMARK                         _______ _______ _______ _____ _____    ______ ____
ROOT
ATOM      1  C   UNL     1       1.300  11.061  19.028  0.00  0.00    +0.000 C 
ATOM      2  O   UNL     1       2.189  11.551  18.328  0.00  0.00    +0.000 OA
ATOM      3  N   UNL     1       0.874  11.685  20.192  0.00  0.00    +0.000 N 
ATOM      4  C   UNL     1      -0.037  11.154  21.195  0.00  0.00    +0.000 C 
ATOM      5  C   UNL     1      -1.187  12.122  21.451  0.00  0.00    +0.000 C 
ATOM      6  C   UNL     1      -0.713  13.567  21.747  0.00  0.00    +0.000 C 
ATOM      7  C   UNL     1       0.309  14.047  20.642  0.00  0.00    +0.000 C 
ATOM      8  C   UNL     1       0.962  15.423  20.957  0.00  0.00    +0.000 C 
ATOM      9  C   UNL     1       0.761  16.294  19.719  0.00  0.00    +0.000 C 
ATOM     10  C   UNL     1      -0.474  15.734  19.044  0.00  0.00    +0.000 C 
ATOM     11  C   UNL     1      -0.332  14.236  19.241  0.00  0.00    +0.000 C 
ATOM     12  C   UNL     1       1.437  12.986  20.541  0.00  0.00    +0.000 C 
ENDROOT
BRANCH   1  14
ATOM     13  C   UNL     1       1.574   8.783  17.991  0.00  0.00    +0.000 C 
ATOM     14  C   UNL     1       0.575   9.795  18.560  0.00  0.00    +0.000 C 
BRANCH  14  15
ATOM     15  C   UNL     1      -0.570  10.121  17.580  0.00  0.00    +0.000 C 
BRANCH  15  16
ATOM     16  C   UNL     1      -1.941  10.304  18.237  0.00  0.00    +0.000 C 
ATOM     17  C   UNL     1      -2.710  11.646  18.089  0.00  0.00    +0.000 C 
ATOM     18  C   UNL     1      -4.006  10.820  17.993  0.00  0.00    +0.000 C 
ATOM     19  C   UNL     1      -3.135   9.660  17.469  0.00  0.00    +0.000 C 
ENDBRANCH  15  16
ENDBRANCH  14  15
ENDBRANCH   1  14
BRANCH   6  20
ATOM     20  O   UNL     1       0.007  13.544  23.000  0.00  0.00    +0.000 OA
ATOM     21  H   UNL     1       0.944  13.384  22.792  0.00  0.00    +0.000 HD
ENDBRANCH   6  20
BRANCH   6  22
ATOM     22  C   UNL     1      -1.948  14.515  21.929  0.00  0.00    +0.000 C 
BRANCH  22  23
ATOM     23  N   UNL     1      -3.138  13.838  22.478  0.00  0.00    +0.000 N 
ATOM     24  C   UNL     1      -3.202  13.497  23.817  0.00  0.00    +0.000 A 
ATOM     25  C   UNL     1      -4.252  12.826  24.309  0.00  0.00    +0.000 A 
ATOM     26  N   UNL     1      -5.336  12.421  23.572  0.00  0.00    +0.000 NA
ATOM     27  C   UNL     1      -5.333  12.757  22.318  0.00  0.00    +0.000 A 
ATOM     28  C   UNL     1      -4.212  13.528  21.649  0.00  0.00    +0.000 A 
ATOM     29  O   UNL     1      -4.311  13.791  20.457  0.00  0.00    +0.000 OA
ENDBRANCH  22  23
ENDBRANCH   6  22
TORSDOF 6
ENDMDL
MODEL 5
REMARK VINA RESULT:      -5.9      2.286      6.946
REMARK  Name = 
REMARK  7 active torsions:
REMARK  status: ('A' for Active; 'I' for Inactive)
REMARK    1  A    between atoms: C_1  and  C_2
REMARK    2  A    between atoms: C_2  and  C_3
REMARK    3  A    between atoms: C_2  and  C_8
REMARK    4  A    between atoms: C_3  and  C_4
REMARK    5  A    between atoms: C_13  and  O_14
REMARK    6  A    between atoms: C_13  and  C_15
REMARK    7  A    between atoms: C_15  and  N_16
REMARK                            x       y       z     vdW  Elec       q    Type
REMARK                         _______ _______ _______ _____ _____    ______ ____
ROOT
ATOM      1  C   UNL     1       6.680   4.011  13.836  0.00  0.00    +0.000 C 
ATOM      2  O   UNL     1       7.524   4.830  13.464  0.00  0.00    +0.000 OA
ATOM      3  N   UNL     1       6.379   3.849  15.181  0.00  0.00    +0.000 N 
ATOM      4  C   UNL     1       5.537   2.822  15.778  0.00  0.00    +0.000 C 
ATOM      5  C   UNL     1       4.449   3.447  16.644  0.00  0.00    +0.000 C 
ATOM      6  C   UNL     1       4.998   4.472  17.668  0.00  0.00    +0.000 C 
ATOM      7  C   UNL     1       5.939   5.518  16.948  0.00  0.00    +0.000 C 
ATOM      8  C   UNL     1       6.666   6.478  17.932  0.00  0.00    +0.000 C 
ATOM      9  C   UNL     1       6.391   7.897  17.437  0.00  0.00    +0.000 C 
ATOM     10  C   UNL     1       5.084   7.800  16.678  0.00  0.00    +0.000 C 
ATOM     11  C   UNL     1       5.188   6.462  15.970  0.00  0.00    +0.000 C 
ATOM     12  C   UNL     1       7.015   4.728  16.157  0.00  0.00    +0.000 C 
ENDROOT
BRANCH   1  14
ATOM     13  C   UNL     1       6.806   2.586  11.763  0.00  0.00    +0.000 C 
ATOM     14  C   UNL     1       5.874   3.227  12.796  0.00  0.00    +0.000 C 
BRANCH  14  15
ATOM     15  C   UNL     1       4.773   4.095  12.153  0.00  0.00    +0.000 C 
BRANCH  15  16
ATOM     16  C   UNL     1       4.219   3.551  10.834  0.00  0.00    +0.000 C 
ATOM     17  C   UNL     1       3.054   2.521  10.837  0.00  0.00    +0.000 C 
ATOM     18  C   UNL     1       2.504   3.236   9.589  0.00  0.00    +0.000 C 
ATOM     19  C   UNL     1       3.233   4.500  10.087  0.00  0.00    +0.000 C 
ENDBRANCH  15  16
ENDBRANCH  14  15
ENDBRANCH   1  14
BRANCH   6  20
ATOM     20  O   UNL     1       5.821   3.751  18.611  0.00  0.00    +0.000 OA
ATOM     21  H   UNL     1       5.264   3.543  19.382  0.00  0.00    +0.000 HD
ENDBRANCH   6  20
BRANCH   6  22
ATOM     22  C   UNL     1       3.818   5.122  18.469  0.00  0.00    +0.000 C 
BRANCH  22  23
ATOM     23  N   UNL     1       2.900   4.137  19.073  0.00  0.00    +0.000 N 
ATOM     24  C   UNL     1       3.221   3.510  20.262  0.00  0.00    +0.000 A 
ATOM     25  C   UNL     1       2.422   2.568  20.783  0.00  0.00    +0.000 A 
ATOM     26  N   UNL     1       1.246   2.143  20.220  0.00  0.00    +0.000 NA
ATOM     27  C   UNL     1       0.889   2.737  19.123  0.00  0.00    +0.000 A 
ATOM     28  C   UNL     1       1.698   3.824  18.445  0.00  0.00    +0.000 A 
ATOM     29  O   UNL     1       1.268   4.317  17.409  0.00  0.00    +0.000 OA
ENDBRANCH  22  23
ENDBRANCH   6  22
TORSDOF 6
ENDMDL
MODEL 6
REMARK VINA RESULT:      -5.9      3.886      6.133
REMARK  Name = 
REMARK  7 active torsions:
REMARK  status: ('A' for Active; 'I' for Inactive)
REMARK    1  A    between atoms: C_1  and  C_2
REMARK    2  A    between atoms: C_2  and  C_3
REMARK    3  A    between atoms: C_2  and  C_8
REMARK    4  A    between atoms: C_3  and  C_4
REMARK    5  A    between atoms: C_13  and  O_14
REMARK    6  A    between atoms: C_13  and  C_15
REMARK    7  A    between atoms: C_15  and  N_16
REMARK                            x       y       z     vdW  Elec       q    Type
REMARK                         _______ _______ _______ _____ _____    ______ ____
ROOT
ATOM      1  C   UNL     1       0.581   9.092  19.540  0.00  0.00    +0.000 C 
ATOM      2  O   UNL     1      -0.040   8.872  20.582  0.00  0.00    +0.000 OA
ATOM      3  N   UNL     1       1.795   8.470  19.281  0.00  0.00    +0.000 N 
ATOM      4  C   UNL     1       2.712   8.748  18.186  0.00  0.00    +0.000 C 
ATOM      5  C   UNL     1       3.041   7.474  17.416  0.00  0.00    +0.000 C 
ATOM      6  C   UNL     1       3.501   6.310  18.330  0.00  0.00    +0.000 C 
ATOM      7  C   UNL     1       2.480   6.108  19.518  0.00  0.00    +0.000 C 
ATOM      8  C   UNL     1       2.955   5.073  20.576  0.00  0.00    +0.000 C 
ATOM      9  C   UNL     1       1.812   4.075  20.754  0.00  0.00    +0.000 C 
ATOM     10  C   UNL     1       1.051   4.117  19.446  0.00  0.00    +0.000 C 
ATOM     11  C   UNL     1       1.091   5.584  19.062  0.00  0.00    +0.000 C 
ATOM     12  C   UNL     1       2.293   7.476  20.227  0.00  0.00    +0.000 C 
ENDROOT
BRANCH   1  14
ATOM     13  C   UNL     1       0.141  11.465  18.820  0.00  0.00    +0.000 C 
ATOM     14  C   UNL     1      -0.037   9.986  18.461  0.00  0.00    +0.000 C 
BRANCH  14  15
ATOM     15  C   UNL     1      -1.506   9.610  18.179  0.00  0.00    +0.000 C 
BRANCH  15  16
ATOM     16  C   UNL     1      -2.223  10.531  17.189  0.00  0.00    +0.000 C 
ATOM     17  C   UNL     1      -2.771   9.968  15.848  0.00  0.00    +0.000 C 
ATOM     18  C   UNL     1      -3.978  10.908  16.019  0.00  0.00    +0.000 C 
ATOM     19  C   UNL     1      -3.709  10.851  17.537  0.00  0.00    +0.000 C 
ENDBRANCH  15  16
ENDBRANCH  14  15
ENDBRANCH   1  14
BRANCH   6  20
ATOM     20  O   UNL     1       4.762   6.692  18.925  0.00  0.00    +0.000 OA
ATOM     21  H   UNL     1       5.341   6.998  18.205  0.00  0.00    +0.000 HD
ENDBRANCH   6  20
BRANCH   6  22
ATOM     22  C   UNL     1       3.752   5.019  17.478  0.00  0.00    +0.000 C 
BRANCH  22  23
ATOM     23  N   UNL     1       5.119   4.929  16.930  0.00  0.00    +0.000 N 
ATOM     24  C   UNL     1       5.374   5.258  15.611  0.00  0.00    +0.000 A 
ATOM     25  C   UNL     1       6.600   5.117  15.089  0.00  0.00    +0.000 A 
ATOM     26  N   UNL     1       7.693   4.653  15.775  0.00  0.00    +0.000 NA
ATOM     27  C   UNL     1       7.504   4.371  17.028  0.00  0.00    +0.000 A 
ATOM     28  C   UNL     1       6.170   4.502  17.736  0.00  0.00    +0.000 A 
ATOM     29  O   UNL     1       6.103   4.206  18.922  0.00  0.00    +0.000 OA
ENDBRANCH  22  23
ENDBRANCH   6  22
TORSDOF 6
ENDMDL
MODEL 7
REMARK VINA RESULT:      -5.8      0.835      1.251
REMARK  Name = 
REMARK  7 active torsions:
REMARK  status: ('A' for Active; 'I' for Inactive)
REMARK    1  A    between atoms: C_1  and  C_2
REMARK    2  A    between atoms: C_2  and  C_3
REMARK    3  A    between atoms: C_2  and  C_8
REMARK    4  A    between atoms: C_3  and  C_4
REMARK    5  A    between atoms: C_13  and  O_14
REMARK    6  A    between atoms: C_13  and  C_15
REMARK    7  A    between atoms: C_15  and  N_16
REMARK                            x       y       z     vdW  Elec       q    Type
REMARK                         _______ _______ _______ _____ _____    ______ ____
ROOT
ATOM      1  C   UNL     1       2.859   5.944  19.500  0.00  0.00    +0.000 C 
ATOM      2  O   UNL     1       3.126   6.828  20.318  0.00  0.00    +0.000 OA
ATOM      3  N   UNL     1       3.447   5.926  18.243  0.00  0.00    +0.000 N 
ATOM      4  C   UNL     1       3.114   5.054  17.127  0.00  0.00    +0.000 C 
ATOM      5  C   UNL     1       4.355   4.334  16.610  0.00  0.00    +0.000 C 
ATOM      6  C   UNL     1       5.538   5.291  16.317  0.00  0.00    +0.000 C 
ATOM      7  C   UNL     1       5.800   6.235  17.557  0.00  0.00    +0.000 C 
ATOM      8  C   UNL     1       6.859   7.340  17.282  0.00  0.00    +0.000 C 
ATOM      9  C   UNL     1       7.886   7.249  18.409  0.00  0.00    +0.000 C 
ATOM     10  C   UNL     1       7.818   5.813  18.884  0.00  0.00    +0.000 C 
ATOM     11  C   UNL     1       6.338   5.487  18.806  0.00  0.00    +0.000 C 
ATOM     12  C   UNL     1       4.460   6.927  17.924  0.00  0.00    +0.000 C 
ENDROOT
BRANCH   1  14
ATOM     13  C   UNL     1       0.612   5.315  20.445  0.00  0.00    +0.000 C 
ATOM     14  C   UNL     1       1.944   4.785  19.906  0.00  0.00    +0.000 C 
BRANCH  14  15
ATOM     15  C   UNL     1       2.644   3.819  20.884  0.00  0.00    +0.000 C 
BRANCH  15  16
ATOM     16  C   UNL     1       2.967   2.441  20.300  0.00  0.00    +0.000 C 
ATOM     17  C   UNL     1       2.338   1.993  18.950  0.00  0.00    +0.000 C 
ATOM     18  C   UNL     1       3.680   1.312  18.624  0.00  0.00    +0.000 C 
ATOM     19  C   UNL     1       4.341   2.335  19.570  0.00  0.00    +0.000 C 
ENDBRANCH  15  16
ENDBRANCH  14  15
ENDBRANCH   1  14
BRANCH   6  20
ATOM     20  O   UNL     1       5.148   6.145  15.218  0.00  0.00    +0.000 OA
ATOM     21  H   UNL     1       4.184   6.064  15.116  0.00  0.00    +0.000 HD
ENDBRANCH   6  20
BRANCH   6  22
ATOM     22  C   UNL     1       6.795   4.475  15.860  0.00  0.00    +0.000 C 
BRANCH  22  23
ATOM     23  N   UNL     1       7.062   4.563  14.411  0.00  0.00    +0.000 N 
ATOM     24  C   UNL     1       7.992   5.460  13.919  0.00  0.00    +0.000 A 
ATOM     25  C   UNL     1       8.194   5.590  12.600  0.00  0.00    +0.000 A 
ATOM     26  N   UNL     1       7.532   4.876  11.634  0.00  0.00    +0.000 NA
ATOM     27  C   UNL     1       6.679   3.994  12.058  0.00  0.00    +0.000 A 
ATOM     28  C   UNL     1       6.374   3.744  13.521  0.00  0.00    +0.000 A 
ATOM     29  O   UNL     1       5.548   2.886  13.811  0.00  0.00    +0.000 OA
ENDBRANCH  22  23
ENDBRANCH   6  22
TORSDOF 6
ENDMDL
MODEL 8
REMARK VINA RESULT:      -5.8      3.140      5.248
REMARK  Name = 
REMARK  7 active torsions:
REMARK  status: ('A' for Active; 'I' for Inactive)
REMARK    1  A    between atoms: C_1  and  C_2
REMARK    2  A    between atoms: C_2  and  C_3
REMARK    3  A    between atoms: C_2  and  C_8
REMARK    4  A    between atoms: C_3  and  C_4
REMARK    5  A    between atoms: C_13  and  O_14
REMARK    6  A    between atoms: C_13  and  C_15
REMARK    7  A    between atoms: C_15  and  N_16
REMARK                            x       y       z     vdW  Elec       q    Type
REMARK                         _______ _______ _______ _____ _____    ______ ____
ROOT
ATOM      1  C   UNL     1       1.922   8.027  18.890  0.00  0.00    +0.000 C 
ATOM      2  O   UNL     1       1.126   7.809  19.808  0.00  0.00    +0.000 OA
ATOM      3  N   UNL     1       3.069   7.261  18.736  0.00  0.00    +0.000 N 
ATOM      4  C   UNL     1       4.170   7.497  17.814  0.00  0.00    +0.000 C 
ATOM      5  C   UNL     1       4.443   6.262  16.964  0.00  0.00    +0.000 C 
ATOM      6  C   UNL     1       4.603   4.968  17.802  0.00  0.00    +0.000 C 
ATOM      7  C   UNL     1       3.396   4.813  18.810  0.00  0.00    +0.000 C 
ATOM      8  C   UNL     1       3.567   3.631  19.806  0.00  0.00    +0.000 C 
ATOM      9  C   UNL     1       2.289   2.798  19.716  0.00  0.00    +0.000 C 
ATOM     10  C   UNL     1       1.747   3.064  18.327  0.00  0.00    +0.000 C 
ATOM     11  C   UNL     1       2.035   4.538  18.113  0.00  0.00    +0.000 C 
ATOM     12  C   UNL     1       3.284   6.126  19.629  0.00  0.00    +0.000 C 
ENDROOT
BRANCH   1  14
ATOM     13  C   UNL     1       2.282  10.417  18.185  0.00  0.00    +0.000 C 
ATOM     14  C   UNL     1       1.596   9.092  17.839  0.00  0.00    +0.000 C 
BRANCH  14  15
ATOM     15  C   UNL     1       0.076   9.241  17.628  0.00  0.00    +0.000 C 
BRANCH  15  16
ATOM     16  C   UNL     1      -0.504  10.583  18.082  0.00  0.00    +0.000 C 
ATOM     17  C   UNL     1      -1.939  11.004  17.655  0.00  0.00    +0.000 C 
ATOM     18  C   UNL     1      -2.107  11.621  19.055  0.00  0.00    +0.000 C 
ATOM     19  C   UNL     1      -1.049  10.610  19.543  0.00  0.00    +0.000 C 
ENDBRANCH  15  16
ENDBRANCH  14  15
ENDBRANCH   1  14
BRANCH   6  20
ATOM     20  O   UNL     1       5.798   5.110  18.603  0.00  0.00    +0.000 OA
ATOM     21  H   UNL     1       6.458   5.573  18.058  0.00  0.00    +0.000 HD
ENDBRANCH   6  20
BRANCH   6  22
ATOM     22  C   UNL     1       4.809   3.734  16.859  0.00  0.00    +0.000 C 
BRANCH  22  23
ATOM     23  N   UNL     1       5.521   4.058  15.608  0.00  0.00    +0.000 N 
ATOM     24  C   UNL     1       4.868   3.998  14.390  0.00  0.00    +0.000 A 
ATOM     25  C   UNL     1       5.524   4.229  13.244  0.00  0.00    +0.000 A 
ATOM     26  N   UNL     1       6.857   4.538  13.155  0.00  0.00    +0.000 NA
ATOM     27  C   UNL     1       7.496   4.643  14.280  0.00  0.00    +0.000 A 
ATOM     28  C   UNL     1       6.864   4.421  15.639  0.00  0.00    +0.000 A 
ATOM     29  O   UNL     1       7.561   4.544  16.639  0.00  0.00    +0.000 OA
ENDBRANCH  22  23
ENDBRANCH   6  22
TORSDOF 6
ENDMDL
MODEL 9
REMARK VINA RESULT:      -5.7      2.745      7.456
REMARK  Name = 
REMARK  7 active torsions:
REMARK  status: ('A' for Active; 'I' for Inactive)
REMARK    1  A    between atoms: C_1  and  C_2
REMARK    2  A    between atoms: C_2  and  C_3
REMARK    3  A    between atoms: C_2  and  C_8
REMARK    4  A    between atoms: C_3  and  C_4
REMARK    5  A    between atoms: C_13  and  O_14
REMARK    6  A    between atoms: C_13  and  C_15
REMARK    7  A    between atoms: C_15  and  N_16
REMARK                            x       y       z     vdW  Elec       q    Type
REMARK                         _______ _______ _______ _____ _____    ______ ____
ROOT
ATOM      1  C   UNL     1       5.076   4.043  17.022  0.00  0.00    +0.000 C 
ATOM      2  O   UNL     1       4.818   2.840  17.119  0.00  0.00    +0.000 OA
ATOM      3  N   UNL     1       4.094   5.006  17.208  0.00  0.00    +0.000 N 
ATOM      4  C   UNL     1       4.206   6.437  16.968  0.00  0.00    +0.000 C 
ATOM      5  C   UNL     1       3.799   7.229  18.206  0.00  0.00    +0.000 C 
ATOM      6  C   UNL     1       2.424   6.802  18.778  0.00  0.00    +0.000 C 
ATOM      7  C   UNL     1       2.367   5.234  18.960  0.00  0.00    +0.000 C 
ATOM      8  C   UNL     1       0.962   4.707  19.368  0.00  0.00    +0.000 C 
ATOM      9  C   UNL     1       1.167   3.835  20.606  0.00  0.00    +0.000 C 
ATOM     10  C   UNL     1       2.431   4.364  21.251  0.00  0.00    +0.000 C 
ATOM     11  C   UNL     1       3.316   4.701  20.066  0.00  0.00    +0.000 C 
ATOM     12  C   UNL     1       2.755   4.581  17.606  0.00  0.00    +0.000 C 
ENDROOT
BRANCH   1  14
ATOM     13  C   UNL     1       7.017   5.329  17.982  0.00  0.00    +0.000 C 
ATOM     14  C   UNL     1       6.522   4.494  16.796  0.00  0.00    +0.000 C 
BRANCH  14  15
ATOM     15  C   UNL     1       6.691   5.215  15.443  0.00  0.00    +0.000 C 
BRANCH  15  16
ATOM     16  C   UNL     1       6.996   4.293  14.261  0.00  0.00    +0.000 C 
ATOM     17  C   UNL     1       5.845   3.774  13.353  0.00  0.00    +0.000 C 
ATOM     18  C   UNL     1       6.804   3.929  12.158  0.00  0.00    +0.000 C 
ATOM     19  C   UNL     1       7.535   5.007  12.984  0.00  0.00    +0.000 C 
ENDBRANCH  15  16
ENDBRANCH  14  15
ENDBRANCH   1  14
BRANCH   6  20
ATOM     20  O   UNL     1       1.417   7.145  17.799  0.00  0.00    +0.000 OA
ATOM     21  H   UNL     1       0.548   7.001  18.215  0.00  0.00    +0.000 HD
ENDBRANCH   6  20
BRANCH   6  22
ATOM     22  C   UNL     1       2.107   7.607  20.084  0.00  0.00    +0.000 C 
BRANCH  22  23
ATOM     23  N   UNL     1       1.300   8.821  19.851  0.00  0.00    +0.000 N 
ATOM     24  C   UNL     1       1.635   9.708  18.844  0.00  0.00    +0.000 A 
ATOM     25  C   UNL     1       0.945  10.843  18.668  0.00  0.00    +0.000 A 
ATOM     26  N   UNL     1      -0.125  11.234  19.431  0.00  0.00    +0.000 NA
ATOM     27  C   UNL     1      -0.496  10.409  20.362  0.00  0.00    +0.000 A 
ATOM     28  C   UNL     1       0.193   9.090  20.650  0.00  0.00    +0.000 A 
ATOM     29  O   UNL     1      -0.239   8.386  21.555  0.00  0.00    +0.000 OA
ENDBRANCH  22  23
ENDBRANCH   6  22
TORSDOF 6
ENDMDL
