MODEL 1
REMARK VINA RESULT:      -8.0      0.000      0.000
REMARK  Name = 
REMARK  8 active torsions:
REMARK  status: ('A' for Active; 'I' for Inactive)
REMARK    1  A    between atoms: C_1  and  C_2
REMARK    2  A    between atoms: C_2  and  C_3
REMARK    3  A    between atoms: N_5  and  C_6
REMARK    4  A    between atoms: C_6  and  C_7
REMARK    5  A    between atoms: C_6  and  C_8
REMARK    6  A    between atoms: N_10  and  C_11
REMARK    7  A    between atoms: N_10  and  C_12
REMARK    8  A    between atoms: C_12  and  C_13
REMARK                            x       y       z     vdW  Elec       q    Type
REMARK                         _______ _______ _______ _____ _____    ______ ____
ROOT
ATOM      1  C   UNL     1      -2.291  10.357  17.685  0.00  0.00    +0.000 A 
ATOM      2  N   UNL     1      -1.148   9.749  17.589  0.00  0.00    +0.000 NA
ATOM      3  N   UNL     1      -0.114  10.103  18.456  0.00  0.00    +0.000 N 
ATOM      4  C   UNL     1      -0.232  11.059  19.485  0.00  0.00    +0.000 A 
ATOM      5  O   UNL     1       0.706  11.419  20.201  0.00  0.00    +0.000 OA
ATOM      6  C   UNL     1      -1.562  11.619  19.613  0.00  0.00    +0.000 A 
ATOM      7  C   UNL     1      -2.063  12.542  20.524  0.00  0.00    +0.000 A 
ATOM      8  C   UNL     1      -3.401  12.692  20.129  0.00  0.00    +0.000 A 
ATOM      9  O   UNL     1      -4.489  13.389  20.544  0.00  0.00    +0.000 OA
ATOM     10  C   UNL     1      -5.474  13.029  19.688  0.00  0.00    +0.000 A 
ATOM     11  C   UNL     1      -5.053  12.138  18.723  0.00  0.00    +0.000 A 
ATOM     12  C   UNL     1      -3.696  11.937  19.051  0.00  0.00    +0.000 A 
ATOM     13  N   UNL     1      -2.549  11.252  18.709  0.00  0.00    +0.000 N 
ENDROOT
BRANCH   1  15
ATOM     14  C   UNL     1      -2.980  10.849  15.365  0.00  0.00    +0.000 C 
ATOM     15  C   UNL     1      -3.346  10.139  16.640  0.00  0.00    +0.000 C 
ENDBRANCH   1  15
BRANCH   3  16
ATOM     16  C   UNL     1       1.194   9.554  18.113  0.00  0.00    +0.000 C 
ATOM     17  C   UNL     1       2.213  10.709  18.045  0.00  0.00    +0.000 C 
BRANCH  16  18
ATOM     18  C   UNL     1       1.815   8.401  18.977  0.00  0.00    +0.000 C 
ATOM     19  O   UNL     1       1.408   8.316  20.152  0.00  0.00    +0.000 OA
ATOM     20  N   UNL     1       2.787   7.502  18.549  0.00  0.00    +0.000 N 
ATOM     21  C   UNL     1       3.524   7.473  17.298  0.00  0.00    +0.000 C 
BRANCH  20  22
ATOM     22  C   UNL     1       3.129   6.404  19.454  0.00  0.00    +0.000 C 
BRANCH  22  23
ATOM     23  C   UNL     1       2.241   5.187  19.332  0.00  0.00    +0.000 A 
ATOM     24  C   UNL     1       2.188   4.478  18.125  0.00  0.00    +0.000 A 
ATOM     25  C   UNL     1       1.481   3.279  18.034  0.00  0.00    +0.000 A 
ATOM     26  C   UNL     1       0.799   2.786  19.145  0.00  0.00    +0.000 A 
ATOM     27  C   UNL     1       0.800   3.508  20.337  0.00  0.00    +0.000 A 
ATOM     28  C   UNL     1       1.514   4.704  20.430  0.00  0.00    +0.000 A 
ENDBRANCH  22  23
ENDBRANCH  20  22
ENDBRANCH  16  18
ENDBRANCH   3  16
TORSDOF 5
ENDMDL
MODEL 2
REMARK VINA RESULT:      -7.6      2.950      5.360
REMARK  Name = 
REMARK  8 active torsions:
REMARK  status: ('A' for Active; 'I' for Inactive)
REMARK    1  A    between atoms: C_1  and  C_2
REMARK    2  A    between atoms: C_2  and  C_3
REMARK    3  A    between atoms: N_5  and  C_6
REMARK    4  A    between atoms: C_6  and  C_7
REMARK    5  A    between atoms: C_6  and  C_8
REMARK    6  A    between atoms: N_10  and  C_11
REMARK    7  A    between atoms: N_10  and  C_12
REMARK    8  A    between atoms: C_12  and  C_13
REMARK                            x       y       z     vdW  Elec       q    Type
REMARK                         _______ _______ _______ _____ _____    ______ ____
ROOT
ATOM      1  C   UNL     1       0.623   8.534  21.031  0.00  0.00    +0.000 A 
ATOM      2  N   UNL     1       1.240   7.394  21.066  0.00  0.00    +0.000 NA
ATOM      3  N   UNL     1       2.077   7.039  20.008  0.00  0.00    +0.000 N 
ATOM      4  C   UNL     1       2.348   7.866  18.899  0.00  0.00    +0.000 A 
ATOM      5  O   UNL     1       3.032   7.518  17.932  0.00  0.00    +0.000 OA
ATOM      6  C   UNL     1       1.720   9.169  18.973  0.00  0.00    +0.000 A 
ATOM      7  C   UNL     1       1.789  10.249  18.101  0.00  0.00    +0.000 A 
ATOM      8  C   UNL     1       0.961  11.206  18.706  0.00  0.00    +0.000 A 
ATOM      9  O   UNL     1       0.566  12.480  18.457  0.00  0.00    +0.000 OA
ATOM     10  C   UNL     1      -0.244  12.798  19.495  0.00  0.00    +0.000 A 
ATOM     11  C   UNL     1      -0.400  11.764  20.395  0.00  0.00    +0.000 A 
ATOM     12  C   UNL     1       0.410  10.746  19.848  0.00  0.00    +0.000 A 
ATOM     13  N   UNL     1       0.876   9.461  20.034  0.00  0.00    +0.000 N 
ENDROOT
BRANCH   1  15
ATOM     14  C   UNL     1       0.191   9.422  23.295  0.00  0.00    +0.000 C 
ATOM     15  C   UNL     1      -0.432   8.848  22.051  0.00  0.00    +0.000 C 
ENDBRANCH   1  15
BRANCH   3  16
ATOM     16  C   UNL     1       2.524   5.650  20.013  0.00  0.00    +0.000 C 
ATOM     17  C   UNL     1       1.568   4.827  20.900  0.00  0.00    +0.000 C 
BRANCH  16  18
ATOM     18  C   UNL     1       2.722   4.881  18.659  0.00  0.00    +0.000 C 
ATOM     19  O   UNL     1       1.785   4.960  17.842  0.00  0.00    +0.000 OA
ATOM     20  N   UNL     1       3.831   4.111  18.321  0.00  0.00    +0.000 N 
ATOM     21  C   UNL     1       4.976   3.742  19.134  0.00  0.00    +0.000 C 
BRANCH  20  22
ATOM     22  C   UNL     1       3.897   3.597  16.952  0.00  0.00    +0.000 C 
BRANCH  22  23
ATOM     23  C   UNL     1       5.002   4.188  16.110  0.00  0.00    +0.000 A 
ATOM     24  C   UNL     1       5.857   5.155  16.655  0.00  0.00    +0.000 A 
ATOM     25  C   UNL     1       6.963   5.613  15.938  0.00  0.00    +0.000 A 
ATOM     26  C   UNL     1       7.214   5.126  14.657  0.00  0.00    +0.000 A 
ATOM     27  C   UNL     1       6.343   4.202  14.082  0.00  0.00    +0.000 A 
ATOM     28  C   UNL     1       5.240   3.738  14.802  0.00  0.00    +0.000 A 
ENDBRANCH  22  23
ENDBRANCH  20  22
ENDBRANCH  16  18
ENDBRANCH   3  16
TORSDOF 5
ENDMDL
MODEL 3
REMARK VINA RESULT:      -7.6      1.669      2.935
REMARK  Name = 
REMARK  8 active torsions:
REMARK  status: ('A' for Active; 'I' for Inactive)
REMARK    1  A    between atoms: C_1  and  C_2
REMARK    2  A    between atoms: C_2  and  C_3
REMARK    3  A    between atoms: N_5  and  C_6
REMARK    4  A    between atoms: C_6  and  C_7
REMARK    5  A    between atoms: C_6  and  C_8
REMARK    6  A    between atoms: N_10  and  C_11
REMARK    7  A    between atoms: N_10  and  C_12
REMARK    8  A    between atoms: C_12  and  C_13
REMARK                            x       y       z     vdW  Elec       q    Type
REMARK                         _______ _______ _______ _____ _____    ______ ____
ROOT
ATOM      1  C   UNL     1      -2.431  12.365  19.936  0.00  0.00    +0.000 A 
ATOM      2  N   UNL     1      -1.174  12.119  19.727  0.00  0.00    +0.000 NA
ATOM      3  N   UNL     1      -0.815  11.214  18.728  0.00  0.00    +0.000 N 
ATOM      4  C   UNL     1      -1.731  10.568  17.874  0.00  0.00    +0.000 A 
ATOM      5  O   UNL     1      -1.412   9.715  17.041  0.00  0.00    +0.000 OA
ATOM      6  C   UNL     1      -3.108  10.970  18.081  0.00  0.00    +0.000 A 
ATOM      7  C   UNL     1      -4.264  10.587  17.413  0.00  0.00    +0.000 A 
ATOM      8  C   UNL     1      -5.272  11.301  18.078  0.00  0.00    +0.000 A 
ATOM      9  O   UNL     1      -6.618  11.451  17.977  0.00  0.00    +0.000 OA
ATOM     10  C   UNL     1      -6.940  12.329  18.956  0.00  0.00    +0.000 A 
ATOM     11  C   UNL     1      -5.850  12.736  19.697  0.00  0.00    +0.000 A 
ATOM     12  C   UNL     1      -4.780  12.048  19.086  0.00  0.00    +0.000 A 
ATOM     13  N   UNL     1      -3.415  11.854  19.106  0.00  0.00    +0.000 N 
ENDROOT
BRANCH   1  15
ATOM     14  C   UNL     1      -2.058  12.767  22.343  0.00  0.00    +0.000 C 
ATOM     15  C   UNL     1      -2.849  13.173  21.129  0.00  0.00    +0.000 C 
ENDBRANCH   1  15
BRANCH   3  16
ATOM     16  C   UNL     1       0.588  10.813  18.735  0.00  0.00    +0.000 C 
ATOM     17  C   UNL     1       1.437  11.993  19.249  0.00  0.00    +0.000 C 
BRANCH  16  18
ATOM     18  C   UNL     1       1.033   9.517  19.501  0.00  0.00    +0.000 C 
ATOM     19  O   UNL     1       0.624   9.405  20.672  0.00  0.00    +0.000 OA
ATOM     20  N   UNL     1       1.857   8.518  18.990  0.00  0.00    +0.000 N 
ATOM     21  C   UNL     1       2.574   8.474  17.728  0.00  0.00    +0.000 C 
BRANCH  20  22
ATOM     22  C   UNL     1       2.034   7.315  19.805  0.00  0.00    +0.000 C 
BRANCH  22  23
ATOM     23  C   UNL     1       2.582   6.122  19.057  0.00  0.00    +0.000 A 
ATOM     24  C   UNL     1       3.926   5.757  19.212  0.00  0.00    +0.000 A 
ATOM     25  C   UNL     1       4.415   4.584  18.637  0.00  0.00    +0.000 A 
ATOM     26  C   UNL     1       3.571   3.773  17.881  0.00  0.00    +0.000 A 
ATOM     27  C   UNL     1       2.245   4.151  17.675  0.00  0.00    +0.000 A 
ATOM     28  C   UNL     1       1.754   5.321  18.256  0.00  0.00    +0.000 A 
ENDBRANCH  22  23
ENDBRANCH  20  22
ENDBRANCH  16  18
ENDBRANCH   3  16
TORSDOF 5
ENDMDL
MODEL 4
REMARK VINA RESULT:      -7.6      1.382      2.665
REMARK  Name = 
REMARK  8 active torsions:
REMARK  status: ('A' for Active; 'I' for Inactive)
REMARK    1  A    between atoms: C_1  and  C_2
REMARK    2  A    between atoms: C_2  and  C_3
REMARK    3  A    between atoms: N_5  and  C_6
REMARK    4  A    between atoms: C_6  and  C_7
REMARK    5  A    between atoms: C_6  and  C_8
REMARK    6  A    between atoms: N_10  and  C_11
REMARK    7  A    between atoms: N_10  and  C_12
REMARK    8  A    between atoms: C_12  and  C_13
REMARK                            x       y       z     vdW  Elec       q    Type
REMARK                         _______ _______ _______ _____ _____    ______ ____
ROOT
ATOM      1  C   UNL     1      -1.703  12.069  20.156  0.00  0.00    +0.000 A 
ATOM      2  N   UNL     1      -0.556  11.605  19.765  0.00  0.00    +0.000 NA
ATOM      3  N   UNL     1      -0.500  10.794  18.631  0.00  0.00    +0.000 N 
ATOM      4  C   UNL     1      -1.614  10.473  17.829  0.00  0.00    +0.000 A 
ATOM      5  O   UNL     1      -1.570   9.699  16.869  0.00  0.00    +0.000 OA
ATOM      6  C   UNL     1      -2.843  11.113  18.250  0.00  0.00    +0.000 A 
ATOM      7  C   UNL     1      -4.115  11.069  17.691  0.00  0.00    +0.000 A 
ATOM      8  C   UNL     1      -4.874  11.873  18.555  0.00  0.00    +0.000 A 
ATOM      9  O   UNL     1      -6.158  12.305  18.640  0.00  0.00    +0.000 OA
ATOM     10  C   UNL     1      -6.185  13.085  19.746  0.00  0.00    +0.000 A 
ATOM     11  C   UNL     1      -4.967  13.155  20.388  0.00  0.00    +0.000 A 
ATOM     12  C   UNL     1      -4.136  12.357  19.574  0.00  0.00    +0.000 A 
ATOM     13  N   UNL     1      -2.850  11.889  19.401  0.00  0.00    +0.000 N 
ENDROOT
BRANCH   1  15
ATOM     14  C   UNL     1      -0.565  12.578  22.287  0.00  0.00    +0.000 C 
ATOM     15  C   UNL     1      -1.818  12.770  21.477  0.00  0.00    +0.000 C 
ENDBRANCH   1  15
BRANCH   3  16
ATOM     16  C   UNL     1       0.776  10.120  18.417  0.00  0.00    +0.000 C 
ATOM     17  C   UNL     1       1.893  11.182  18.365  0.00  0.00    +0.000 C 
BRANCH  16  18
ATOM     18  C   UNL     1       1.233   8.974  19.387  0.00  0.00    +0.000 C 
ATOM     19  O   UNL     1       0.730   8.986  20.526  0.00  0.00    +0.000 OA
ATOM     20  N   UNL     1       2.162   7.981  19.085  0.00  0.00    +0.000 N 
ATOM     21  C   UNL     1       2.990   7.826  17.902  0.00  0.00    +0.000 C 
BRANCH  20  22
ATOM     22  C   UNL     1       2.342   6.913  20.069  0.00  0.00    +0.000 C 
BRANCH  22  23
ATOM     23  C   UNL     1       1.966   5.534  19.579  0.00  0.00    +0.000 A 
ATOM     24  C   UNL     1       1.406   4.606  20.465  0.00  0.00    +0.000 A 
ATOM     25  C   UNL     1       0.929   3.378  20.002  0.00  0.00    +0.000 A 
ATOM     26  C   UNL     1       1.030   3.056  18.651  0.00  0.00    +0.000 A 
ATOM     27  C   UNL     1       1.632   3.949  17.766  0.00  0.00    +0.000 A 
ATOM     28  C   UNL     1       2.103   5.180  18.228  0.00  0.00    +0.000 A 
ENDBRANCH  22  23
ENDBRANCH  20  22
ENDBRANCH  16  18
ENDBRANCH   3  16
TORSDOF 5
ENDMDL
MODEL 5
REMARK VINA RESULT:      -7.6      2.858      7.917
REMARK  Name = 
REMARK  8 active torsions:
REMARK  status: ('A' for Active; 'I' for Inactive)
REMARK    1  A    between atoms: C_1  and  C_2
REMARK    2  A    between atoms: C_2  and  C_3
REMARK    3  A    between atoms: N_5  and  C_6
REMARK    4  A    between atoms: C_6  and  C_7
REMARK    5  A    between atoms: C_6  and  C_8
REMARK    6  A    between atoms: N_10  and  C_11
REMARK    7  A    between atoms: N_10  and  C_12
REMARK    8  A    between atoms: C_12  and  C_13
REMARK                            x       y       z     vdW  Elec       q    Type
REMARK                         _______ _______ _______ _____ _____    ______ ____
ROOT
ATOM      1  C   UNL     1      -0.270  11.517  19.915  0.00  0.00    +0.000 A 
ATOM      2  N   UNL     1      -0.758  12.241  20.875  0.00  0.00    +0.000 NA
ATOM      3  N   UNL     1      -0.716  11.758  22.183  0.00  0.00    +0.000 N 
ATOM      4  C   UNL     1      -0.125  10.535  22.558  0.00  0.00    +0.000 A 
ATOM      5  O   UNL     1      -0.154  10.080  23.705  0.00  0.00    +0.000 OA
ATOM      6  C   UNL     1       0.501   9.826  21.461  0.00  0.00    +0.000 A 
ATOM      7  C   UNL     1       1.207   8.629  21.453  0.00  0.00    +0.000 A 
ATOM      8  C   UNL     1       1.545   8.463  20.101  0.00  0.00    +0.000 A 
ATOM      9  O   UNL     1       2.232   7.565  19.350  0.00  0.00    +0.000 OA
ATOM     10  C   UNL     1       2.174   8.056  18.089  0.00  0.00    +0.000 A 
ATOM     11  C   UNL     1       1.456   9.230  17.999  0.00  0.00    +0.000 A 
ATOM     12  C   UNL     1       1.070   9.466  19.336  0.00  0.00    +0.000 A 
ATOM     13  N   UNL     1       0.407  10.337  20.174  0.00  0.00    +0.000 N 
ENDROOT
BRANCH   1  15
ATOM     14  C   UNL     1      -1.851  11.497  18.018  0.00  0.00    +0.000 C 
ATOM     15  C   UNL     1      -0.485  11.921  18.486  0.00  0.00    +0.000 C 
ENDBRANCH   1  15
BRANCH   3  16
ATOM     16  C   UNL     1      -1.504  12.518  23.147  0.00  0.00    +0.000 C 
ATOM     17  C   UNL     1      -0.885  13.922  23.296  0.00  0.00    +0.000 C 
BRANCH  16  18
ATOM     18  C   UNL     1      -3.052  12.683  22.943  0.00  0.00    +0.000 C 
ATOM     19  O   UNL     1      -3.774  11.858  23.534  0.00  0.00    +0.000 OA
ATOM     20  N   UNL     1      -3.664  13.644  22.144  0.00  0.00    +0.000 N 
ATOM     21  C   UNL     1      -3.061  14.616  21.249  0.00  0.00    +0.000 C 
BRANCH  20  22
ATOM     22  C   UNL     1      -5.124  13.732  22.202  0.00  0.00    +0.000 C 
BRANCH  22  23
ATOM     23  C   UNL     1      -5.851  12.695  21.378  0.00  0.00    +0.000 A 
ATOM     24  C   UNL     1      -7.066  12.165  21.833  0.00  0.00    +0.000 A 
ATOM     25  C   UNL     1      -7.816  11.310  21.025  0.00  0.00    +0.000 A 
ATOM     26  C   UNL     1      -7.349  10.956  19.761  0.00  0.00    +0.000 A 
ATOM     27  C   UNL     1      -6.117  11.434  19.317  0.00  0.00    +0.000 A 
ATOM     28  C   UNL     1      -5.369  12.295  20.122  0.00  0.00    +0.000 A 
ENDBRANCH  22  23
ENDBRANCH  20  22
ENDBRANCH  16  18
ENDBRANCH   3  16
TORSDOF 5
ENDMDL
MODEL 6
REMARK VINA RESULT:      -7.5      1.322      2.432
REMARK  Name = 
REMARK  8 active torsions:
REMARK  status: ('A' for Active; 'I' for Inactive)
REMARK    1  A    between atoms: C_1  and  C_2
REMARK    2  A    between atoms: C_2  and  C_3
REMARK    3  A    between atoms: N_5  and  C_6
REMARK    4  A    between atoms: C_6  and  C_7
REMARK    5  A    between atoms: C_6  and  C_8
REMARK    6  A    between atoms: N_10  and  C_11
REMARK    7  A    between atoms: N_10  and  C_12
REMARK    8  A    between atoms: C_12  and  C_13
REMARK                            x       y       z     vdW  Elec       q    Type
REMARK                         _______ _______ _______ _____ _____    ______ ____
ROOT
ATOM      1  C   UNL     1      -1.353  12.220  20.152  0.00  0.00    +0.000 A 
ATOM      2  N   UNL     1      -0.261  11.691  19.692  0.00  0.00    +0.000 NA
ATOM      3  N   UNL     1      -0.333  10.798  18.623  0.00  0.00    +0.000 N 
ATOM      4  C   UNL     1      -1.526  10.455  17.955  0.00  0.00    +0.000 A 
ATOM      5  O   UNL     1      -1.593   9.611  17.057  0.00  0.00    +0.000 OA
ATOM      6  C   UNL     1      -2.693  11.162  18.440  0.00  0.00    +0.000 A 
ATOM      7  C   UNL     1      -4.013  11.118  18.008  0.00  0.00    +0.000 A 
ATOM      8  C   UNL     1      -4.667  12.007  18.875  0.00  0.00    +0.000 A 
ATOM      9  O   UNL     1      -5.925  12.485  19.046  0.00  0.00    +0.000 OA
ATOM     10  C   UNL     1      -5.827  13.345  20.088  0.00  0.00    +0.000 A 
ATOM     11  C   UNL     1      -4.551  13.423  20.605  0.00  0.00    +0.000 A 
ATOM     12  C   UNL     1      -3.822  12.541  19.780  0.00  0.00    +0.000 A 
ATOM     13  N   UNL     1      -2.571  12.020  19.524  0.00  0.00    +0.000 N 
ENDROOT
BRANCH   1  15
ATOM     14  C   UNL     1      -0.890  14.433  21.144  0.00  0.00    +0.000 C 
ATOM     15  C   UNL     1      -1.323  13.019  21.421  0.00  0.00    +0.000 C 
ENDBRANCH   1  15
BRANCH   3  16
ATOM     16  C   UNL     1       0.900  10.070  18.342  0.00  0.00    +0.000 C 
ATOM     17  C   UNL     1       2.056  11.083  18.225  0.00  0.00    +0.000 C 
BRANCH  16  18
ATOM     18  C   UNL     1       1.360   8.907  19.290  0.00  0.00    +0.000 C 
ATOM     19  O   UNL     1       0.869   8.906  20.435  0.00  0.00    +0.000 OA
ATOM     20  N   UNL     1       2.279   7.913  18.964  0.00  0.00    +0.000 N 
ATOM     21  C   UNL     1       3.093   7.770  17.770  0.00  0.00    +0.000 C 
BRANCH  20  22
ATOM     22  C   UNL     1       2.463   6.829  19.930  0.00  0.00    +0.000 C 
BRANCH  22  23
ATOM     23  C   UNL     1       1.901   5.495  19.497  0.00  0.00    +0.000 A 
ATOM     24  C   UNL     1       2.083   5.055  18.179  0.00  0.00    +0.000 A 
ATOM     25  C   UNL     1       1.690   3.772  17.797  0.00  0.00    +0.000 A 
ATOM     26  C   UNL     1       1.088   2.922  18.723  0.00  0.00    +0.000 A 
ATOM     27  C   UNL     1       0.854   3.366  20.023  0.00  0.00    +0.000 A 
ATOM     28  C   UNL     1       1.254   4.647  20.408  0.00  0.00    +0.000 A 
ENDBRANCH  22  23
ENDBRANCH  20  22
ENDBRANCH  16  18
ENDBRANCH   3  16
TORSDOF 5
ENDMDL
MODEL 7
REMARK VINA RESULT:      -7.3      3.173      8.204
REMARK  Name = 
REMARK  8 active torsions:
REMARK  status: ('A' for Active; 'I' for Inactive)
REMARK    1  A    between atoms: C_1  and  C_2
REMARK    2  A    between atoms: C_2  and  C_3
REMARK    3  A    between atoms: N_5  and  C_6
REMARK    4  A    between atoms: C_6  and  C_7
REMARK    5  A    between atoms: C_6  and  C_8
REMARK    6  A    between atoms: N_10  and  C_11
REMARK    7  A    between atoms: N_10  and  C_12
REMARK    8  A    between atoms: C_12  and  C_13
REMARK                            x       y       z     vdW  Elec       q    Type
REMARK                         _______ _______ _______ _____ _____    ______ ____
ROOT
ATOM      1  C   UNL     1      -0.068  11.780  19.990  0.00  0.00    +0.000 A 
ATOM      2  N   UNL     1      -0.580  12.464  20.966  0.00  0.00    +0.000 NA
ATOM      3  N   UNL     1      -0.720  11.865  22.218  0.00  0.00    +0.000 N 
ATOM      4  C   UNL     1      -0.293  10.558  22.525  0.00  0.00    +0.000 A 
ATOM      5  O   UNL     1      -0.484  10.009  23.613  0.00  0.00    +0.000 OA
ATOM      6  C   UNL     1       0.372   9.887  21.427  0.00  0.00    +0.000 A 
ATOM      7  C   UNL     1       0.956   8.627  21.366  0.00  0.00    +0.000 A 
ATOM      8  C   UNL     1       1.414   8.547  20.043  0.00  0.00    +0.000 A 
ATOM      9  O   UNL     1       2.085   7.651  19.274  0.00  0.00    +0.000 OA
ATOM     10  C   UNL     1       2.205   8.255  18.068  0.00  0.00    +0.000 A 
ATOM     11  C   UNL     1       1.618   9.502  18.028  0.00  0.00    +0.000 A 
ATOM     12  C   UNL     1       1.120   9.658  19.339  0.00  0.00    +0.000 A 
ATOM     13  N   UNL     1       0.462  10.517  20.194  0.00  0.00    +0.000 N 
ENDROOT
BRANCH   1  15
ATOM     14  C   UNL     1       1.021  13.319  18.396  0.00  0.00    +0.000 C 
ATOM     15  C   UNL     1      -0.094  12.330  18.594  0.00  0.00    +0.000 C 
ENDBRANCH   1  15
BRANCH   3  16
ATOM     16  C   UNL     1      -1.527  12.616  23.175  0.00  0.00    +0.000 C 
ATOM     17  C   UNL     1      -1.040  14.078  23.192  0.00  0.00    +0.000 C 
BRANCH  16  18
ATOM     18  C   UNL     1      -3.092  12.621  23.052  0.00  0.00    +0.000 C 
ATOM     19  O   UNL     1      -3.703  11.827  23.793  0.00  0.00    +0.000 OA
ATOM     20  N   UNL     1      -3.832  13.408  22.174  0.00  0.00    +0.000 N 
ATOM     21  C   UNL     1      -3.369  14.294  21.121  0.00  0.00    +0.000 C 
BRANCH  20  22
ATOM     22  C   UNL     1      -5.289  13.380  22.316  0.00  0.00    +0.000 C 
BRANCH  22  23
ATOM     23  C   UNL     1      -6.041  13.119  21.032  0.00  0.00    +0.000 A 
ATOM     24  C   UNL     1      -5.958  11.864  20.415  0.00  0.00    +0.000 A 
ATOM     25  C   UNL     1      -6.750  11.562  19.306  0.00  0.00    +0.000 A 
ATOM     26  C   UNL     1      -7.618  12.521  18.788  0.00  0.00    +0.000 A 
ATOM     27  C   UNL     1      -7.673  13.791  19.359  0.00  0.00    +0.000 A 
ATOM     28  C   UNL     1      -6.886  14.091  20.473  0.00  0.00    +0.000 A 
ENDBRANCH  22  23
ENDBRANCH  20  22
ENDBRANCH  16  18
ENDBRANCH   3  16
TORSDOF 5
ENDMDL
MODEL 8
REMARK VINA RESULT:      -7.3      3.865      8.304
REMARK  Name = 
REMARK  8 active torsions:
REMARK  status: ('A' for Active; 'I' for Inactive)
REMARK    1  A    between atoms: C_1  and  C_2
REMARK    2  A    between atoms: C_2  and  C_3
REMARK    3  A    between atoms: N_5  and  C_6
REMARK    4  A    between atoms: C_6  and  C_7
REMARK    5  A    between atoms: C_6  and  C_8
REMARK    6  A    between atoms: N_10  and  C_11
REMARK    7  A    between atoms: N_10  and  C_12
REMARK    8  A    between atoms: C_12  and  C_13
REMARK                            x       y       z     vdW  Elec       q    Type
REMARK                         _______ _______ _______ _____ _____    ______ ____
ROOT
ATOM      1  C   UNL     1       0.375  13.266  20.613  0.00  0.00    +0.000 A 
ATOM      2  N   UNL     1      -0.170  13.814  21.655  0.00  0.00    +0.000 NA
ATOM      3  N   UNL     1      -0.838  13.008  22.578  0.00  0.00    +0.000 N 
ATOM      4  C   UNL     1      -0.926  11.604  22.489  0.00  0.00    +0.000 A 
ATOM      5  O   UNL     1      -1.578  10.905  23.269  0.00  0.00    +0.000 OA
ATOM      6  C   UNL     1      -0.202  11.042  21.367  0.00  0.00    +0.000 A 
ATOM      7  C   UNL     1      -0.028   9.718  20.984  0.00  0.00    +0.000 A 
ATOM      8  C   UNL     1       0.749   9.818  19.820  0.00  0.00    +0.000 A 
ATOM      9  O   UNL     1       1.316   8.968  18.926  0.00  0.00    +0.000 OA
ATOM     10  C   UNL     1       1.954   9.774  18.044  0.00  0.00    +0.000 A 
ATOM     11  C   UNL     1       1.801  11.115  18.328  0.00  0.00    +0.000 A 
ATOM     12  C   UNL     1       1.015  11.100  19.500  0.00  0.00    +0.000 A 
ATOM     13  N   UNL     1       0.423  11.890  20.463  0.00  0.00    +0.000 N 
ENDROOT
BRANCH   1  15
ATOM     14  C   UNL     1      -0.201  14.676  18.670  0.00  0.00    +0.000 C 
ATOM     15  C   UNL     1       0.919  14.126  19.511  0.00  0.00    +0.000 C 
ENDBRANCH   1  15
BRANCH   3  16
ATOM     16  C   UNL     1      -1.627  13.730  23.571  0.00  0.00    +0.000 C 
ATOM     17  C   UNL     1      -0.846  14.988  24.003  0.00  0.00    +0.000 C 
BRANCH  16  18
ATOM     18  C   UNL     1      -3.102  14.156  23.246  0.00  0.00    +0.000 C 
ATOM     19  O   UNL     1      -3.236  15.168  22.531  0.00  0.00    +0.000 OA
ATOM     20  N   UNL     1      -4.249  13.519  23.711  0.00  0.00    +0.000 N 
ATOM     21  C   UNL     1      -4.373  12.426  24.659  0.00  0.00    +0.000 C 
BRANCH  20  22
ATOM     22  C   UNL     1      -5.532  13.975  23.175  0.00  0.00    +0.000 C 
BRANCH  22  23
ATOM     23  C   UNL     1      -6.195  13.010  22.220  0.00  0.00    +0.000 A 
ATOM     24  C   UNL     1      -5.586  12.708  20.995  0.00  0.00    +0.000 A 
ATOM     25  C   UNL     1      -6.113  11.721  20.162  0.00  0.00    +0.000 A 
ATOM     26  C   UNL     1      -7.270  11.040  20.534  0.00  0.00    +0.000 A 
ATOM     27  C   UNL     1      -7.916  11.366  21.725  0.00  0.00    +0.000 A 
ATOM     28  C   UNL     1      -7.385  12.349  22.562  0.00  0.00    +0.000 A 
ENDBRANCH  22  23
ENDBRANCH  20  22
ENDBRANCH  16  18
ENDBRANCH   3  16
TORSDOF 5
ENDMDL
MODEL 9
REMARK VINA RESULT:      -7.2      0.815      1.029
REMARK  Name = 
REMARK  8 active torsions:
REMARK  status: ('A' for Active; 'I' for Inactive)
REMARK    1  A    between atoms: C_1  and  C_2
REMARK    2  A    between atoms: C_2  and  C_3
REMARK    3  A    between atoms: N_5  and  C_6
REMARK    4  A    between atoms: C_6  and  C_7
REMARK    5  A    between atoms: C_6  and  C_8
REMARK    6  A    between atoms: N_10  and  C_11
REMARK    7  A    between atoms: N_10  and  C_12
REMARK    8  A    between atoms: C_12  and  C_13
REMARK                            x       y       z     vdW  Elec       q    Type
REMARK                         _______ _______ _______ _____ _____    ______ ____
ROOT
ATOM      1  C   UNL     1      -2.138  10.642  18.015  0.00  0.00    +0.000 A 
ATOM      2  N   UNL     1      -1.061   9.947  17.815  0.00  0.00    +0.000 NA
ATOM      3  N   UNL     1       0.040  10.141  18.651  0.00  0.00    +0.000 N 
ATOM      4  C   UNL     1       0.055  11.019  19.753  0.00  0.00    +0.000 A 
ATOM      5  O   UNL     1       1.054  11.239  20.444  0.00  0.00    +0.000 OA
ATOM      6  C   UNL     1      -1.212  11.680  19.992  0.00  0.00    +0.000 A 
ATOM      7  C   UNL     1      -1.585  12.568  20.994  0.00  0.00    +0.000 A 
ATOM      8  C   UNL     1      -2.920  12.864  20.681  0.00  0.00    +0.000 A 
ATOM      9  O   UNL     1      -3.921  13.618  21.204  0.00  0.00    +0.000 OA
ATOM     10  C   UNL     1      -4.973  13.414  20.376  0.00  0.00    +0.000 A 
ATOM     11  C   UNL     1      -4.678  12.569  19.326  0.00  0.00    +0.000 A 
ATOM     12  C   UNL     1      -3.331  12.226  19.567  0.00  0.00    +0.000 A 
ATOM     13  N   UNL     1      -2.267  11.473  19.116  0.00  0.00    +0.000 N 
ENDROOT
BRANCH   1  15
ATOM     14  C   UNL     1      -2.835   9.836  15.788  0.00  0.00    +0.000 C 
ATOM     15  C   UNL     1      -3.255  10.600  17.014  0.00  0.00    +0.000 C 
ENDBRANCH   1  15
BRANCH   3  16
ATOM     16  C   UNL     1       1.275   9.509  18.200  0.00  0.00    +0.000 C 
ATOM     17  C   UNL     1       2.360  10.595  18.050  0.00  0.00    +0.000 C 
BRANCH  16  18
ATOM     18  C   UNL     1       1.888   8.312  19.008  0.00  0.00    +0.000 C 
ATOM     19  O   UNL     1       1.477   8.171  20.176  0.00  0.00    +0.000 OA
ATOM     20  N   UNL     1       2.857   7.429  18.538  0.00  0.00    +0.000 N 
ATOM     21  C   UNL     1       3.597   7.458  17.289  0.00  0.00    +0.000 C 
BRANCH  20  22
ATOM     22  C   UNL     1       3.190   6.286  19.389  0.00  0.00    +0.000 C 
BRANCH  22  23
ATOM     23  C   UNL     1       2.906   4.937  18.771  0.00  0.00    +0.000 A 
ATOM     24  C   UNL     1       3.966   4.080  18.446  0.00  0.00    +0.000 A 
ATOM     25  C   UNL     1       3.719   2.780  18.001  0.00  0.00    +0.000 A 
ATOM     26  C   UNL     1       2.408   2.331  17.854  0.00  0.00    +0.000 A 
ATOM     27  C   UNL     1       1.345   3.190  18.123  0.00  0.00    +0.000 A 
ATOM     28  C   UNL     1       1.591   4.488  18.575  0.00  0.00    +0.000 A 
ENDBRANCH  22  23
ENDBRANCH  20  22
ENDBRANCH  16  18
ENDBRANCH   3  16
TORSDOF 5
ENDMDL
