MODEL 1
REMARK VINA RESULT:      -7.5      0.000      0.000
REMARK  Name = 
REMARK  10 active torsions:
REMARK  status: ('A' for Active; 'I' for Inactive)
REMARK    1  A    between atoms: C_1  and  C_2
REMARK    2  A    between atoms: C_5  and  S_6
REMARK    3  A    between atoms: S_6  and  N_9
REMARK    4  A    between atoms: N_12  and  C_13
REMARK    5  A    between atoms: N_12  and  C_23
REMARK    6  A    between atoms: C_13  and  C_14
REMARK    7  A    between atoms: C_19  and  N_20
REMARK    8  A    between atoms: C_23  and  C_24
REMARK    9  A    between atoms: C_23  and  C_25
REMARK   10  A    between atoms: C_25  and  O_27
REMARK                            x       y       z     vdW  Elec       q    Type
REMARK                         _______ _______ _______ _____ _____    ______ ____
ROOT
ATOM      1  N   UNL     1       5.605   5.424  18.898  0.00  0.00    +0.000 N 
ATOM      2  C   UNL     1       4.433   6.095  18.567  0.00  0.00    +0.000 C 
ATOM      3  O   UNL     1       4.448   7.012  17.753  0.00  0.00    +0.000 OA
ATOM      4  N   UNL     1       3.259   5.743  19.236  0.00  0.00    +0.000 N 
ATOM      5  H   UNL     1       5.686   4.755  19.652  0.00  0.00    +0.000 HD
ENDROOT
BRANCH   1   6
ATOM      6  S   UNL     1       7.048   5.531  18.068  0.00  0.00    +0.000 S 
ATOM      7  O   UNL     1       8.025   4.692  18.730  0.00  0.00    +0.000 OA
ATOM      8  O   UNL     1       7.285   6.955  17.922  0.00  0.00    +0.000 OA
BRANCH   6  13
ATOM      9  C   UNL     1       5.872   3.423  12.490  0.00  0.00    +0.000 C 
ATOM     10  C   UNL     1       6.126   3.957  13.869  0.00  0.00    +0.000 A 
ATOM     11  C   UNL     1       5.415   3.474  14.975  0.00  0.00    +0.000 A 
ATOM     12  C   UNL     1       5.700   3.941  16.264  0.00  0.00    +0.000 A 
ATOM     13  C   UNL     1       6.717   4.883  16.450  0.00  0.00    +0.000 A 
ATOM     14  C   UNL     1       7.406   5.398  15.349  0.00  0.00    +0.000 A 
ATOM     15  C   UNL     1       7.120   4.926  14.067  0.00  0.00    +0.000 A 
ENDBRANCH   6  13
ENDBRANCH   1   6
BRANCH   4  16
ATOM     16  C   UNL     1       3.088   4.518  20.052  0.00  0.00    +0.000 C 
ATOM     17  C   UNL     1       1.694   4.369  20.654  0.00  0.00    +0.000 C 
BRANCH  16  18
ATOM     18  C   UNL     1       3.543   3.256  19.303  0.00  0.00    +0.000 C 
ATOM     19  O   UNL     1       2.878   2.674  18.459  0.00  0.00    +0.000 OA
BRANCH  18  20
ATOM     20  O   UNL     1       4.761   2.804  19.688  0.00  0.00    +0.000 OA
ATOM     21  H   UNL     1       5.077   2.058  19.141  0.00  0.00    +0.000 HD
ENDBRANCH  18  20
ENDBRANCH  16  18
ENDBRANCH   4  16
BRANCH   4  22
ATOM     22  C   UNL     1       2.049   6.540  18.976  0.00  0.00    +0.000 C 
BRANCH  22  23
ATOM     23  C   UNL     1       1.826   7.778  19.831  0.00  0.00    +0.000 A 
ATOM     24  C   UNL     1       1.909   7.718  21.232  0.00  0.00    +0.000 A 
ATOM     25  C   UNL     1       1.441   8.767  22.037  0.00  0.00    +0.000 A 
ATOM     26  C   UNL     1       0.853   9.895  21.468  0.00  0.00    +0.000 A 
ATOM     27  C   UNL     1       0.794  10.013  20.085  0.00  0.00    +0.000 A 
ATOM     28  C   UNL     1       1.302   8.975  19.287  0.00  0.00    +0.000 A 
BRANCH  28  29
ATOM     29  N   UNL     1       1.322   9.211  17.853  0.00  0.00    +0.000 N 
ATOM     30  O   UNL     1       0.244   9.095  17.255  0.00  0.00    +0.000 OA
ATOM     31  O   UNL     1       2.407   9.505  17.337  0.00  0.00    +0.000 OA
ENDBRANCH  28  29
ENDBRANCH  22  23
ENDBRANCH   4  22
TORSDOF 8
ENDMDL
MODEL 2
REMARK VINA RESULT:      -7.5      0.151      1.078
REMARK  Name = 
REMARK  10 active torsions:
REMARK  status: ('A' for Active; 'I' for Inactive)
REMARK    1  A    between atoms: C_1  and  C_2
REMARK    2  A    between atoms: C_5  and  S_6
REMARK    3  A    between atoms: S_6  and  N_9
REMARK    4  A    between atoms: N_12  and  C_13
REMARK    5  A    between atoms: N_12  and  C_23
REMARK    6  A    between atoms: C_13  and  C_14
REMARK    7  A    between atoms: C_19  and  N_20
REMARK    8  A    between atoms: C_23  and  C_24
REMARK    9  A    between atoms: C_23  and  C_25
REMARK   10  A    between atoms: C_25  and  O_27
REMARK                            x       y       z     vdW  Elec       q    Type
REMARK                         _______ _______ _______ _____ _____    ______ ____
ROOT
ATOM      1  N   UNL     1       5.614   5.390  18.740  0.00  0.00    +0.000 N 
ATOM      2  C   UNL     1       4.439   6.069  18.439  0.00  0.00    +0.000 C 
ATOM      3  O   UNL     1       4.443   6.998  17.638  0.00  0.00    +0.000 OA
ATOM      4  N   UNL     1       3.275   5.711  19.123  0.00  0.00    +0.000 N 
ATOM      5  H   UNL     1       5.706   4.710  19.483  0.00  0.00    +0.000 HD
ENDROOT
BRANCH   1   6
ATOM      6  S   UNL     1       7.043   5.505  17.887  0.00  0.00    +0.000 S 
ATOM      7  O   UNL     1       8.019   4.628  18.502  0.00  0.00    +0.000 OA
ATOM      8  O   UNL     1       7.299   6.929  17.787  0.00  0.00    +0.000 OA
BRANCH   6  13
ATOM      9  C   UNL     1       5.808   3.381  12.328  0.00  0.00    +0.000 C 
ATOM     10  C   UNL     1       6.148   3.889  13.700  0.00  0.00    +0.000 A 
ATOM     11  C   UNL     1       7.195   4.797  13.895  0.00  0.00    +0.000 A 
ATOM     12  C   UNL     1       7.468   5.306  15.171  0.00  0.00    +0.000 A 
ATOM     13  C   UNL     1       6.673   4.918  16.254  0.00  0.00    +0.000 A 
ATOM     14  C   UNL     1       5.650   3.984  16.075  0.00  0.00    +0.000 A 
ATOM     15  C   UNL     1       5.381   3.483  14.801  0.00  0.00    +0.000 A 
ENDBRANCH   6  13
ENDBRANCH   1   6
BRANCH   4  16
ATOM     16  C   UNL     1       3.114   4.475  19.923  0.00  0.00    +0.000 C 
ATOM     17  C   UNL     1       1.705   4.278  20.476  0.00  0.00    +0.000 C 
BRANCH  16  18
ATOM     18  C   UNL     1       3.633   3.233  19.182  0.00  0.00    +0.000 C 
ATOM     19  O   UNL     1       3.041   2.672  18.273  0.00  0.00    +0.000 OA
BRANCH  18  20
ATOM     20  O   UNL     1       4.817   2.774  19.653  0.00  0.00    +0.000 OA
ATOM     21  H   UNL     1       5.210   3.362  20.327  0.00  0.00    +0.000 HD
ENDBRANCH  18  20
ENDBRANCH  16  18
ENDBRANCH   4  16
BRANCH   4  22
ATOM     22  C   UNL     1       2.063   6.516  18.894  0.00  0.00    +0.000 C 
BRANCH  22  23
ATOM     23  C   UNL     1       1.851   7.732  19.780  0.00  0.00    +0.000 A 
ATOM     24  C   UNL     1       1.952   7.640  21.178  0.00  0.00    +0.000 A 
ATOM     25  C   UNL     1       1.494   8.670  22.014  0.00  0.00    +0.000 A 
ATOM     26  C   UNL     1       0.898   9.810  21.479  0.00  0.00    +0.000 A 
ATOM     27  C   UNL     1       0.821   9.960  20.100  0.00  0.00    +0.000 A 
ATOM     28  C   UNL     1       1.319   8.942  19.272  0.00  0.00    +0.000 A 
BRANCH  28  29
ATOM     29  N   UNL     1       1.320   9.211  17.844  0.00  0.00    +0.000 N 
ATOM     30  O   UNL     1       2.415   9.476  17.329  0.00  0.00    +0.000 OA
ATOM     31  O   UNL     1       0.236   9.159  17.251  0.00  0.00    +0.000 OA
ENDBRANCH  28  29
ENDBRANCH  22  23
ENDBRANCH   4  22
TORSDOF 8
ENDMDL
MODEL 3
REMARK VINA RESULT:      -7.3      0.894      1.319
REMARK  Name = 
REMARK  10 active torsions:
REMARK  status: ('A' for Active; 'I' for Inactive)
REMARK    1  A    between atoms: C_1  and  C_2
REMARK    2  A    between atoms: C_5  and  S_6
REMARK    3  A    between atoms: S_6  and  N_9
REMARK    4  A    between atoms: N_12  and  C_13
REMARK    5  A    between atoms: N_12  and  C_23
REMARK    6  A    between atoms: C_13  and  C_14
REMARK    7  A    between atoms: C_19  and  N_20
REMARK    8  A    between atoms: C_23  and  C_24
REMARK    9  A    between atoms: C_23  and  C_25
REMARK   10  A    between atoms: C_25  and  O_27
REMARK                            x       y       z     vdW  Elec       q    Type
REMARK                         _______ _______ _______ _____ _____    ______ ____
ROOT
ATOM      1  N   UNL     1       5.195   5.429  18.633  0.00  0.00    +0.000 N 
ATOM      2  C   UNL     1       4.091   6.235  18.384  0.00  0.00    +0.000 C 
ATOM      3  O   UNL     1       4.208   7.272  17.738  0.00  0.00    +0.000 OA
ATOM      4  N   UNL     1       2.865   5.870  18.946  0.00  0.00    +0.000 N 
ATOM      5  H   UNL     1       5.195   4.639  19.265  0.00  0.00    +0.000 HD
ENDROOT
BRANCH   1   6
ATOM      6  S   UNL     1       6.678   5.560  17.880  0.00  0.00    +0.000 S 
ATOM      7  O   UNL     1       7.620   4.697  18.562  0.00  0.00    +0.000 OA
ATOM      8  O   UNL     1       6.923   6.987  17.793  0.00  0.00    +0.000 OA
BRANCH   6  13
ATOM      9  C   UNL     1       5.837   3.408  12.258  0.00  0.00    +0.000 C 
ATOM     10  C   UNL     1       6.077   3.919  13.649  0.00  0.00    +0.000 A 
ATOM     11  C   UNL     1       7.186   4.724  13.942  0.00  0.00    +0.000 A 
ATOM     12  C   UNL     1       7.370   5.240  15.231  0.00  0.00    +0.000 A 
ATOM     13  C   UNL     1       6.427   4.966  16.227  0.00  0.00    +0.000 A 
ATOM     14  C   UNL     1       5.339   4.133  15.953  0.00  0.00    +0.000 A 
ATOM     15  C   UNL     1       5.159   3.625  14.667  0.00  0.00    +0.000 A 
ENDBRANCH   6  13
ENDBRANCH   1   6
BRANCH   4  16
ATOM     16  C   UNL     1       2.571   4.543  19.536  0.00  0.00    +0.000 C 
ATOM     17  C   UNL     1       2.024   4.609  20.959  0.00  0.00    +0.000 C 
BRANCH  16  18
ATOM     18  C   UNL     1       1.700   3.679  18.611  0.00  0.00    +0.000 C 
ATOM     19  O   UNL     1       1.781   3.672  17.392  0.00  0.00    +0.000 OA
BRANCH  18  20
ATOM     20  O   UNL     1       0.783   2.930  19.270  0.00  0.00    +0.000 OA
ATOM     21  H   UNL     1       0.625   3.243  20.182  0.00  0.00    +0.000 HD
ENDBRANCH  18  20
ENDBRANCH  16  18
ENDBRANCH   4  16
BRANCH   4  22
ATOM     22  C   UNL     1       1.729   6.792  18.786  0.00  0.00    +0.000 C 
BRANCH  22  23
ATOM     23  C   UNL     1       1.631   7.960  19.755  0.00  0.00    +0.000 A 
ATOM     24  C   UNL     1       1.809   7.776  21.136  0.00  0.00    +0.000 A 
ATOM     25  C   UNL     1       1.453   8.773  22.057  0.00  0.00    +0.000 A 
ATOM     26  C   UNL     1       0.886   9.971  21.628  0.00  0.00    +0.000 A 
ATOM     27  C   UNL     1       0.736  10.210  20.269  0.00  0.00    +0.000 A 
ATOM     28  C   UNL     1       1.133   9.222  19.352  0.00  0.00    +0.000 A 
BRANCH  28  29
ATOM     29  N   UNL     1       1.065   9.579  17.945  0.00  0.00    +0.000 N 
ATOM     30  O   UNL     1      -0.060   9.581  17.426  0.00  0.00    +0.000 OA
ATOM     31  O   UNL     1       2.126   9.850  17.371  0.00  0.00    +0.000 OA
ENDBRANCH  28  29
ENDBRANCH  22  23
ENDBRANCH   4  22
TORSDOF 8
ENDMDL
MODEL 4
REMARK VINA RESULT:      -7.2      3.003      7.112
REMARK  Name = 
REMARK  10 active torsions:
REMARK  status: ('A' for Active; 'I' for Inactive)
REMARK    1  A    between atoms: C_1  and  C_2
REMARK    2  A    between atoms: C_5  and  S_6
REMARK    3  A    between atoms: S_6  and  N_9
REMARK    4  A    between atoms: N_12  and  C_13
REMARK    5  A    between atoms: N_12  and  C_23
REMARK    6  A    between atoms: C_13  and  C_14
REMARK    7  A    between atoms: C_19  and  N_20
REMARK    8  A    between atoms: C_23  and  C_24
REMARK    9  A    between atoms: C_23  and  C_25
REMARK   10  A    between atoms: C_25  and  O_27
REMARK                            x       y       z     vdW  Elec       q    Type
REMARK                         _______ _______ _______ _____ _____    ______ ____
ROOT
ATOM      1  N   UNL     1       1.450   7.921  18.730  0.00  0.00    +0.000 N 
ATOM      2  C   UNL     1       2.466   7.221  18.090  0.00  0.00    +0.000 C 
ATOM      3  O   UNL     1       3.312   7.814  17.428  0.00  0.00    +0.000 OA
ATOM      4  N   UNL     1       2.456   5.827  18.165  0.00  0.00    +0.000 N 
ATOM      5  H   UNL     1       0.652   7.489  19.177  0.00  0.00    +0.000 HD
ENDROOT
BRANCH   1   6
ATOM      6  S   UNL     1       1.407   9.574  18.953  0.00  0.00    +0.000 S 
ATOM      7  O   UNL     1       2.344  10.189  18.037  0.00  0.00    +0.000 OA
ATOM      8  O   UNL     1       1.555   9.757  20.384  0.00  0.00    +0.000 OA
BRANCH   6  13
ATOM      9  C   UNL     1      -4.199  11.322  17.385  0.00  0.00    +0.000 C 
ATOM     10  C   UNL     1      -2.802  10.926  17.767  0.00  0.00    +0.000 A 
ATOM     11  C   UNL     1      -2.174  11.482  18.888  0.00  0.00    +0.000 A 
ATOM     12  C   UNL     1      -0.892  11.064  19.265  0.00  0.00    +0.000 A 
ATOM     13  C   UNL     1      -0.243  10.070  18.526  0.00  0.00    +0.000 A 
ATOM     14  C   UNL     1      -0.846   9.537  17.385  0.00  0.00    +0.000 A 
ATOM     15  C   UNL     1      -2.126   9.954  17.016  0.00  0.00    +0.000 A 
ENDBRANCH   6  13
ENDBRANCH   1   6
BRANCH   4  16
ATOM     16  C   UNL     1       1.631   5.039  19.111  0.00  0.00    +0.000 C 
ATOM     17  C   UNL     1       1.352   3.613  18.645  0.00  0.00    +0.000 C 
BRANCH  16  18
ATOM     18  C   UNL     1       2.185   5.092  20.543  0.00  0.00    +0.000 C 
ATOM     19  O   UNL     1       2.622   4.127  21.152  0.00  0.00    +0.000 OA
BRANCH  18  20
ATOM     20  O   UNL     1       2.114   6.321  21.109  0.00  0.00    +0.000 OA
ATOM     21  H   UNL     1       1.257   6.486  21.548  0.00  0.00    +0.000 HD
ENDBRANCH  18  20
ENDBRANCH  16  18
ENDBRANCH   4  16
BRANCH   4  22
ATOM     22  C   UNL     1       3.458   5.085  17.382  0.00  0.00    +0.000 C 
BRANCH  22  23
ATOM     23  C   UNL     1       4.919   5.259  17.766  0.00  0.00    +0.000 A 
ATOM     24  C   UNL     1       5.342   5.116  19.098  0.00  0.00    +0.000 A 
ATOM     25  C   UNL     1       6.615   5.539  19.509  0.00  0.00    +0.000 A 
ATOM     26  C   UNL     1       7.492   6.142  18.610  0.00  0.00    +0.000 A 
ATOM     27  C   UNL     1       7.128   6.260  17.275  0.00  0.00    +0.000 A 
ATOM     28  C   UNL     1       5.868   5.796  16.864  0.00  0.00    +0.000 A 
BRANCH  28  29
ATOM     29  N   UNL     1       5.596   5.836  15.437  0.00  0.00    +0.000 N 
ATOM     30  O   UNL     1       5.784   4.787  14.805  0.00  0.00    +0.000 OA
ATOM     31  O   UNL     1       5.203   6.907  14.960  0.00  0.00    +0.000 OA
ENDBRANCH  28  29
ENDBRANCH  22  23
ENDBRANCH   4  22
TORSDOF 8
ENDMDL
MODEL 5
REMARK VINA RESULT:      -7.1      1.820      7.470
REMARK  Name = 
REMARK  10 active torsions:
REMARK  status: ('A' for Active; 'I' for Inactive)
REMARK    1  A    between atoms: C_1  and  C_2
REMARK    2  A    between atoms: C_5  and  S_6
REMARK    3  A    between atoms: S_6  and  N_9
REMARK    4  A    between atoms: N_12  and  C_13
REMARK    5  A    between atoms: N_12  and  C_23
REMARK    6  A    between atoms: C_13  and  C_14
REMARK    7  A    between atoms: C_19  and  N_20
REMARK    8  A    between atoms: C_23  and  C_24
REMARK    9  A    between atoms: C_23  and  C_25
REMARK   10  A    between atoms: C_25  and  O_27
REMARK                            x       y       z     vdW  Elec       q    Type
REMARK                         _______ _______ _______ _____ _____    ______ ____
ROOT
ATOM      1  N   UNL     1       2.099   7.129  18.372  0.00  0.00    +0.000 N 
ATOM      2  C   UNL     1       3.361   6.554  18.281  0.00  0.00    +0.000 C 
ATOM      3  O   UNL     1       4.305   7.190  17.824  0.00  0.00    +0.000 OA
ATOM      4  N   UNL     1       3.508   5.218  18.658  0.00  0.00    +0.000 N 
ATOM      5  H   UNL     1       1.257   6.622  18.612  0.00  0.00    +0.000 HD
ENDROOT
BRANCH   1   6
ATOM      6  S   UNL     1       1.760   8.753  18.192  0.00  0.00    +0.000 S 
ATOM      7  O   UNL     1       0.860   8.915  17.069  0.00  0.00    +0.000 OA
ATOM      8  O   UNL     1       3.057   9.402  18.190  0.00  0.00    +0.000 OA
BRANCH   6  13
ATOM      9  C   UNL     1      -1.027  10.518  23.296  0.00  0.00    +0.000 C 
ATOM     10  C   UNL     1      -0.305  10.093  22.051  0.00  0.00    +0.000 A 
ATOM     11  C   UNL     1       0.637   9.056  22.079  0.00  0.00    +0.000 A 
ATOM     12  C   UNL     1       1.263   8.632  20.901  0.00  0.00    +0.000 A 
ATOM     13  C   UNL     1       0.930   9.235  19.684  0.00  0.00    +0.000 A 
ATOM     14  C   UNL     1       0.020  10.295  19.652  0.00  0.00    +0.000 A 
ATOM     15  C   UNL     1      -0.604  10.711  20.829  0.00  0.00    +0.000 A 
ENDBRANCH   6  13
ENDBRANCH   1   6
BRANCH   4  16
ATOM     16  C   UNL     1       2.505   4.444  19.426  0.00  0.00    +0.000 C 
ATOM     17  C   UNL     1       1.927   5.199  20.621  0.00  0.00    +0.000 C 
BRANCH  16  18
ATOM     18  C   UNL     1       1.413   3.853  18.521  0.00  0.00    +0.000 C 
ATOM     19  O   UNL     1       1.195   4.212  17.374  0.00  0.00    +0.000 OA
BRANCH  18  20
ATOM     20  O   UNL     1       0.664   2.898  19.124  0.00  0.00    +0.000 OA
ATOM     21  H   UNL     1       0.010   3.269  19.748  0.00  0.00    +0.000 HD
ENDBRANCH  18  20
ENDBRANCH  16  18
ENDBRANCH   4  16
BRANCH   4  22
ATOM     22  C   UNL     1       4.815   4.577  18.441  0.00  0.00    +0.000 C 
BRANCH  22  23
ATOM     23  C   UNL     1       5.435   4.698  17.058  0.00  0.00    +0.000 A 
ATOM     24  C   UNL     1       4.733   4.296  15.909  0.00  0.00    +0.000 A 
ATOM     25  C   UNL     1       5.381   4.143  14.674  0.00  0.00    +0.000 A 
ATOM     26  C   UNL     1       6.752   4.360  14.556  0.00  0.00    +0.000 A 
ATOM     27  C   UNL     1       7.473   4.802  15.657  0.00  0.00    +0.000 A 
ATOM     28  C   UNL     1       6.808   4.992  16.879  0.00  0.00    +0.000 A 
BRANCH  28  29
ATOM     29  N   UNL     1       7.590   5.571  17.959  0.00  0.00    +0.000 N 
ATOM     30  O   UNL     1       8.138   4.777  18.737  0.00  0.00    +0.000 OA
ATOM     31  O   UNL     1       7.649   6.804  18.026  0.00  0.00    +0.000 OA
ENDBRANCH  28  29
ENDBRANCH  22  23
ENDBRANCH   4  22
TORSDOF 8
ENDMDL
MODEL 6
REMARK VINA RESULT:      -7.0      1.958      7.560
REMARK  Name = 
REMARK  10 active torsions:
REMARK  status: ('A' for Active; 'I' for Inactive)
REMARK    1  A    between atoms: C_1  and  C_2
REMARK    2  A    between atoms: C_5  and  S_6
REMARK    3  A    between atoms: S_6  and  N_9
REMARK    4  A    between atoms: N_12  and  C_13
REMARK    5  A    between atoms: N_12  and  C_23
REMARK    6  A    between atoms: C_13  and  C_14
REMARK    7  A    between atoms: C_19  and  N_20
REMARK    8  A    between atoms: C_23  and  C_24
REMARK    9  A    between atoms: C_23  and  C_25
REMARK   10  A    between atoms: C_25  and  O_27
REMARK                            x       y       z     vdW  Elec       q    Type
REMARK                         _______ _______ _______ _____ _____    ______ ____
ROOT
ATOM      1  N   UNL     1       1.718   7.474  18.090  0.00  0.00    +0.000 N 
ATOM      2  C   UNL     1       3.029   7.029  18.207  0.00  0.00    +0.000 C 
ATOM      3  O   UNL     1       3.968   7.787  17.986  0.00  0.00    +0.000 OA
ATOM      4  N   UNL     1       3.245   5.684  18.514  0.00  0.00    +0.000 N 
ATOM      5  H   UNL     1       0.905   6.873  18.127  0.00  0.00    +0.000 HD
ENDROOT
BRANCH   1   6
ATOM      6  S   UNL     1       1.246   9.069  17.958  0.00  0.00    +0.000 S 
ATOM      7  O   UNL     1       0.196   9.159  16.964  0.00  0.00    +0.000 OA
ATOM      8  O   UNL     1       2.483   9.807  17.784  0.00  0.00    +0.000 OA
BRANCH   6  13
ATOM      9  C   UNL     1      -0.938  10.673  23.398  0.00  0.00    +0.000 C 
ATOM     10  C   UNL     1      -0.363  10.285  22.067  0.00  0.00    +0.000 A 
ATOM     11  C   UNL     1       0.495   9.184  21.943  0.00  0.00    +0.000 A 
ATOM     12  C   UNL     1       0.982   8.798  20.688  0.00  0.00    +0.000 A 
ATOM     13  C   UNL     1       0.590   9.506  19.547  0.00  0.00    +0.000 A 
ATOM     14  C   UNL     1      -0.235  10.627  19.666  0.00  0.00    +0.000 A 
ATOM     15  C   UNL     1      -0.720  11.005  20.918  0.00  0.00    +0.000 A 
ENDBRANCH   6  13
ENDBRANCH   1   6
BRANCH   4  16
ATOM     16  C   UNL     1       2.206   4.757  19.018  0.00  0.00    +0.000 C 
ATOM     17  C   UNL     1       1.946   3.565  18.102  0.00  0.00    +0.000 C 
BRANCH  16  18
ATOM     18  C   UNL     1       2.464   4.335  20.473  0.00  0.00    +0.000 C 
ATOM     19  O   UNL     1       2.623   3.181  20.841  0.00  0.00    +0.000 OA
BRANCH  18  20
ATOM     20  O   UNL     1       2.465   5.369  21.348  0.00  0.00    +0.000 OA
ATOM     21  H   UNL     1       3.229   5.349  21.956  0.00  0.00    +0.000 HD
ENDBRANCH  18  20
ENDBRANCH  16  18
ENDBRANCH   4  16
BRANCH   4  22
ATOM     22  C   UNL     1       4.632   5.188  18.512  0.00  0.00    +0.000 C 
BRANCH  22  23
ATOM     23  C   UNL     1       5.341   5.093  17.170  0.00  0.00    +0.000 A 
ATOM     24  C   UNL     1       4.653   4.702  16.010  0.00  0.00    +0.000 A 
ATOM     25  C   UNL     1       5.339   4.346  14.839  0.00  0.00    +0.000 A 
ATOM     26  C   UNL     1       6.732   4.345  14.800  0.00  0.00    +0.000 A 
ATOM     27  C   UNL     1       7.448   4.770  15.912  0.00  0.00    +0.000 A 
ATOM     28  C   UNL     1       6.751   5.164  17.066  0.00  0.00    +0.000 A 
BRANCH  28  29
ATOM     29  N   UNL     1       7.550   5.712  18.150  0.00  0.00    +0.000 N 
ATOM     30  O   UNL     1       8.036   4.899  18.948  0.00  0.00    +0.000 OA
ATOM     31  O   UNL     1       7.682   6.940  18.197  0.00  0.00    +0.000 OA
ENDBRANCH  28  29
ENDBRANCH  22  23
ENDBRANCH   4  22
TORSDOF 8
ENDMDL
MODEL 7
REMARK VINA RESULT:      -7.0      1.862      7.498
REMARK  Name = 
REMARK  10 active torsions:
REMARK  status: ('A' for Active; 'I' for Inactive)
REMARK    1  A    between atoms: C_1  and  C_2
REMARK    2  A    between atoms: C_5  and  S_6
REMARK    3  A    between atoms: S_6  and  N_9
REMARK    4  A    between atoms: N_12  and  C_13
REMARK    5  A    between atoms: N_12  and  C_23
REMARK    6  A    between atoms: C_13  and  C_14
REMARK    7  A    between atoms: C_19  and  N_20
REMARK    8  A    between atoms: C_23  and  C_24
REMARK    9  A    between atoms: C_23  and  C_25
REMARK   10  A    between atoms: C_25  and  O_27
REMARK                            x       y       z     vdW  Elec       q    Type
REMARK                         _______ _______ _______ _____ _____    ______ ____
ROOT
ATOM      1  N   UNL     1       1.821   7.327  18.007  0.00  0.00    +0.000 N 
ATOM      2  C   UNL     1       3.114   6.823  18.084  0.00  0.00    +0.000 C 
ATOM      3  O   UNL     1       4.081   7.549  17.877  0.00  0.00    +0.000 OA
ATOM      4  N   UNL     1       3.278   5.458  18.334  0.00  0.00    +0.000 N 
ATOM      5  H   UNL     1       0.984   6.759  18.034  0.00  0.00    +0.000 HD
ENDROOT
BRANCH   1   6
ATOM      6  S   UNL     1       1.416   8.944  17.946  0.00  0.00    +0.000 S 
ATOM      7  O   UNL     1       0.335   9.114  16.998  0.00  0.00    +0.000 OA
ATOM      8  O   UNL     1       2.677   9.633  17.749  0.00  0.00    +0.000 OA
BRANCH   6  13
ATOM      9  C   UNL     1      -0.622  10.237  23.524  0.00  0.00    +0.000 C 
ATOM     10  C   UNL     1      -0.155   9.910  22.135  0.00  0.00    +0.000 A 
ATOM     11  C   UNL     1      -0.549  10.687  21.039  0.00  0.00    +0.000 A 
ATOM     12  C   UNL     1      -0.064  10.405  19.756  0.00  0.00    +0.000 A 
ATOM     13  C   UNL     1       0.839   9.353  19.573  0.00  0.00    +0.000 A 
ATOM     14  C   UNL     1       1.209   8.550  20.655  0.00  0.00    +0.000 A 
ATOM     15  C   UNL     1       0.725   8.837  21.932  0.00  0.00    +0.000 A 
ENDBRANCH   6  13
ENDBRANCH   1   6
BRANCH   4  16
ATOM     16  C   UNL     1       2.207   4.556  18.818  0.00  0.00    +0.000 C 
ATOM     17  C   UNL     1       1.926   3.379  17.889  0.00  0.00    +0.000 C 
BRANCH  16  18
ATOM     18  C   UNL     1       2.436   4.116  20.273  0.00  0.00    +0.000 C 
ATOM     19  O   UNL     1       2.312   4.845  21.244  0.00  0.00    +0.000 OA
BRANCH  18  20
ATOM     20  O   UNL     1       2.833   2.826  20.394  0.00  0.00    +0.000 OA
ATOM     21  H   UNL     1       3.026   2.407  19.533  0.00  0.00    +0.000 HD
ENDBRANCH  18  20
ENDBRANCH  16  18
ENDBRANCH   4  16
BRANCH   4  22
ATOM     22  C   UNL     1       4.641   4.905  18.288  0.00  0.00    +0.000 C 
BRANCH  22  23
ATOM     23  C   UNL     1       5.361   4.922  16.950  0.00  0.00    +0.000 A 
ATOM     24  C   UNL     1       4.710   4.528  15.769  0.00  0.00    +0.000 A 
ATOM     25  C   UNL     1       5.426   4.276  14.589  0.00  0.00    +0.000 A 
ATOM     26  C   UNL     1       6.815   4.382  14.561  0.00  0.00    +0.000 A 
ATOM     27  C   UNL     1       7.492   4.812  15.694  0.00  0.00    +0.000 A 
ATOM     28  C   UNL     1       6.763   5.103  16.859  0.00  0.00    +0.000 A 
BRANCH  28  29
ATOM     29  N   UNL     1       7.512   5.663  17.970  0.00  0.00    +0.000 N 
ATOM     30  O   UNL     1       8.003   4.857  18.773  0.00  0.00    +0.000 OA
ATOM     31  O   UNL     1       7.603   6.895  18.036  0.00  0.00    +0.000 OA
ENDBRANCH  28  29
ENDBRANCH  22  23
ENDBRANCH   4  22
TORSDOF 8
ENDMDL
MODEL 8
REMARK VINA RESULT:      -6.9      5.187      8.217
REMARK  Name = 
REMARK  10 active torsions:
REMARK  status: ('A' for Active; 'I' for Inactive)
REMARK    1  A    between atoms: C_1  and  C_2
REMARK    2  A    between atoms: C_5  and  S_6
REMARK    3  A    between atoms: S_6  and  N_9
REMARK    4  A    between atoms: N_12  and  C_13
REMARK    5  A    between atoms: N_12  and  C_23
REMARK    6  A    between atoms: C_13  and  C_14
REMARK    7  A    between atoms: C_19  and  N_20
REMARK    8  A    between atoms: C_23  and  C_24
REMARK    9  A    between atoms: C_23  and  C_25
REMARK   10  A    between atoms: C_25  and  O_27
REMARK                            x       y       z     vdW  Elec       q    Type
REMARK                         _______ _______ _______ _____ _____    ______ ____
ROOT
ATOM      1  N   UNL     1      -0.300  10.189  20.527  0.00  0.00    +0.000 N 
ATOM      2  C   UNL     1      -1.115  11.184  21.053  0.00  0.00    +0.000 C 
ATOM      3  O   UNL     1      -1.487  11.133  22.221  0.00  0.00    +0.000 OA
ATOM      4  N   UNL     1      -1.552  12.200  20.201  0.00  0.00    +0.000 N 
ATOM      5  H   UNL     1      -0.068  10.100  19.546  0.00  0.00    +0.000 HD
ENDROOT
BRANCH   1   6
ATOM      6  S   UNL     1       0.507   9.029  21.414  0.00  0.00    +0.000 S 
ATOM      7  O   UNL     1      -0.468   8.116  21.974  0.00  0.00    +0.000 OA
ATOM      8  O   UNL     1       1.392   9.779  22.284  0.00  0.00    +0.000 OA
BRANCH   6  13
ATOM      9  C   UNL     1       3.895   6.045  17.346  0.00  0.00    +0.000 C 
ATOM     10  C   UNL     1       3.031   6.754  18.347  0.00  0.00    +0.000 A 
ATOM     11  C   UNL     1       2.714   6.163  19.577  0.00  0.00    +0.000 A 
ATOM     12  C   UNL     1       1.953   6.857  20.525  0.00  0.00    +0.000 A 
ATOM     13  C   UNL     1       1.524   8.159  20.249  0.00  0.00    +0.000 A 
ATOM     14  C   UNL     1       1.804   8.743  19.011  0.00  0.00    +0.000 A 
ATOM     15  C   UNL     1       2.566   8.048  18.071  0.00  0.00    +0.000 A 
ENDBRANCH   6  13
ENDBRANCH   1   6
BRANCH   4  16
ATOM     16  C   UNL     1      -0.985  12.478  18.861  0.00  0.00    +0.000 C 
ATOM     17  C   UNL     1       0.534  12.629  18.853  0.00  0.00    +0.000 C 
BRANCH  16  18
ATOM     18  C   UNL     1      -1.481  11.478  17.804  0.00  0.00    +0.000 C 
ATOM     19  O   UNL     1      -1.270  10.275  17.836  0.00  0.00    +0.000 OA
BRANCH  18  20
ATOM     20  O   UNL     1      -2.160  12.057  16.784  0.00  0.00    +0.000 OA
ATOM     21  H   UNL     1      -2.881  11.492  16.442  0.00  0.00    +0.000 HD
ENDBRANCH  18  20
ENDBRANCH  16  18
ENDBRANCH   4  16
BRANCH   4  22
ATOM     22  C   UNL     1      -2.516  13.179  20.729  0.00  0.00    +0.000 C 
BRANCH  22  23
ATOM     23  C   UNL     1      -3.983  12.780  20.749  0.00  0.00    +0.000 A 
ATOM     24  C   UNL     1      -4.668  12.471  19.562  0.00  0.00    +0.000 A 
ATOM     25  C   UNL     1      -6.068  12.373  19.532  0.00  0.00    +0.000 A 
ATOM     26  C   UNL     1      -6.825  12.605  20.678  0.00  0.00    +0.000 A 
ATOM     27  C   UNL     1      -6.182  12.868  21.881  0.00  0.00    +0.000 A 
ATOM     28  C   UNL     1      -4.779  12.924  21.911  0.00  0.00    +0.000 A 
BRANCH  28  29
ATOM     29  N   UNL     1      -4.164  13.081  23.218  0.00  0.00    +0.000 N 
ATOM     30  O   UNL     1      -3.899  14.238  23.572  0.00  0.00    +0.000 OA
ATOM     31  O   UNL     1      -3.949  12.057  23.876  0.00  0.00    +0.000 OA
ENDBRANCH  28  29
ENDBRANCH  22  23
ENDBRANCH   4  22
TORSDOF 8
ENDMDL
MODEL 9
REMARK VINA RESULT:      -6.9      1.847      7.464
REMARK  Name = 
REMARK  10 active torsions:
REMARK  status: ('A' for Active; 'I' for Inactive)
REMARK    1  A    between atoms: C_1  and  C_2
REMARK    2  A    between atoms: C_5  and  S_6
REMARK    3  A    between atoms: S_6  and  N_9
REMARK    4  A    between atoms: N_12  and  C_13
REMARK    5  A    between atoms: N_12  and  C_23
REMARK    6  A    between atoms: C_13  and  C_14
REMARK    7  A    between atoms: C_19  and  N_20
REMARK    8  A    between atoms: C_23  and  C_24
REMARK    9  A    between atoms: C_23  and  C_25
REMARK   10  A    between atoms: C_25  and  O_27
REMARK                            x       y       z     vdW  Elec       q    Type
REMARK                         _______ _______ _______ _____ _____    ______ ____
ROOT
ATOM      1  N   UNL     1       1.933   7.360  18.186  0.00  0.00    +0.000 N 
ATOM      2  C   UNL     1       3.258   6.942  18.150  0.00  0.00    +0.000 C 
ATOM      3  O   UNL     1       4.137   7.687  17.728  0.00  0.00    +0.000 OA
ATOM      4  N   UNL     1       3.549   5.632  18.540  0.00  0.00    +0.000 N 
ATOM      5  H   UNL     1       1.149   6.755  18.394  0.00  0.00    +0.000 HD
ENDROOT
BRANCH   1   6
ATOM      6  S   UNL     1       1.409   8.930  17.982  0.00  0.00    +0.000 S 
ATOM      7  O   UNL     1       0.345   8.938  17.000  0.00  0.00    +0.000 OA
ATOM      8  O   UNL     1       2.619   9.697  17.757  0.00  0.00    +0.000 OA
BRANCH   6  13
ATOM      9  C   UNL     1      -0.881  10.509  23.386  0.00  0.00    +0.000 C 
ATOM     10  C   UNL     1      -0.351  10.109  22.040  0.00  0.00    +0.000 A 
ATOM     11  C   UNL     1      -0.736  10.793  20.879  0.00  0.00    +0.000 A 
ATOM     12  C   UNL     1      -0.193  10.446  19.636  0.00  0.00    +0.000 A 
ATOM     13  C   UNL     1       0.757   9.423  19.557  0.00  0.00    +0.000 A 
ATOM     14  C   UNL     1       1.119   8.711  20.704  0.00  0.00    +0.000 A 
ATOM     15  C   UNL     1       0.577   9.063  21.940  0.00  0.00    +0.000 A 
ENDBRANCH   6  13
ENDBRANCH   1   6
BRANCH   4  16
ATOM     16  C   UNL     1       2.616   4.744  19.271  0.00  0.00    +0.000 C 
ATOM     17  C   UNL     1       1.836   5.447  20.378  0.00  0.00    +0.000 C 
BRANCH  16  18
ATOM     18  C   UNL     1       1.704   3.955  18.319  0.00  0.00    +0.000 C 
ATOM     19  O   UNL     1       1.117   4.439  17.363  0.00  0.00    +0.000 OA
BRANCH  18  20
ATOM     20  O   UNL     1       1.567   2.649  18.654  0.00  0.00    +0.000 OA
ATOM     21  H   UNL     1       1.867   2.044  17.947  0.00  0.00    +0.000 HD
ENDBRANCH  18  20
ENDBRANCH  16  18
ENDBRANCH   4  16
BRANCH   4  22
ATOM     22  C   UNL     1       4.933   5.154  18.381  0.00  0.00    +0.000 C 
BRANCH  22  23
ATOM     23  C   UNL     1       5.475   5.034  16.965  0.00  0.00    +0.000 A 
ATOM     24  C   UNL     1       4.844   4.217  16.012  0.00  0.00    +0.000 A 
ATOM     25  C   UNL     1       5.476   3.882  14.805  0.00  0.00    +0.000 A 
ATOM     26  C   UNL     1       6.766   4.330  14.527  0.00  0.00    +0.000 A 
ATOM     27  C   UNL     1       7.405   5.176  15.423  0.00  0.00    +0.000 A 
ATOM     28  C   UNL     1       6.748   5.540  16.610  0.00  0.00    +0.000 A 
BRANCH  28  29
ATOM     29  N   UNL     1       7.417   6.522  17.446  0.00  0.00    +0.000 N 
ATOM     30  O   UNL     1       7.441   7.687  17.025  0.00  0.00    +0.000 OA
ATOM     31  O   UNL     1       7.914   6.126  18.507  0.00  0.00    +0.000 OA
ENDBRANCH  28  29
ENDBRANCH  22  23
ENDBRANCH   4  22
TORSDOF 8
ENDMDL
