MODEL 1
REMARK VINA RESULT:      -8.4      0.000      0.000
REMARK  Name = 
REMARK  13 active torsions:
REMARK  status: ('A' for Active; 'I' for Inactive)
REMARK    1  A    between atoms: C_1  and  O_2
REMARK    2  A    between atoms: O_2  and  C_3
REMARK    3  A    between atoms: C_5  and  O_6
REMARK    4  A    between atoms: O_6  and  C_7
REMARK    5  A    between atoms: C_12  and  C_13
REMARK    6  A    between atoms: C_15  and  C_16
REMARK    7  A    between atoms: C_17  and  O_18
REMARK    8  A    between atoms: O_18  and  C_19
REMARK    9  A    between atoms: C_19  and  C_20
REMARK   10  A    between atoms: C_20  and  O_21
REMARK   11  A    between atoms: C_20  and  C_22
REMARK   12  A    between atoms: C_22  and  N_23
REMARK   13  A    between atoms: C_29  and  C_30
REMARK                            x       y       z     vdW  Elec       q    Type
REMARK                         _______ _______ _______ _____ _____    ______ ____
ROOT
ATOM      1  C   UNL     1       1.355   8.484  20.382  0.00  0.00    +0.000 A 
ATOM      2  C   UNL     1       0.843   8.677  21.663  0.00  0.00    +0.000 A 
ATOM      3  C   UNL     1       0.124   9.850  21.991  0.00  0.00    +0.000 A 
ATOM      4  C   UNL     1      -0.488   9.858  23.369  0.00  0.00    +0.000 C 
ATOM      5  C   UNL     1      -0.040  10.860  21.005  0.00  0.00    +0.000 A 
ATOM      6  C   UNL     1       0.390  10.597  19.684  0.00  0.00    +0.000 A 
ATOM      7  C   UNL     1       0.107  11.492  18.508  0.00  0.00    +0.000 C 
ATOM      8  C   UNL     1       1.119   9.439  19.403  0.00  0.00    +0.000 A 
ENDROOT
BRANCH   1  16
ATOM      9  C   UNL     1       4.948   5.415  16.718  0.00  0.00    +0.000 A 
ATOM     10  C   UNL     1       4.883   4.166  17.333  0.00  0.00    +0.000 A 
ATOM     11  C   UNL     1       4.051   3.913  18.451  0.00  0.00    +0.000 A 
ATOM     12  C   UNL     1       3.264   4.959  18.957  0.00  0.00    +0.000 A 
ATOM     13  C   UNL     1       2.245   4.873  20.035  0.00  0.00    +0.000 A 
ATOM     14  O   UNL     1       1.693   3.848  20.407  0.00  0.00    +0.000 OA
ATOM     15  C   UNL     1       1.789   6.130  20.637  0.00  0.00    +0.000 A 
ATOM     16  C   UNL     1       2.041   7.263  19.985  0.00  0.00    +0.000 A 
ATOM     17  O   UNL     1       2.738   7.357  18.807  0.00  0.00    +0.000 OA
ATOM     18  C   UNL     1       3.387   6.232  18.358  0.00  0.00    +0.000 A 
ATOM     19  C   UNL     1       4.195   6.451  17.242  0.00  0.00    +0.000 A 
BRANCH   9  21
ATOM     20  C   UNL     1       6.724   4.841  15.252  0.00  0.00    +0.000 C 
ATOM     21  O   UNL     1       5.696   5.748  15.627  0.00  0.00    +0.000 OA
ENDBRANCH   9  21
BRANCH  11  22
ATOM     22  O   UNL     1       4.213   2.615  18.848  0.00  0.00    +0.000 OA
ATOM     23  C   UNL     1       3.474   1.555  18.273  0.00  0.00    +0.000 C 
ENDBRANCH  11  22
ENDBRANCH   1  16
BRANCH   5  24
ATOM     24  O   UNL     1      -0.612  12.098  21.177  0.00  0.00    +0.000 OA
BRANCH  24  25
ATOM     25  C   UNL     1      -2.032  12.132  21.343  0.00  0.00    +0.000 C 
BRANCH  25  26
ATOM     26  C   UNL     1      -2.766  12.923  20.243  0.00  0.00    +0.000 C 
BRANCH  26  27
ATOM     27  O   UNL     1      -1.968  14.031  19.825  0.00  0.00    +0.000 OA
ATOM     28  H   UNL     1      -1.427  13.724  19.079  0.00  0.00    +0.000 HD
ENDBRANCH  26  27
BRANCH  26  29
ATOM     29  C   UNL     1      -4.188  13.365  20.670  0.00  0.00    +0.000 C 
BRANCH  29  30
ATOM     30  N   UNL     1      -5.301  12.775  19.871  0.00  0.00    +0.000 NA
ATOM     31  C   UNL     1      -4.789  11.947  18.763  0.00  0.00    +0.000 C 
ATOM     32  C   UNL     1      -5.881  11.188  18.004  0.00  0.00    +0.000 C 
ATOM     33  C   UNL     1      -6.723  10.351  18.953  0.00  0.00    +0.000 C 
ATOM     34  C   UNL     1      -7.299  11.255  20.030  0.00  0.00    +0.000 C 
ATOM     35  C   UNL     1      -6.189  12.009  20.766  0.00  0.00    +0.000 C 
ENDBRANCH  29  30
ENDBRANCH  26  29
ENDBRANCH  25  26
ENDBRANCH  24  25
ENDBRANCH   5  24
TORSDOF 9
ENDMDL
MODEL 2
REMARK VINA RESULT:      -8.4      1.365      2.436
REMARK  Name = 
REMARK  13 active torsions:
REMARK  status: ('A' for Active; 'I' for Inactive)
REMARK    1  A    between atoms: C_1  and  O_2
REMARK    2  A    between atoms: O_2  and  C_3
REMARK    3  A    between atoms: C_5  and  O_6
REMARK    4  A    between atoms: O_6  and  C_7
REMARK    5  A    between atoms: C_12  and  C_13
REMARK    6  A    between atoms: C_15  and  C_16
REMARK    7  A    between atoms: C_17  and  O_18
REMARK    8  A    between atoms: O_18  and  C_19
REMARK    9  A    between atoms: C_19  and  C_20
REMARK   10  A    between atoms: C_20  and  O_21
REMARK   11  A    between atoms: C_20  and  C_22
REMARK   12  A    between atoms: C_22  and  N_23
REMARK   13  A    between atoms: C_29  and  C_30
REMARK                            x       y       z     vdW  Elec       q    Type
REMARK                         _______ _______ _______ _____ _____    ______ ____
ROOT
ATOM      1  C   UNL     1       1.290   8.573  20.330  0.00  0.00    +0.000 A 
ATOM      2  C   UNL     1       1.446   9.674  19.491  0.00  0.00    +0.000 A 
ATOM      3  C   UNL     1       0.949  10.946  19.858  0.00  0.00    +0.000 A 
ATOM      4  C   UNL     1       1.312  12.068  18.919  0.00  0.00    +0.000 C 
ATOM      5  C   UNL     1       0.248  11.087  21.086  0.00  0.00    +0.000 A 
ATOM      6  C   UNL     1       0.198   9.985  21.971  0.00  0.00    +0.000 A 
ATOM      7  C   UNL     1      -0.339  10.052  23.375  0.00  0.00    +0.000 C 
ATOM      8  C   UNL     1       0.677   8.738  21.563  0.00  0.00    +0.000 A 
ENDROOT
BRANCH   1  16
ATOM      9  C   UNL     1       4.724   4.952  17.036  0.00  0.00    +0.000 A 
ATOM     10  C   UNL     1       4.459   3.744  17.678  0.00  0.00    +0.000 A 
ATOM     11  C   UNL     1       3.524   3.637  18.737  0.00  0.00    +0.000 A 
ATOM     12  C   UNL     1       2.840   4.790  19.151  0.00  0.00    +0.000 A 
ATOM     13  C   UNL     1       1.743   4.869  20.151  0.00  0.00    +0.000 A 
ATOM     14  O   UNL     1       1.042   3.934  20.508  0.00  0.00    +0.000 OA
ATOM     15  C   UNL     1       1.406   6.195  20.682  0.00  0.00    +0.000 A 
ATOM     16  C   UNL     1       1.845   7.263  20.020  0.00  0.00    +0.000 A 
ATOM     17  O   UNL     1       2.630   7.226  18.896  0.00  0.00    +0.000 OA
ATOM     18  C   UNL     1       3.164   6.015  18.529  0.00  0.00    +0.000 A 
ATOM     19  C   UNL     1       4.071   6.091  17.473  0.00  0.00    +0.000 A 
BRANCH   9  21
ATOM     20  C   UNL     1       5.811   4.045  15.131  0.00  0.00    +0.000 C 
ATOM     21  O   UNL     1       5.584   5.150  15.996  0.00  0.00    +0.000 OA
ENDBRANCH   9  21
BRANCH  11  22
ATOM     22  O   UNL     1       3.493   2.344  19.180  0.00  0.00    +0.000 OA
ATOM     23  C   UNL     1       3.831   1.254  18.345  0.00  0.00    +0.000 C 
ENDBRANCH  11  22
ENDBRANCH   1  16
BRANCH   5  24
ATOM     24  O   UNL     1      -0.389  12.213  21.549  0.00  0.00    +0.000 OA
BRANCH  24  25
ATOM     25  C   UNL     1      -1.792  12.310  21.289  0.00  0.00    +0.000 C 
BRANCH  25  26
ATOM     26  C   UNL     1      -2.129  12.664  19.828  0.00  0.00    +0.000 C 
BRANCH  26  27
ATOM     27  O   UNL     1      -1.995  14.072  19.625  0.00  0.00    +0.000 OA
ATOM     28  H   UNL     1      -1.664  14.196  18.719  0.00  0.00    +0.000 HD
ENDBRANCH  26  27
BRANCH  26  29
ATOM     29  C   UNL     1      -3.524  12.150  19.392  0.00  0.00    +0.000 C 
BRANCH  29  30
ATOM     30  N   UNL     1      -3.513  11.141  18.294  0.00  0.00    +0.000 NA
ATOM     31  C   UNL     1      -4.247  11.625  17.110  0.00  0.00    +0.000 C 
ATOM     32  C   UNL     1      -4.136  10.700  15.894  0.00  0.00    +0.000 C 
ATOM     33  C   UNL     1      -2.682  10.427  15.548  0.00  0.00    +0.000 C 
ATOM     34  C   UNL     1      -1.983   9.852  16.769  0.00  0.00    +0.000 C 
ATOM     35  C   UNL     1      -2.117  10.790  17.971  0.00  0.00    +0.000 C 
ENDBRANCH  29  30
ENDBRANCH  26  29
ENDBRANCH  25  26
ENDBRANCH  24  25
ENDBRANCH   5  24
TORSDOF 9
ENDMDL
MODEL 3
REMARK VINA RESULT:      -8.3      1.518      2.527
REMARK  Name = 
REMARK  13 active torsions:
REMARK  status: ('A' for Active; 'I' for Inactive)
REMARK    1  A    between atoms: C_1  and  O_2
REMARK    2  A    between atoms: O_2  and  C_3
REMARK    3  A    between atoms: C_5  and  O_6
REMARK    4  A    between atoms: O_6  and  C_7
REMARK    5  A    between atoms: C_12  and  C_13
REMARK    6  A    between atoms: C_15  and  C_16
REMARK    7  A    between atoms: C_17  and  O_18
REMARK    8  A    between atoms: O_18  and  C_19
REMARK    9  A    between atoms: C_19  and  C_20
REMARK   10  A    between atoms: C_20  and  O_21
REMARK   11  A    between atoms: C_20  and  C_22
REMARK   12  A    between atoms: C_22  and  N_23
REMARK   13  A    between atoms: C_29  and  C_30
REMARK                            x       y       z     vdW  Elec       q    Type
REMARK                         _______ _______ _______ _____ _____    ______ ____
ROOT
ATOM      1  C   UNL     1       1.082   8.918  20.311  0.00  0.00    +0.000 A 
ATOM      2  C   UNL     1       1.211  10.009  19.455  0.00  0.00    +0.000 A 
ATOM      3  C   UNL     1       0.630  11.258  19.774  0.00  0.00    +0.000 A 
ATOM      4  C   UNL     1       0.969  12.380  18.827  0.00  0.00    +0.000 C 
ATOM      5  C   UNL     1      -0.129  11.383  20.969  0.00  0.00    +0.000 A 
ATOM      6  C   UNL     1      -0.155  10.297  21.875  0.00  0.00    +0.000 A 
ATOM      7  C   UNL     1      -0.755  10.360  23.254  0.00  0.00    +0.000 C 
ATOM      8  C   UNL     1       0.409   9.071  21.514  0.00  0.00    +0.000 A 
ENDROOT
BRANCH   1  16
ATOM      9  C   UNL     1       4.731   5.395  17.144  0.00  0.00    +0.000 A 
ATOM     10  C   UNL     1       4.552   4.201  17.840  0.00  0.00    +0.000 A 
ATOM     11  C   UNL     1       3.632   4.078  18.911  0.00  0.00    +0.000 A 
ATOM     12  C   UNL     1       2.875   5.199  19.282  0.00  0.00    +0.000 A 
ATOM     13  C   UNL     1       1.781   5.248  20.287  0.00  0.00    +0.000 A 
ATOM     14  O   UNL     1       1.146   4.285  20.690  0.00  0.00    +0.000 OA
ATOM     15  C   UNL     1       1.359   6.570  20.763  0.00  0.00    +0.000 A 
ATOM     16  C   UNL     1       1.721   7.635  20.052  0.00  0.00    +0.000 A 
ATOM     17  O   UNL     1       2.501   7.603  18.924  0.00  0.00    +0.000 OA
ATOM     18  C   UNL     1       3.113   6.414  18.605  0.00  0.00    +0.000 A 
ATOM     19  C   UNL     1       4.006   6.505  17.538  0.00  0.00    +0.000 A 
BRANCH   9  21
ATOM     20  C   UNL     1       6.901   5.998  16.396  0.00  0.00    +0.000 C 
ATOM     21  O   UNL     1       5.570   5.605  16.089  0.00  0.00    +0.000 OA
ENDBRANCH   9  21
BRANCH  11  22
ATOM     22  O   UNL     1       3.690   2.806  19.409  0.00  0.00    +0.000 OA
ATOM     23  C   UNL     1       3.277   1.682  18.656  0.00  0.00    +0.000 C 
ENDBRANCH  11  22
ENDBRANCH   1  16
BRANCH   5  24
ATOM     24  O   UNL     1      -0.847  12.480  21.381  0.00  0.00    +0.000 OA
BRANCH  24  25
ATOM     25  C   UNL     1      -2.272  12.370  21.333  0.00  0.00    +0.000 C 
BRANCH  25  26
ATOM     26  C   UNL     1      -2.900  12.982  20.066  0.00  0.00    +0.000 C 
BRANCH  26  27
ATOM     27  O   UNL     1      -3.728  14.091  20.420  0.00  0.00    +0.000 OA
ATOM     28  H   UNL     1      -4.646  13.825  20.246  0.00  0.00    +0.000 HD
ENDBRANCH  26  27
BRANCH  26  29
ATOM     29  C   UNL     1      -3.666  11.940  19.213  0.00  0.00    +0.000 C 
BRANCH  29  30
ATOM     30  N   UNL     1      -2.992  11.542  17.944  0.00  0.00    +0.000 NA
ATOM     31  C   UNL     1      -2.325  10.232  18.076  0.00  0.00    +0.000 C 
ATOM     32  C   UNL     1      -1.750   9.696  16.762  0.00  0.00    +0.000 C 
ATOM     33  C   UNL     1      -2.816   9.647  15.680  0.00  0.00    +0.000 C 
ATOM     34  C   UNL     1      -3.419  11.033  15.517  0.00  0.00    +0.000 C 
ATOM     35  C   UNL     1      -3.977  11.548  16.846  0.00  0.00    +0.000 C 
ENDBRANCH  29  30
ENDBRANCH  26  29
ENDBRANCH  25  26
ENDBRANCH  24  25
ENDBRANCH   5  24
TORSDOF 9
ENDMDL
MODEL 4
REMARK VINA RESULT:      -8.3      1.175      2.280
REMARK  Name = 
REMARK  13 active torsions:
REMARK  status: ('A' for Active; 'I' for Inactive)
REMARK    1  A    between atoms: C_1  and  O_2
REMARK    2  A    between atoms: O_2  and  C_3
REMARK    3  A    between atoms: C_5  and  O_6
REMARK    4  A    between atoms: O_6  and  C_7
REMARK    5  A    between atoms: C_12  and  C_13
REMARK    6  A    between atoms: C_15  and  C_16
REMARK    7  A    between atoms: C_17  and  O_18
REMARK    8  A    between atoms: O_18  and  C_19
REMARK    9  A    between atoms: C_19  and  C_20
REMARK   10  A    between atoms: C_20  and  O_21
REMARK   11  A    between atoms: C_20  and  C_22
REMARK   12  A    between atoms: C_22  and  N_23
REMARK   13  A    between atoms: C_29  and  C_30
REMARK                            x       y       z     vdW  Elec       q    Type
REMARK                         _______ _______ _______ _____ _____    ______ ____
ROOT
ATOM      1  C   UNL     1       1.470   8.514  20.155  0.00  0.00    +0.000 A 
ATOM      2  C   UNL     1       1.472   9.681  19.395  0.00  0.00    +0.000 A 
ATOM      3  C   UNL     1       0.921  10.881  19.901  0.00  0.00    +0.000 A 
ATOM      4  C   UNL     1       1.119  12.093  19.025  0.00  0.00    +0.000 C 
ATOM      5  C   UNL     1       0.324  10.879  21.190  0.00  0.00    +0.000 A 
ATOM      6  C   UNL     1       0.430   9.716  21.987  0.00  0.00    +0.000 A 
ATOM      7  C   UNL     1       0.016   9.640  23.432  0.00  0.00    +0.000 C 
ATOM      8  C   UNL     1       0.958   8.542  21.445  0.00  0.00    +0.000 A 
ENDROOT
BRANCH   1  16
ATOM      9  C   UNL     1       5.052   5.462  16.466  0.00  0.00    +0.000 A 
ATOM     10  C   UNL     1       4.853   4.178  16.970  0.00  0.00    +0.000 A 
ATOM     11  C   UNL     1       3.934   3.907  18.013  0.00  0.00    +0.000 A 
ATOM     12  C   UNL     1       3.197   4.970  18.556  0.00  0.00    +0.000 A 
ATOM     13  C   UNL     1       2.106   4.882  19.562  0.00  0.00    +0.000 A 
ATOM     14  O   UNL     1       1.456   3.878  19.815  0.00  0.00    +0.000 OA
ATOM     15  C   UNL     1       1.708   6.120  20.239  0.00  0.00    +0.000 A 
ATOM     16  C   UNL     1       2.087   7.276  19.699  0.00  0.00    +0.000 A 
ATOM     17  O   UNL     1       2.863   7.406  18.576  0.00  0.00    +0.000 OA
ATOM     18  C   UNL     1       3.454   6.271  18.074  0.00  0.00    +0.000 A 
ATOM     19  C   UNL     1       4.346   6.511  17.029  0.00  0.00    +0.000 A 
BRANCH   9  21
ATOM     20  C   UNL     1       6.952   4.921  15.151  0.00  0.00    +0.000 C 
ATOM     21  O   UNL     1       5.892   5.819  15.452  0.00  0.00    +0.000 OA
ENDBRANCH   9  21
BRANCH  11  22
ATOM     22  O   UNL     1       3.971   2.572  18.309  0.00  0.00    +0.000 OA
ATOM     23  C   UNL     1       4.386   2.093  19.573  0.00  0.00    +0.000 C 
ENDBRANCH  11  22
ENDBRANCH   1  16
BRANCH   5  24
ATOM     24  O   UNL     1      -0.349  11.917  21.791  0.00  0.00    +0.000 OA
BRANCH  24  25
ATOM     25  C   UNL     1      -1.747  12.024  21.510  0.00  0.00    +0.000 C 
BRANCH  25  26
ATOM     26  C   UNL     1      -2.573  12.596  22.678  0.00  0.00    +0.000 C 
BRANCH  26  27
ATOM     27  O   UNL     1      -2.871  11.561  23.616  0.00  0.00    +0.000 OA
ATOM     28  H   UNL     1      -3.422  10.909  23.152  0.00  0.00    +0.000 HD
ENDBRANCH  26  27
BRANCH  26  29
ATOM     29  C   UNL     1      -3.852  13.331  22.205  0.00  0.00    +0.000 C 
BRANCH  29  30
ATOM     30  N   UNL     1      -5.070  12.476  22.097  0.00  0.00    +0.000 NA
ATOM     31  C   UNL     1      -6.169  12.997  22.932  0.00  0.00    +0.000 C 
ATOM     32  C   UNL     1      -7.495  12.254  22.741  0.00  0.00    +0.000 C 
ATOM     33  C   UNL     1      -7.899  12.229  21.276  0.00  0.00    +0.000 C 
ATOM     34  C   UNL     1      -6.774  11.609  20.463  0.00  0.00    +0.000 C 
ATOM     35  C   UNL     1      -5.461  12.364  20.679  0.00  0.00    +0.000 C 
ENDBRANCH  29  30
ENDBRANCH  26  29
ENDBRANCH  25  26
ENDBRANCH  24  25
ENDBRANCH   5  24
TORSDOF 9
ENDMDL
MODEL 5
REMARK VINA RESULT:      -8.2      1.090      1.666
REMARK  Name = 
REMARK  13 active torsions:
REMARK  status: ('A' for Active; 'I' for Inactive)
REMARK    1  A    between atoms: C_1  and  O_2
REMARK    2  A    between atoms: O_2  and  C_3
REMARK    3  A    between atoms: C_5  and  O_6
REMARK    4  A    between atoms: O_6  and  C_7
REMARK    5  A    between atoms: C_12  and  C_13
REMARK    6  A    between atoms: C_15  and  C_16
REMARK    7  A    between atoms: C_17  and  O_18
REMARK    8  A    between atoms: O_18  and  C_19
REMARK    9  A    between atoms: C_19  and  C_20
REMARK   10  A    between atoms: C_20  and  O_21
REMARK   11  A    between atoms: C_20  and  C_22
REMARK   12  A    between atoms: C_22  and  N_23
REMARK   13  A    between atoms: C_29  and  C_30
REMARK                            x       y       z     vdW  Elec       q    Type
REMARK                         _______ _______ _______ _____ _____    ______ ____
ROOT
ATOM      1  C   UNL     1       1.401   8.441  20.331  0.00  0.00    +0.000 A 
ATOM      2  C   UNL     1       0.987   8.628  21.648  0.00  0.00    +0.000 A 
ATOM      3  C   UNL     1       0.255   9.778  22.025  0.00  0.00    +0.000 A 
ATOM      4  C   UNL     1      -0.244   9.778  23.448  0.00  0.00    +0.000 C 
ATOM      5  C   UNL     1      -0.025  10.771  21.048  0.00  0.00    +0.000 A 
ATOM      6  C   UNL     1       0.308  10.511  19.699  0.00  0.00    +0.000 A 
ATOM      7  C   UNL     1      -0.102  11.384  18.544  0.00  0.00    +0.000 C 
ATOM      8  C   UNL     1       1.053   9.377  19.368  0.00  0.00    +0.000 A 
ENDROOT
BRANCH   1  16
ATOM      9  C   UNL     1       4.975   5.528  16.524  0.00  0.00    +0.000 A 
ATOM     10  C   UNL     1       4.937   4.261  17.104  0.00  0.00    +0.000 A 
ATOM     11  C   UNL     1       4.127   3.965  18.228  0.00  0.00    +0.000 A 
ATOM     12  C   UNL     1       3.334   4.985  18.775  0.00  0.00    +0.000 A 
ATOM     13  C   UNL     1       2.334   4.854  19.867  0.00  0.00    +0.000 A 
ATOM     14  O   UNL     1       1.802   3.811  20.218  0.00  0.00    +0.000 OA
ATOM     15  C   UNL     1       1.871   6.087  20.512  0.00  0.00    +0.000 A 
ATOM     16  C   UNL     1       2.097   7.241  19.888  0.00  0.00    +0.000 A 
ATOM     17  O   UNL     1       2.773   7.378  18.703  0.00  0.00    +0.000 OA
ATOM     18  C   UNL     1       3.430   6.276  18.212  0.00  0.00    +0.000 A 
ATOM     19  C   UNL     1       4.217   6.537  17.090  0.00  0.00    +0.000 A 
BRANCH   9  21
ATOM     20  C   UNL     1       6.878   5.155  15.156  0.00  0.00    +0.000 C 
ATOM     21  O   UNL     1       5.700   5.902  15.431  0.00  0.00    +0.000 OA
ENDBRANCH   9  21
BRANCH  11  22
ATOM     22  O   UNL     1       4.312   2.658  18.584  0.00  0.00    +0.000 OA
ATOM     23  C   UNL     1       3.421   1.635  18.186  0.00  0.00    +0.000 C 
ENDBRANCH  11  22
ENDBRANCH   1  16
BRANCH   5  24
ATOM     24  O   UNL     1      -0.625  11.990  21.258  0.00  0.00    +0.000 OA
BRANCH  24  25
ATOM     25  C   UNL     1      -1.999  11.969  21.655  0.00  0.00    +0.000 C 
BRANCH  25  26
ATOM     26  C   UNL     1      -2.913  12.840  20.772  0.00  0.00    +0.000 C 
BRANCH  26  27
ATOM     27  O   UNL     1      -2.124  13.745  19.997  0.00  0.00    +0.000 OA
ATOM     28  H   UNL     1      -1.611  13.207  19.371  0.00  0.00    +0.000 HD
ENDBRANCH  26  27
BRANCH  26  29
ATOM     29  C   UNL     1      -4.005  13.579  21.585  0.00  0.00    +0.000 C 
BRANCH  29  30
ATOM     30  N   UNL     1      -5.082  12.707  22.138  0.00  0.00    +0.000 NA
ATOM     31  C   UNL     1      -5.590  13.226  23.421  0.00  0.00    +0.000 C 
ATOM     32  C   UNL     1      -6.804  12.463  23.960  0.00  0.00    +0.000 C 
ATOM     33  C   UNL     1      -7.916  12.409  22.926  0.00  0.00    +0.000 C 
ATOM     34  C   UNL     1      -7.373  11.791  21.647  0.00  0.00    +0.000 C 
ATOM     35  C   UNL     1      -6.157  12.567  21.137  0.00  0.00    +0.000 C 
ENDBRANCH  29  30
ENDBRANCH  26  29
ENDBRANCH  25  26
ENDBRANCH  24  25
ENDBRANCH   5  24
TORSDOF 9
ENDMDL
MODEL 6
REMARK VINA RESULT:      -8.2      3.662     10.496
REMARK  Name = 
REMARK  13 active torsions:
REMARK  status: ('A' for Active; 'I' for Inactive)
REMARK    1  A    between atoms: C_1  and  O_2
REMARK    2  A    between atoms: O_2  and  C_3
REMARK    3  A    between atoms: C_5  and  O_6
REMARK    4  A    between atoms: O_6  and  C_7
REMARK    5  A    between atoms: C_12  and  C_13
REMARK    6  A    between atoms: C_15  and  C_16
REMARK    7  A    between atoms: C_17  and  O_18
REMARK    8  A    between atoms: O_18  and  C_19
REMARK    9  A    between atoms: C_19  and  C_20
REMARK   10  A    between atoms: C_20  and  O_21
REMARK   11  A    between atoms: C_20  and  C_22
REMARK   12  A    between atoms: C_22  and  N_23
REMARK   13  A    between atoms: C_29  and  C_30
REMARK                            x       y       z     vdW  Elec       q    Type
REMARK                         _______ _______ _______ _____ _____    ______ ____
ROOT
ATOM      1  C   UNL     1       2.264   7.584  19.553  0.00  0.00    +0.000 A 
ATOM      2  C   UNL     1       2.920   7.860  18.356  0.00  0.00    +0.000 A 
ATOM      3  C   UNL     1       3.676   6.866  17.693  0.00  0.00    +0.000 A 
ATOM      4  C   UNL     1       4.212   7.267  16.342  0.00  0.00    +0.000 C 
ATOM      5  C   UNL     1       3.795   5.579  18.283  0.00  0.00    +0.000 A 
ATOM      6  C   UNL     1       3.034   5.287  19.438  0.00  0.00    +0.000 A 
ATOM      7  C   UNL     1       2.917   3.917  20.050  0.00  0.00    +0.000 C 
ATOM      8  C   UNL     1       2.319   6.301  20.080  0.00  0.00    +0.000 A 
ENDROOT
BRANCH   1  16
ATOM      9  C   UNL     1      -0.721  12.761  19.713  0.00  0.00    +0.000 A 
ATOM     10  C   UNL     1      -1.204  12.704  21.019  0.00  0.00    +0.000 A 
ATOM     11  C   UNL     1      -0.868  11.651  21.906  0.00  0.00    +0.000 A 
ATOM     12  C   UNL     1      -0.016  10.633  21.451  0.00  0.00    +0.000 A 
ATOM     13  C   UNL     1       0.550   9.516  22.252  0.00  0.00    +0.000 A 
ATOM     14  O   UNL     1       0.648   9.496  23.470  0.00  0.00    +0.000 OA
ATOM     15  C   UNL     1       1.130   8.385  21.519  0.00  0.00    +0.000 A 
ATOM     16  C   UNL     1       1.422   8.558  20.232  0.00  0.00    +0.000 A 
ATOM     17  O   UNL     1       1.181   9.703  19.516  0.00  0.00    +0.000 OA
ATOM     18  C   UNL     1       0.415  10.677  20.108  0.00  0.00    +0.000 A 
ATOM     19  C   UNL     1       0.090  11.736  19.261  0.00  0.00    +0.000 A 
BRANCH   9  21
ATOM     20  C   UNL     1      -0.142  14.897  18.854  0.00  0.00    +0.000 C 
ATOM     21  O   UNL     1      -0.968  13.741  18.796  0.00  0.00    +0.000 OA
ENDBRANCH   9  21
BRANCH  11  22
ATOM     22  O   UNL     1      -1.502  11.850  23.100  0.00  0.00    +0.000 OA
ATOM     23  C   UNL     1      -2.504  12.835  23.266  0.00  0.00    +0.000 C 
ENDBRANCH  11  22
ENDBRANCH   1  16
BRANCH   5  24
ATOM     24  O   UNL     1       4.570   4.534  17.837  0.00  0.00    +0.000 OA
BRANCH  24  25
ATOM     25  C   UNL     1       5.964   4.587  18.154  0.00  0.00    +0.000 C 
BRANCH  25  26
ATOM     26  C   UNL     1       6.885   4.368  16.939  0.00  0.00    +0.000 C 
BRANCH  26  27
ATOM     27  O   UNL     1       8.192   3.997  17.379  0.00  0.00    +0.000 OA
ATOM     28  H   UNL     1       8.150   3.908  18.346  0.00  0.00    +0.000 HD
ENDBRANCH  26  27
BRANCH  26  29
ATOM     29  C   UNL     1       6.923   5.590  15.987  0.00  0.00    +0.000 C 
BRANCH  29  30
ATOM     30  N   UNL     1       6.543   5.303  14.573  0.00  0.00    +0.000 NA
ATOM     31  C   UNL     1       7.728   5.262  13.694  0.00  0.00    +0.000 C 
ATOM     32  C   UNL     1       7.419   4.815  12.262  0.00  0.00    +0.000 C 
ATOM     33  C   UNL     1       6.697   3.478  12.252  0.00  0.00    +0.000 C 
ATOM     34  C   UNL     1       5.440   3.589  13.100  0.00  0.00    +0.000 C 
ATOM     35  C   UNL     1       5.776   4.045  14.521  0.00  0.00    +0.000 C 
ENDBRANCH  29  30
ENDBRANCH  26  29
ENDBRANCH  25  26
ENDBRANCH  24  25
ENDBRANCH   5  24
TORSDOF 9
ENDMDL
MODEL 7
REMARK VINA RESULT:      -8.1      2.836      4.311
REMARK  Name = 
REMARK  13 active torsions:
REMARK  status: ('A' for Active; 'I' for Inactive)
REMARK    1  A    between atoms: C_1  and  O_2
REMARK    2  A    between atoms: O_2  and  C_3
REMARK    3  A    between atoms: C_5  and  O_6
REMARK    4  A    between atoms: O_6  and  C_7
REMARK    5  A    between atoms: C_12  and  C_13
REMARK    6  A    between atoms: C_15  and  C_16
REMARK    7  A    between atoms: C_17  and  O_18
REMARK    8  A    between atoms: O_18  and  C_19
REMARK    9  A    between atoms: C_19  and  C_20
REMARK   10  A    between atoms: C_20  and  O_21
REMARK   11  A    between atoms: C_20  and  C_22
REMARK   12  A    between atoms: C_22  and  N_23
REMARK   13  A    between atoms: C_29  and  C_30
REMARK                            x       y       z     vdW  Elec       q    Type
REMARK                         _______ _______ _______ _____ _____    ______ ____
ROOT
ATOM      1  C   UNL     1       1.247   8.610  20.321  0.00  0.00    +0.000 A 
ATOM      2  C   UNL     1       0.787   8.819  21.618  0.00  0.00    +0.000 A 
ATOM      3  C   UNL     1       0.026   9.966  21.946  0.00  0.00    +0.000 A 
ATOM      4  C   UNL     1      -0.520   9.989  23.351  0.00  0.00    +0.000 C 
ATOM      5  C   UNL     1      -0.234  10.934  20.939  0.00  0.00    +0.000 A 
ATOM      6  C   UNL     1       0.146  10.650  19.607  0.00  0.00    +0.000 A 
ATOM      7  C   UNL     1      -0.237  11.492  18.421  0.00  0.00    +0.000 C 
ATOM      8  C   UNL     1       0.918   9.520  19.326  0.00  0.00    +0.000 A 
ENDROOT
BRANCH   1  16
ATOM      9  C   UNL     1       5.007   5.676  16.715  0.00  0.00    +0.000 A 
ATOM     10  C   UNL     1       4.959   4.419  17.313  0.00  0.00    +0.000 A 
ATOM     11  C   UNL     1       4.107   4.132  18.408  0.00  0.00    +0.000 A 
ATOM     12  C   UNL     1       3.281   5.152  18.905  0.00  0.00    +0.000 A 
ATOM     13  C   UNL     1       2.238   5.027  19.956  0.00  0.00    +0.000 A 
ATOM     14  O   UNL     1       1.703   3.983  20.303  0.00  0.00    +0.000 OA
ATOM     15  C   UNL     1       1.734   6.265  20.560  0.00  0.00    +0.000 A 
ATOM     16  C   UNL     1       1.974   7.411  19.927  0.00  0.00    +0.000 A 
ATOM     17  O   UNL     1       2.697   7.536  18.769  0.00  0.00    +0.000 OA
ATOM     18  C   UNL     1       3.386   6.434  18.324  0.00  0.00    +0.000 A 
ATOM     19  C   UNL     1       4.215   6.686  17.231  0.00  0.00    +0.000 A 
BRANCH   9  21
ATOM     20  C   UNL     1       5.991   5.055  14.646  0.00  0.00    +0.000 C 
ATOM     21  O   UNL     1       5.773   6.041  15.646  0.00  0.00    +0.000 OA
ENDBRANCH   9  21
BRANCH  11  22
ATOM     22  O   UNL     1       4.292   2.834  18.794  0.00  0.00    +0.000 OA
ATOM     23  C   UNL     1       3.519   1.774  18.265  0.00  0.00    +0.000 C 
ENDBRANCH  11  22
ENDBRANCH   1  16
BRANCH   5  24
ATOM     24  O   UNL     1      -0.858  12.148  21.102  0.00  0.00    +0.000 OA
BRANCH  24  25
ATOM     25  C   UNL     1      -0.230  13.079  21.987  0.00  0.00    +0.000 C 
BRANCH  25  26
ATOM     26  C   UNL     1       0.904  13.891  21.331  0.00  0.00    +0.000 C 
BRANCH  26  27
ATOM     27  O   UNL     1       1.605  14.640  22.325  0.00  0.00    +0.000 OA
ATOM     28  H   UNL     1       1.430  15.579  22.147  0.00  0.00    +0.000 HD
ENDBRANCH  26  27
BRANCH  26  29
ATOM     29  C   UNL     1       0.403  14.794  20.176  0.00  0.00    +0.000 C 
BRANCH  29  30
ATOM     30  N   UNL     1       1.325  14.898  19.008  0.00  0.00    +0.000 NA
ATOM     31  C   UNL     1       1.876  16.260  18.875  0.00  0.00    +0.000 C 
ATOM     32  C   UNL     1       2.951  16.388  17.791  0.00  0.00    +0.000 C 
ATOM     33  C   UNL     1       4.066  15.378  18.006  0.00  0.00    +0.000 C 
ATOM     34  C   UNL     1       3.466  13.982  18.053  0.00  0.00    +0.000 C 
ATOM     35  C   UNL     1       2.390  13.884  19.137  0.00  0.00    +0.000 C 
ENDBRANCH  29  30
ENDBRANCH  26  29
ENDBRANCH  25  26
ENDBRANCH  24  25
ENDBRANCH   5  24
TORSDOF 9
ENDMDL
MODEL 8
REMARK VINA RESULT:      -8.1      1.416      1.904
REMARK  Name = 
REMARK  13 active torsions:
REMARK  status: ('A' for Active; 'I' for Inactive)
REMARK    1  A    between atoms: C_1  and  O_2
REMARK    2  A    between atoms: O_2  and  C_3
REMARK    3  A    between atoms: C_5  and  O_6
REMARK    4  A    between atoms: O_6  and  C_7
REMARK    5  A    between atoms: C_12  and  C_13
REMARK    6  A    between atoms: C_15  and  C_16
REMARK    7  A    between atoms: C_17  and  O_18
REMARK    8  A    between atoms: O_18  and  C_19
REMARK    9  A    between atoms: C_19  and  C_20
REMARK   10  A    between atoms: C_20  and  O_21
REMARK   11  A    between atoms: C_20  and  C_22
REMARK   12  A    between atoms: C_22  and  N_23
REMARK   13  A    between atoms: C_29  and  C_30
REMARK                            x       y       z     vdW  Elec       q    Type
REMARK                         _______ _______ _______ _____ _____    ______ ____
ROOT
ATOM      1  C   UNL     1       1.442   8.465  20.516  0.00  0.00    +0.000 A 
ATOM      2  C   UNL     1       0.730   8.685  21.693  0.00  0.00    +0.000 A 
ATOM      3  C   UNL     1       0.220   9.966  22.007  0.00  0.00    +0.000 A 
ATOM      4  C   UNL     1      -0.646  10.023  23.240  0.00  0.00    +0.000 C 
ATOM      5  C   UNL     1       0.474  11.048  21.122  0.00  0.00    +0.000 A 
ATOM      6  C   UNL     1       1.101  10.781  19.883  0.00  0.00    +0.000 A 
ATOM      7  C   UNL     1       1.256  11.791  18.778  0.00  0.00    +0.000 C 
ATOM      8  C   UNL     1       1.615   9.509  19.619  0.00  0.00    +0.000 A 
ENDROOT
BRANCH   1  16
ATOM      9  C   UNL     1       4.548   4.858  16.897  0.00  0.00    +0.000 A 
ATOM     10  C   UNL     1       4.269   3.635  17.503  0.00  0.00    +0.000 A 
ATOM     11  C   UNL     1       3.387   3.519  18.606  0.00  0.00    +0.000 A 
ATOM     12  C   UNL     1       2.773   4.679  19.104  0.00  0.00    +0.000 A 
ATOM     13  C   UNL     1       1.735   4.758  20.164  0.00  0.00    +0.000 A 
ATOM     14  O   UNL     1       1.016   3.835  20.521  0.00  0.00    +0.000 OA
ATOM     15  C   UNL     1       1.480   6.071  20.765  0.00  0.00    +0.000 A 
ATOM     16  C   UNL     1       1.926   7.149  20.124  0.00  0.00    +0.000 A 
ATOM     17  O   UNL     1       2.649   7.130  18.959  0.00  0.00    +0.000 OA
ATOM     18  C   UNL     1       3.114   5.915  18.515  0.00  0.00    +0.000 A 
ATOM     19  C   UNL     1       3.966   6.002  17.414  0.00  0.00    +0.000 A 
BRANCH   9  21
ATOM     20  C   UNL     1       6.028   3.930  15.289  0.00  0.00    +0.000 C 
ATOM     21  O   UNL     1       5.360   5.068  15.821  0.00  0.00    +0.000 OA
ENDBRANCH   9  21
BRANCH  11  22
ATOM     22  O   UNL     1       3.327   2.211  18.998  0.00  0.00    +0.000 OA
ATOM     23  C   UNL     1       4.444   1.536  19.543  0.00  0.00    +0.000 C 
ENDBRANCH  11  22
ENDBRANCH   1  16
BRANCH   5  24
ATOM     24  O   UNL     1       0.149  12.369  21.317  0.00  0.00    +0.000 OA
BRANCH  24  25
ATOM     25  C   UNL     1      -1.242  12.700  21.290  0.00  0.00    +0.000 C 
BRANCH  25  26
ATOM     26  C   UNL     1      -1.807  12.888  19.868  0.00  0.00    +0.000 C 
BRANCH  26  27
ATOM     27  O   UNL     1      -1.775  14.271  19.512  0.00  0.00    +0.000 OA
ATOM     28  H   UNL     1      -2.667  14.624  19.668  0.00  0.00    +0.000 HD
ENDBRANCH  26  27
BRANCH  26  29
ATOM     29  C   UNL     1      -3.223  12.282  19.700  0.00  0.00    +0.000 C 
BRANCH  29  30
ATOM     30  N   UNL     1      -3.357  11.282  18.601  0.00  0.00    +0.000 NA
ATOM     31  C   UNL     1      -4.174  11.808  17.491  0.00  0.00    +0.000 C 
ATOM     32  C   UNL     1      -4.217  10.889  16.267  0.00  0.00    +0.000 C 
ATOM     33  C   UNL     1      -2.814  10.554  15.787  0.00  0.00    +0.000 C 
ATOM     34  C   UNL     1      -2.032   9.939  16.937  0.00  0.00    +0.000 C 
ATOM     35  C   UNL     1      -2.014  10.873  18.150  0.00  0.00    +0.000 C 
ENDBRANCH  29  30
ENDBRANCH  26  29
ENDBRANCH  25  26
ENDBRANCH  24  25
ENDBRANCH   5  24
TORSDOF 9
ENDMDL
MODEL 9
REMARK VINA RESULT:      -8.1      1.713      3.571
REMARK  Name = 
REMARK  13 active torsions:
REMARK  status: ('A' for Active; 'I' for Inactive)
REMARK    1  A    between atoms: C_1  and  O_2
REMARK    2  A    between atoms: O_2  and  C_3
REMARK    3  A    between atoms: C_5  and  O_6
REMARK    4  A    between atoms: O_6  and  C_7
REMARK    5  A    between atoms: C_12  and  C_13
REMARK    6  A    between atoms: C_15  and  C_16
REMARK    7  A    between atoms: C_17  and  O_18
REMARK    8  A    between atoms: O_18  and  C_19
REMARK    9  A    between atoms: C_19  and  C_20
REMARK   10  A    between atoms: C_20  and  O_21
REMARK   11  A    between atoms: C_20  and  C_22
REMARK   12  A    between atoms: C_22  and  N_23
REMARK   13  A    between atoms: C_29  and  C_30
REMARK                            x       y       z     vdW  Elec       q    Type
REMARK                         _______ _______ _______ _____ _____    ______ ____
ROOT
ATOM      1  C   UNL     1       1.398   9.064  19.694  0.00  0.00    +0.000 A 
ATOM      2  C   UNL     1       1.353  10.281  19.019  0.00  0.00    +0.000 A 
ATOM      3  C   UNL     1       0.688  11.399  19.576  0.00  0.00    +0.000 A 
ATOM      4  C   UNL     1       0.840  12.683  18.800  0.00  0.00    +0.000 C 
ATOM      5  C   UNL     1       0.026  11.258  20.825  0.00  0.00    +0.000 A 
ATOM      6  C   UNL     1       0.177  10.049  21.543  0.00  0.00    +0.000 A 
ATOM      7  C   UNL     1      -0.305   9.837  22.952  0.00  0.00    +0.000 C 
ATOM      8  C   UNL     1       0.819   8.959  20.950  0.00  0.00    +0.000 A 
ENDROOT
BRANCH   1  16
ATOM      9  C   UNL     1       3.175   3.368  20.084  0.00  0.00    +0.000 A 
ATOM     10  C   UNL     1       3.971   3.301  18.942  0.00  0.00    +0.000 A 
ATOM     11  C   UNL     1       4.217   4.430  18.122  0.00  0.00    +0.000 A 
ATOM     12  C   UNL     1       3.639   5.659  18.475  0.00  0.00    +0.000 A 
ATOM     13  C   UNL     1       3.868   6.976  17.825  0.00  0.00    +0.000 A 
ATOM     14  O   UNL     1       4.828   7.262  17.124  0.00  0.00    +0.000 OA
ATOM     15  C   UNL     1       2.919   8.053  18.125  0.00  0.00    +0.000 A 
ATOM     16  C   UNL     1       2.128   7.910  19.187  0.00  0.00    +0.000 A 
ATOM     17  O   UNL     1       2.097   6.810  20.005  0.00  0.00    +0.000 OA
ATOM     18  C   UNL     1       2.789   5.694  19.601  0.00  0.00    +0.000 A 
ATOM     19  C   UNL     1       2.580   4.575  20.407  0.00  0.00    +0.000 A 
BRANCH   9  21
ATOM     20  C   UNL     1       1.789   2.523  21.816  0.00  0.00    +0.000 C 
ATOM     21  O   UNL     1       2.900   2.347  20.947  0.00  0.00    +0.000 OA
ENDBRANCH   9  21
BRANCH  11  22
ATOM     22  O   UNL     1       5.009   4.058  17.071  0.00  0.00    +0.000 OA
ATOM     23  C   UNL     1       4.577   4.166  15.729  0.00  0.00    +0.000 C 
ENDBRANCH  11  22
ENDBRANCH   1  16
BRANCH   5  24
ATOM     24  O   UNL     1      -0.753  12.198  21.458  0.00  0.00    +0.000 OA
BRANCH  24  25
ATOM     25  C   UNL     1      -2.161  12.134  21.215  0.00  0.00    +0.000 C 
BRANCH  25  26
ATOM     26  C   UNL     1      -2.582  12.712  19.850  0.00  0.00    +0.000 C 
BRANCH  26  27
ATOM     27  O   UNL     1      -2.604  14.139  19.912  0.00  0.00    +0.000 OA
ATOM     28  H   UNL     1      -2.812  14.379  20.830  0.00  0.00    +0.000 HD
ENDBRANCH  26  27
BRANCH  26  29
ATOM     29  C   UNL     1      -3.928  12.137  19.345  0.00  0.00    +0.000 C 
BRANCH  29  30
ATOM     30  N   UNL     1      -3.817  11.158  18.224  0.00  0.00    +0.000 NA
ATOM     31  C   UNL     1      -4.433  11.681  16.989  0.00  0.00    +0.000 C 
ATOM     32  C   UNL     1      -4.212  10.790  15.763  0.00  0.00    +0.000 C 
ATOM     33  C   UNL     1      -2.732  10.515  15.549  0.00  0.00    +0.000 C 
ATOM     34  C   UNL     1      -2.156   9.900  16.815  0.00  0.00    +0.000 C 
ATOM     35  C   UNL     1      -2.399  10.806  18.024  0.00  0.00    +0.000 C 
ENDBRANCH  29  30
ENDBRANCH  26  29
ENDBRANCH  25  26
ENDBRANCH  24  25
ENDBRANCH   5  24
TORSDOF 9
ENDMDL
