MODEL 1
REMARK VINA RESULT:      -7.2      0.000      0.000
REMARK  Name = 
REMARK  7 active torsions:
REMARK  status: ('A' for Active; 'I' for Inactive)
REMARK    1  A    between atoms: C_1  and  O_2
REMARK    2  A    between atoms: O_2  and  C_3
REMARK    3  A    between atoms: C_3  and  C_5
REMARK    4  A    between atoms: C_5  and  N_6
REMARK    5  A    between atoms: C_10  and  C_11
REMARK    6  A    between atoms: C_16  and  S_17
REMARK    7  A    between atoms: S_17  and  N_20
REMARK                            x       y       z     vdW  Elec       q    Type
REMARK                         _______ _______ _______ _____ _____    ______ ____
ROOT
ATOM      1  N   UNL     1       6.113   5.707  17.367  0.00  0.00    +0.000 N 
ATOM      2  C   UNL     1       6.258   5.192  18.604  0.00  0.00    +0.000 C 
ATOM      3  O   UNL     1       7.243   4.765  19.174  0.00  0.00    +0.000 OA
ATOM      4  C   UNL     1       4.941   5.234  19.177  0.00  0.00    +0.000 A 
ATOM      5  C   UNL     1       4.166   4.108  19.328  0.00  0.00    +0.000 A 
ATOM      6  C   UNL     1       4.640   2.736  18.968  0.00  0.00    +0.000 C 
ATOM      7  N   UNL     1       2.849   4.222  19.570  0.00  0.00    +0.000 NA
ATOM      8  C   UNL     1       2.355   5.453  19.703  0.00  0.00    +0.000 A 
ATOM      9  C   UNL     1       1.278   5.527  20.565  0.00  0.00    +0.000 A 
ATOM     10  C   UNL     1       0.858   6.740  21.084  0.00  0.00    +0.000 A 
ATOM     11  C   UNL     1       1.385   7.922  20.578  0.00  0.00    +0.000 A 
ATOM     12  C   UNL     1       2.435   7.875  19.614  0.00  0.00    +0.000 A 
ATOM     13  C   UNL     1       3.006   6.607  19.192  0.00  0.00    +0.000 A 
ATOM     14  C   UNL     1       4.287   6.353  18.691  0.00  0.00    +0.000 A 
ATOM     15  C   UNL     1       4.883   6.338  17.287  0.00  0.00    +0.000 C 
ATOM     16  O   UNL     1       4.279   6.619  16.262  0.00  0.00    +0.000 OA
ENDROOT
BRANCH  11  17
ATOM     17  S   UNL     1       0.832   9.442  21.370  0.00  0.00    +0.000 S 
ATOM     18  O   UNL     1      -0.604   9.297  21.554  0.00  0.00    +0.000 OA
ATOM     19  O   UNL     1       1.709   9.680  22.486  0.00  0.00    +0.000 OA
BRANCH  17  20
ATOM     20  N   UNL     1       1.052  10.704  20.209  0.00  0.00    +0.000 NA
ATOM     21  C   UNL     1       1.275  12.090  20.711  0.00  0.00    +0.000 C 
ATOM     22  C   UNL     1      -0.009  12.704  21.274  0.00  0.00    +0.000 C 
ATOM     23  O   UNL     1      -1.085  12.693  20.326  0.00  0.00    +0.000 OA
ATOM     24  C   UNL     1      -1.318  11.413  19.720  0.00  0.00    +0.000 C 
ATOM     25  C   UNL     1      -0.032  10.792  19.153  0.00  0.00    +0.000 C 
ENDBRANCH  17  20
ENDBRANCH  11  17
BRANCH   1  26
ATOM     26  C   UNL     1       7.079   5.324  16.347  0.00  0.00    +0.000 C 
BRANCH  26  27
ATOM     27  C   UNL     1       6.543   4.299  15.366  0.00  0.00    +0.000 C 
ATOM     28  O   UNL     1       5.792   3.382  15.686  0.00  0.00    +0.000 OA
BRANCH  27  30
ATOM     29  C   UNL     1       6.298   3.821  13.087  0.00  0.00    +0.000 C 
ATOM     30  O   UNL     1       6.972   4.555  14.102  0.00  0.00    +0.000 OA
ENDBRANCH  27  30
ENDBRANCH  26  27
ENDBRANCH   1  26
TORSDOF 5
ENDMDL
MODEL 2
REMARK VINA RESULT:      -7.2      2.887      8.821
REMARK  Name = 
REMARK  7 active torsions:
REMARK  status: ('A' for Active; 'I' for Inactive)
REMARK    1  A    between atoms: C_1  and  O_2
REMARK    2  A    between atoms: O_2  and  C_3
REMARK    3  A    between atoms: C_3  and  C_5
REMARK    4  A    between atoms: C_5  and  N_6
REMARK    5  A    between atoms: C_10  and  C_11
REMARK    6  A    between atoms: C_16  and  S_17
REMARK    7  A    between atoms: S_17  and  N_20
REMARK                            x       y       z     vdW  Elec       q    Type
REMARK                         _______ _______ _______ _____ _____    ______ ____
ROOT
ATOM      1  N   UNL     1      -0.094  12.478  18.564  0.00  0.00    +0.000 N 
ATOM      2  C   UNL     1      -1.121  11.728  19.010  0.00  0.00    +0.000 C 
ATOM      3  O   UNL     1      -2.322  11.895  18.918  0.00  0.00    +0.000 OA
ATOM      4  C   UNL     1      -0.502  10.611  19.668  0.00  0.00    +0.000 A 
ATOM      5  C   UNL     1      -0.460  10.493  21.038  0.00  0.00    +0.000 A 
ATOM      6  C   UNL     1      -1.100  11.479  21.962  0.00  0.00    +0.000 C 
ATOM      7  N   UNL     1       0.381   9.617  21.614  0.00  0.00    +0.000 NA
ATOM      8  C   UNL     1       1.116   8.852  20.808  0.00  0.00    +0.000 A 
ATOM      9  C   UNL     1       1.403   7.609  21.335  0.00  0.00    +0.000 A 
ATOM     10  C   UNL     1       1.852   6.575  20.530  0.00  0.00    +0.000 A 
ATOM     11  C   UNL     1       2.216   6.838  19.216  0.00  0.00    +0.000 A 
ATOM     12  C   UNL     1       2.019   8.142  18.672  0.00  0.00    +0.000 A 
ATOM     13  C   UNL     1       1.385   9.189  19.454  0.00  0.00    +0.000 A 
ATOM     14  C   UNL     1       0.670  10.304  19.001  0.00  0.00    +0.000 A 
ATOM     15  C   UNL     1       1.069  11.729  18.632  0.00  0.00    +0.000 C 
ATOM     16  O   UNL     1       2.211  12.164  18.631  0.00  0.00    +0.000 OA
ENDROOT
BRANCH  11  17
ATOM     17  S   UNL     1       2.713   5.416  18.228  0.00  0.00    +0.000 S 
ATOM     18  O   UNL     1       1.493   4.908  17.618  0.00  0.00    +0.000 OA
ATOM     19  O   UNL     1       3.832   5.831  17.425  0.00  0.00    +0.000 OA
BRANCH  17  20
ATOM     20  N   UNL     1       3.243   4.208  19.344  0.00  0.00    +0.000 NA
ATOM     21  C   UNL     1       4.441   3.396  18.985  0.00  0.00    +0.000 C 
ATOM     22  C   UNL     1       4.129   2.377  17.886  0.00  0.00    +0.000 C 
ATOM     23  O   UNL     1       3.037   1.514  18.232  0.00  0.00    +0.000 OA
ATOM     24  C   UNL     1       1.862   2.207  18.677  0.00  0.00    +0.000 C 
ATOM     25  C   UNL     1       2.169   3.231  19.780  0.00  0.00    +0.000 C 
ENDBRANCH  17  20
ENDBRANCH  11  17
BRANCH   1  26
ATOM     26  C   UNL     1      -0.324  13.900  18.350  0.00  0.00    +0.000 C 
BRANCH  26  27
ATOM     27  C   UNL     1      -0.273  14.717  19.626  0.00  0.00    +0.000 C 
ATOM     28  O   UNL     1      -1.269  15.016  20.279  0.00  0.00    +0.000 OA
BRANCH  27  30
ATOM     29  C   UNL     1       1.735  15.700  18.933  0.00  0.00    +0.000 C 
ATOM     30  O   UNL     1       1.005  15.035  19.957  0.00  0.00    +0.000 OA
ENDBRANCH  27  30
ENDBRANCH  26  27
ENDBRANCH   1  26
TORSDOF 5
ENDMDL
MODEL 3
REMARK VINA RESULT:      -7.1      3.067      9.258
REMARK  Name = 
REMARK  7 active torsions:
REMARK  status: ('A' for Active; 'I' for Inactive)
REMARK    1  A    between atoms: C_1  and  O_2
REMARK    2  A    between atoms: O_2  and  C_3
REMARK    3  A    between atoms: C_3  and  C_5
REMARK    4  A    between atoms: C_5  and  N_6
REMARK    5  A    between atoms: C_10  and  C_11
REMARK    6  A    between atoms: C_16  and  S_17
REMARK    7  A    between atoms: S_17  and  N_20
REMARK                            x       y       z     vdW  Elec       q    Type
REMARK                         _______ _______ _______ _____ _____    ______ ____
ROOT
ATOM      1  N   UNL     1      -0.119  12.559  21.194  0.00  0.00    +0.000 N 
ATOM      2  C   UNL     1       1.201  12.782  21.035  0.00  0.00    +0.000 C 
ATOM      3  O   UNL     1       1.930  13.610  21.545  0.00  0.00    +0.000 OA
ATOM      4  C   UNL     1       1.629  11.798  20.081  0.00  0.00    +0.000 A 
ATOM      5  C   UNL     1       1.915  12.115  18.773  0.00  0.00    +0.000 A 
ATOM      6  C   UNL     1       1.864  13.511  18.241  0.00  0.00    +0.000 C 
ATOM      7  N   UNL     1       2.007  11.144  17.848  0.00  0.00    +0.000 NA
ATOM      8  C   UNL     1       1.860   9.887  18.263  0.00  0.00    +0.000 A 
ATOM      9  C   UNL     1       2.588   8.972  17.527  0.00  0.00    +0.000 A 
ATOM     10  C   UNL     1       2.829   7.695  18.006  0.00  0.00    +0.000 A 
ATOM     11  C   UNL     1       2.162   7.252  19.142  0.00  0.00    +0.000 A 
ATOM     12  C   UNL     1       1.326   8.150  19.870  0.00  0.00    +0.000 A 
ATOM     13  C   UNL     1       1.205   9.543  19.476  0.00  0.00    +0.000 A 
ATOM     14  C   UNL     1       0.884  10.649  20.271  0.00  0.00    +0.000 A 
ATOM     15  C   UNL     1      -0.431  11.324  20.650  0.00  0.00    +0.000 C 
ATOM     16  O   UNL     1      -1.542  10.940  20.317  0.00  0.00    +0.000 OA
ENDROOT
BRANCH  11  17
ATOM     17  S   UNL     1       2.600   5.607  19.730  0.00  0.00    +0.000 S 
ATOM     18  O   UNL     1       4.051   5.530  19.658  0.00  0.00    +0.000 OA
ATOM     19  O   UNL     1       1.901   5.403  20.971  0.00  0.00    +0.000 OA
BRANCH  17  20
ATOM     20  N   UNL     1       1.991   4.492  18.558  0.00  0.00    +0.000 NA
ATOM     21  C   UNL     1       1.131   3.371  19.033  0.00  0.00    +0.000 C 
ATOM     22  C   UNL     1       1.945   2.301  19.765  0.00  0.00    +0.000 C 
ATOM     23  O   UNL     1       3.023   1.789  18.968  0.00  0.00    +0.000 OA
ATOM     24  C   UNL     1       3.857   2.804  18.392  0.00  0.00    +0.000 C 
ATOM     25  C   UNL     1       3.045   3.881  17.655  0.00  0.00    +0.000 C 
ENDBRANCH  17  20
ENDBRANCH  11  17
BRANCH   1  26
ATOM     26  C   UNL     1      -0.954  13.665  21.639  0.00  0.00    +0.000 C 
BRANCH  26  27
ATOM     27  C   UNL     1      -1.225  13.652  23.131  0.00  0.00    +0.000 C 
ATOM     28  O   UNL     1      -0.856  14.541  23.894  0.00  0.00    +0.000 OA
BRANCH  27  30
ATOM     29  C   UNL     1      -3.342  12.659  23.225  0.00  0.00    +0.000 C 
ATOM     30  O   UNL     1      -1.949  12.561  23.491  0.00  0.00    +0.000 OA
ENDBRANCH  27  30
ENDBRANCH  26  27
ENDBRANCH   1  26
TORSDOF 5
ENDMDL
MODEL 4
REMARK VINA RESULT:      -7.1      1.202      1.653
REMARK  Name = 
REMARK  7 active torsions:
REMARK  status: ('A' for Active; 'I' for Inactive)
REMARK    1  A    between atoms: C_1  and  O_2
REMARK    2  A    between atoms: O_2  and  C_3
REMARK    3  A    between atoms: C_3  and  C_5
REMARK    4  A    between atoms: C_5  and  N_6
REMARK    5  A    between atoms: C_10  and  C_11
REMARK    6  A    between atoms: C_16  and  S_17
REMARK    7  A    between atoms: S_17  and  N_20
REMARK                            x       y       z     vdW  Elec       q    Type
REMARK                         _______ _______ _______ _____ _____    ______ ____
ROOT
ATOM      1  N   UNL     1       5.781   4.809  17.116  0.00  0.00    +0.000 N 
ATOM      2  C   UNL     1       6.117   4.827  18.421  0.00  0.00    +0.000 C 
ATOM      3  O   UNL     1       7.182   4.616  18.967  0.00  0.00    +0.000 OA
ATOM      4  C   UNL     1       4.901   5.161  19.110  0.00  0.00    +0.000 A 
ATOM      5  C   UNL     1       4.172   4.229  19.812  0.00  0.00    +0.000 A 
ATOM      6  C   UNL     1       4.604   2.807  19.973  0.00  0.00    +0.000 C 
ATOM      7  N   UNL     1       2.905   4.496  20.173  0.00  0.00    +0.000 NA
ATOM      8  C   UNL     1       2.422   5.699  19.868  0.00  0.00    +0.000 A 
ATOM      9  C   UNL     1       1.487   6.166  20.771  0.00  0.00    +0.000 A 
ATOM     10  C   UNL     1       1.134   7.505  20.810  0.00  0.00    +0.000 A 
ATOM     11  C   UNL     1       1.564   8.357  19.800  0.00  0.00    +0.000 A 
ATOM     12  C   UNL     1       2.456   7.875  18.797  0.00  0.00    +0.000 A 
ATOM     13  C   UNL     1       2.974   6.519  18.846  0.00  0.00    +0.000 A 
ATOM     14  C   UNL     1       4.168   6.021  18.313  0.00  0.00    +0.000 A 
ATOM     15  C   UNL     1       4.544   5.415  16.965  0.00  0.00    +0.000 C 
ATOM     16  O   UNL     1       3.790   5.291  16.012  0.00  0.00    +0.000 OA
ENDROOT
BRANCH  11  17
ATOM     17  S   UNL     1       1.118  10.093  19.980  0.00  0.00    +0.000 S 
ATOM     18  O   UNL     1       1.544  10.477  21.318  0.00  0.00    +0.000 OA
ATOM     19  O   UNL     1       1.608  10.777  18.814  0.00  0.00    +0.000 OA
BRANCH  17  20
ATOM     20  N   UNL     1      -0.610  10.155  19.979  0.00  0.00    +0.000 NA
ATOM     21  C   UNL     1      -1.304  10.405  18.684  0.00  0.00    +0.000 C 
ATOM     22  C   UNL     1      -1.158  11.861  18.233  0.00  0.00    +0.000 C 
ATOM     23  O   UNL     1      -1.616  12.792  19.223  0.00  0.00    +0.000 OA
ATOM     24  C   UNL     1      -1.067  12.573  20.531  0.00  0.00    +0.000 C 
ATOM     25  C   UNL     1      -1.211  11.113  20.989  0.00  0.00    +0.000 C 
ENDBRANCH  17  20
ENDBRANCH  11  17
BRANCH   1  26
ATOM     26  C   UNL     1       6.586   4.002  16.211  0.00  0.00    +0.000 C 
BRANCH  26  27
ATOM     27  C   UNL     1       6.800   4.649  14.856  0.00  0.00    +0.000 C 
ATOM     28  O   UNL     1       7.660   5.498  14.640  0.00  0.00    +0.000 OA
BRANCH  27  30
ATOM     29  C   UNL     1       6.569   3.735  12.714  0.00  0.00    +0.000 C 
ATOM     30  O   UNL     1       5.949   4.142  13.927  0.00  0.00    +0.000 OA
ENDBRANCH  27  30
ENDBRANCH  26  27
ENDBRANCH   1  26
TORSDOF 5
ENDMDL
MODEL 5
REMARK VINA RESULT:      -7.1      2.473      8.564
REMARK  Name = 
REMARK  7 active torsions:
REMARK  status: ('A' for Active; 'I' for Inactive)
REMARK    1  A    between atoms: C_1  and  O_2
REMARK    2  A    between atoms: O_2  and  C_3
REMARK    3  A    between atoms: C_3  and  C_5
REMARK    4  A    between atoms: C_5  and  N_6
REMARK    5  A    between atoms: C_10  and  C_11
REMARK    6  A    between atoms: C_16  and  S_17
REMARK    7  A    between atoms: S_17  and  N_20
REMARK                            x       y       z     vdW  Elec       q    Type
REMARK                         _______ _______ _______ _____ _____    ______ ____
ROOT
ATOM      1  N   UNL     1       0.028  11.754  18.420  0.00  0.00    +0.000 N 
ATOM      2  C   UNL     1      -0.914  10.859  18.777  0.00  0.00    +0.000 C 
ATOM      3  O   UNL     1      -2.122  10.886  18.646  0.00  0.00    +0.000 OA
ATOM      4  C   UNL     1      -0.185   9.784  19.392  0.00  0.00    +0.000 A 
ATOM      5  C   UNL     1      -0.175   9.585  20.753  0.00  0.00    +0.000 A 
ATOM      6  C   UNL     1      -0.961  10.425  21.707  0.00  0.00    +0.000 C 
ATOM      7  N   UNL     1       0.747   8.781  21.310  0.00  0.00    +0.000 NA
ATOM      8  C   UNL     1       1.597   8.163  20.491  0.00  0.00    +0.000 A 
ATOM      9  C   UNL     1       2.017   6.932  20.954  0.00  0.00    +0.000 A 
ATOM     10  C   UNL     1       2.615   6.013  20.108  0.00  0.00    +0.000 A 
ATOM     11  C   UNL     1       2.989   6.402  18.828  0.00  0.00    +0.000 A 
ATOM     12  C   UNL     1       2.651   7.705  18.355  0.00  0.00    +0.000 A 
ATOM     13  C   UNL     1       1.868   8.617  19.172  0.00  0.00    +0.000 A 
ATOM     14  C   UNL     1       1.038   9.664  18.757  0.00  0.00    +0.000 A 
ATOM     15  C   UNL     1       1.271  11.147  18.490  0.00  0.00    +0.000 C 
ATOM     16  O   UNL     1       2.351  11.715  18.562  0.00  0.00    +0.000 OA
ENDROOT
BRANCH  11  17
ATOM     17  S   UNL     1       3.689   5.117  17.778  0.00  0.00    +0.000 S 
ATOM     18  O   UNL     1       4.577   4.343  18.633  0.00  0.00    +0.000 OA
ATOM     19  O   UNL     1       2.593   4.496  17.083  0.00  0.00    +0.000 OA
BRANCH  17  20
ATOM     20  N   UNL     1       4.695   5.922  16.626  0.00  0.00    +0.000 NA
ATOM     21  C   UNL     1       5.251   5.123  15.498  0.00  0.00    +0.000 C 
ATOM     22  C   UNL     1       6.370   4.186  15.961  0.00  0.00    +0.000 C 
ATOM     23  O   UNL     1       7.427   4.884  16.635  0.00  0.00    +0.000 OA
ATOM     24  C   UNL     1       6.977   5.752  17.686  0.00  0.00    +0.000 C 
ATOM     25  C   UNL     1       5.854   6.694  17.226  0.00  0.00    +0.000 C 
ENDBRANCH  17  20
ENDBRANCH  11  17
BRANCH   1  26
ATOM     26  C   UNL     1      -0.367  13.149  18.281  0.00  0.00    +0.000 C 
BRANCH  26  27
ATOM     27  C   UNL     1      -0.484  13.876  19.606  0.00  0.00    +0.000 C 
ATOM     28  O   UNL     1      -1.496  13.860  20.302  0.00  0.00    +0.000 OA
BRANCH  27  30
ATOM     29  C   UNL     1       1.330  15.139  18.836  0.00  0.00    +0.000 C 
ATOM     30  O   UNL     1       0.677  14.504  19.928  0.00  0.00    +0.000 OA
ENDBRANCH  27  30
ENDBRANCH  26  27
ENDBRANCH   1  26
TORSDOF 5
ENDMDL
MODEL 6
REMARK VINA RESULT:      -7.1      0.666      1.060
REMARK  Name = 
REMARK  7 active torsions:
REMARK  status: ('A' for Active; 'I' for Inactive)
REMARK    1  A    between atoms: C_1  and  O_2
REMARK    2  A    between atoms: O_2  and  C_3
REMARK    3  A    between atoms: C_3  and  C_5
REMARK    4  A    between atoms: C_5  and  N_6
REMARK    5  A    between atoms: C_10  and  C_11
REMARK    6  A    between atoms: C_16  and  S_17
REMARK    7  A    between atoms: S_17  and  N_20
REMARK                            x       y       z     vdW  Elec       q    Type
REMARK                         _______ _______ _______ _____ _____    ______ ____
ROOT
ATOM      1  N   UNL     1       6.065   5.839  17.533  0.00  0.00    +0.000 N 
ATOM      2  C   UNL     1       6.192   5.331  18.775  0.00  0.00    +0.000 C 
ATOM      3  O   UNL     1       7.176   4.942  19.374  0.00  0.00    +0.000 OA
ATOM      4  C   UNL     1       4.858   5.323  19.308  0.00  0.00    +0.000 A 
ATOM      5  C   UNL     1       4.122   4.168  19.437  0.00  0.00    +0.000 A 
ATOM      6  C   UNL     1       4.659   2.815  19.094  0.00  0.00    +0.000 C 
ATOM      7  N   UNL     1       2.796   4.232  19.640  0.00  0.00    +0.000 NA
ATOM      8  C   UNL     1       2.251   5.443  19.757  0.00  0.00    +0.000 A 
ATOM      9  C   UNL     1       1.148   5.476  20.587  0.00  0.00    +0.000 A 
ATOM     10  C   UNL     1       0.666   6.672  21.091  0.00  0.00    +0.000 A 
ATOM     11  C   UNL     1       1.162   7.873  20.599  0.00  0.00    +0.000 A 
ATOM     12  C   UNL     1       2.241   7.866  19.666  0.00  0.00    +0.000 A 
ATOM     13  C   UNL     1       2.873   6.621  19.264  0.00  0.00    +0.000 A 
ATOM     14  C   UNL     1       4.177   6.415  18.802  0.00  0.00    +0.000 A 
ATOM     15  C   UNL     1       4.814   6.423  17.415  0.00  0.00    +0.000 C 
ATOM     16  O   UNL     1       4.231   6.680  16.373  0.00  0.00    +0.000 OA
ENDROOT
BRANCH  11  17
ATOM     17  S   UNL     1       0.528   9.372  21.372  0.00  0.00    +0.000 S 
ATOM     18  O   UNL     1      -0.401   8.928  22.400  0.00  0.00    +0.000 OA
ATOM     19  O   UNL     1       1.665  10.192  21.695  0.00  0.00    +0.000 OA
BRANCH  17  20
ATOM     20  N   UNL     1      -0.418  10.177  20.171  0.00  0.00    +0.000 NA
ATOM     21  C   UNL     1       0.190  10.397  18.827  0.00  0.00    +0.000 C 
ATOM     22  C   UNL     1       1.256  11.495  18.858  0.00  0.00    +0.000 C 
ATOM     23  O   UNL     1       0.753  12.734  19.378  0.00  0.00    +0.000 OA
ATOM     24  C   UNL     1       0.070  12.608  20.633  0.00  0.00    +0.000 C 
ATOM     25  C   UNL     1      -1.002  11.506  20.608  0.00  0.00    +0.000 C 
ENDBRANCH  17  20
ENDBRANCH  11  17
BRANCH   1  26
ATOM     26  C   UNL     1       7.074   5.493  16.543  0.00  0.00    +0.000 C 
BRANCH  26  27
ATOM     27  C   UNL     1       6.608   4.447  15.549  0.00  0.00    +0.000 C 
ATOM     28  O   UNL     1       5.929   3.472  15.859  0.00  0.00    +0.000 OA
BRANCH  27  30
ATOM     29  C   UNL     1       6.422   3.952  13.269  0.00  0.00    +0.000 C 
ATOM     30  O   UNL     1       7.009   4.752  14.287  0.00  0.00    +0.000 OA
ENDBRANCH  27  30
ENDBRANCH  26  27
ENDBRANCH   1  26
TORSDOF 5
ENDMDL
MODEL 7
REMARK VINA RESULT:      -7.0      1.600      2.014
REMARK  Name = 
REMARK  7 active torsions:
REMARK  status: ('A' for Active; 'I' for Inactive)
REMARK    1  A    between atoms: C_1  and  O_2
REMARK    2  A    between atoms: O_2  and  C_3
REMARK    3  A    between atoms: C_3  and  C_5
REMARK    4  A    between atoms: C_5  and  N_6
REMARK    5  A    between atoms: C_10  and  C_11
REMARK    6  A    between atoms: C_16  and  S_17
REMARK    7  A    between atoms: S_17  and  N_20
REMARK                            x       y       z     vdW  Elec       q    Type
REMARK                         _______ _______ _______ _____ _____    ______ ____
ROOT
ATOM      1  N   UNL     1       6.253   5.155  16.609  0.00  0.00    +0.000 N 
ATOM      2  C   UNL     1       6.615   5.433  17.877  0.00  0.00    +0.000 C 
ATOM      3  O   UNL     1       7.707   5.420  18.410  0.00  0.00    +0.000 OA
ATOM      4  C   UNL     1       5.388   5.768  18.545  0.00  0.00    +0.000 A 
ATOM      5  C   UNL     1       4.769   4.910  19.425  0.00  0.00    +0.000 A 
ATOM      6  C   UNL     1       5.342   3.584  19.812  0.00  0.00    +0.000 C 
ATOM      7  N   UNL     1       3.491   5.119  19.784  0.00  0.00    +0.000 NA
ATOM      8  C   UNL     1       2.885   6.199  19.294  0.00  0.00    +0.000 A 
ATOM      9  C   UNL     1       1.929   6.729  20.139  0.00  0.00    +0.000 A 
ATOM     10  C   UNL     1       1.448   8.015  19.960  0.00  0.00    +0.000 A 
ATOM     11  C   UNL     1       1.770   8.713  18.803  0.00  0.00    +0.000 A 
ATOM     12  C   UNL     1       2.683   8.148  17.864  0.00  0.00    +0.000 A 
ATOM     13  C   UNL     1       3.331   6.874  18.126  0.00  0.00    +0.000 A 
ATOM     14  C   UNL     1       4.556   6.404  17.641  0.00  0.00    +0.000 A 
ATOM     15  C   UNL     1       4.960   5.608  16.403  0.00  0.00    +0.000 C 
ATOM     16  O   UNL     1       4.201   5.250  15.516  0.00  0.00    +0.000 OA
ENDROOT
BRANCH  11  17
ATOM     17  S   UNL     1       1.160  10.405  18.698  0.00  0.00    +0.000 S 
ATOM     18  O   UNL     1       2.245  11.185  18.121  0.00  0.00    +0.000 OA
ATOM     19  O   UNL     1      -0.134  10.349  18.073  0.00  0.00    +0.000 OA
BRANCH  17  20
ATOM     20  N   UNL     1       0.971  10.956  20.325  0.00  0.00    +0.000 NA
ATOM     21  C   UNL     1      -0.375  10.841  20.955  0.00  0.00    +0.000 C 
ATOM     22  C   UNL     1      -1.357  11.873  20.392  0.00  0.00    +0.000 C 
ATOM     23  O   UNL     1      -0.871  13.217  20.515  0.00  0.00    +0.000 OA
ATOM     24  C   UNL     1       0.460  13.406  20.013  0.00  0.00    +0.000 C 
ATOM     25  C   UNL     1       1.449  12.373  20.575  0.00  0.00    +0.000 C 
ENDBRANCH  17  20
ENDBRANCH  11  17
BRANCH   1  26
ATOM     26  C   UNL     1       7.113   4.279  15.826  0.00  0.00    +0.000 C 
BRANCH  26  27
ATOM     27  C   UNL     1       7.165   4.645  14.355  0.00  0.00    +0.000 C 
ATOM     28  O   UNL     1       7.855   5.558  13.908  0.00  0.00    +0.000 OA
BRANCH  27  30
ATOM     29  C   UNL     1       6.770   3.707  12.247  0.00  0.00    +0.000 C 
ATOM     30  O   UNL     1       6.387   3.816  13.613  0.00  0.00    +0.000 OA
ENDBRANCH  27  30
ENDBRANCH  26  27
ENDBRANCH   1  26
TORSDOF 5
ENDMDL
MODEL 8
REMARK VINA RESULT:      -6.9      2.993      9.203
REMARK  Name = 
REMARK  7 active torsions:
REMARK  status: ('A' for Active; 'I' for Inactive)
REMARK    1  A    between atoms: C_1  and  O_2
REMARK    2  A    between atoms: O_2  and  C_3
REMARK    3  A    between atoms: C_3  and  C_5
REMARK    4  A    between atoms: C_5  and  N_6
REMARK    5  A    between atoms: C_10  and  C_11
REMARK    6  A    between atoms: C_16  and  S_17
REMARK    7  A    between atoms: S_17  and  N_20
REMARK                            x       y       z     vdW  Elec       q    Type
REMARK                         _______ _______ _______ _____ _____    ______ ____
ROOT
ATOM      1  N   UNL     1      -0.571  11.965  20.824  0.00  0.00    +0.000 N 
ATOM      2  C   UNL     1       0.725  12.332  20.863  0.00  0.00    +0.000 C 
ATOM      3  O   UNL     1       1.282  13.202  21.503  0.00  0.00    +0.000 OA
ATOM      4  C   UNL     1       1.385  11.449  19.942  0.00  0.00    +0.000 A 
ATOM      5  C   UNL     1       1.811  11.863  18.701  0.00  0.00    +0.000 A 
ATOM      6  C   UNL     1       1.680  13.273  18.221  0.00  0.00    +0.000 C 
ATOM      7  N   UNL     1       2.135  10.957  17.762  0.00  0.00    +0.000 NA
ATOM      8  C   UNL     1       2.072   9.671  18.104  0.00  0.00    +0.000 A 
ATOM      9  C   UNL     1       2.990   8.878  17.444  0.00  0.00    +0.000 A 
ATOM     10  C   UNL     1       3.302   7.609  17.903  0.00  0.00    +0.000 A 
ATOM     11  C   UNL     1       2.539   7.040  18.915  0.00  0.00    +0.000 A 
ATOM     12  C   UNL     1       1.518   7.806  19.551  0.00  0.00    +0.000 A 
ATOM     13  C   UNL     1       1.299   9.198  19.198  0.00  0.00    +0.000 A 
ATOM     14  C   UNL     1       0.752  10.220  19.981  0.00  0.00    +0.000 A 
ATOM     15  C   UNL     1      -0.668  10.734  20.195  0.00  0.00    +0.000 C 
ATOM     16  O   UNL     1      -1.675  10.256  19.693  0.00  0.00    +0.000 OA
ENDROOT
BRANCH  11  17
ATOM     17  S   UNL     1       3.070   5.419  19.496  0.00  0.00    +0.000 S 
ATOM     18  O   UNL     1       4.519   5.494  19.616  0.00  0.00    +0.000 OA
ATOM     19  O   UNL     1       2.243   5.084  20.624  0.00  0.00    +0.000 OA
BRANCH  17  20
ATOM     20  N   UNL     1       2.741   4.309  18.213  0.00  0.00    +0.000 NA
ATOM     21  C   UNL     1       1.368   3.737  18.113  0.00  0.00    +0.000 C 
ATOM     22  C   UNL     1       1.104   2.698  19.205  0.00  0.00    +0.000 C 
ATOM     23  O   UNL     1       2.076   1.643  19.207  0.00  0.00    +0.000 OA
ATOM     24  C   UNL     1       3.436   2.101  19.212  0.00  0.00    +0.000 C 
ATOM     25  C   UNL     1       3.707   3.145  18.118  0.00  0.00    +0.000 C 
ENDBRANCH  17  20
ENDBRANCH  11  17
BRANCH   1  26
ATOM     26  C   UNL     1      -1.576  12.953  21.188  0.00  0.00    +0.000 C 
BRANCH  26  27
ATOM     27  C   UNL     1      -2.191  12.712  22.553  0.00  0.00    +0.000 C 
ATOM     28  O   UNL     1      -3.267  12.144  22.720  0.00  0.00    +0.000 OA
BRANCH  27  30
ATOM     29  C   UNL     1      -1.711  14.468  24.024  0.00  0.00    +0.000 C 
ATOM     30  O   UNL     1      -1.385  13.169  23.545  0.00  0.00    +0.000 OA
ENDBRANCH  27  30
ENDBRANCH  26  27
ENDBRANCH   1  26
TORSDOF 5
ENDMDL
MODEL 9
REMARK VINA RESULT:      -6.7      3.250      8.706
REMARK  Name = 
REMARK  7 active torsions:
REMARK  status: ('A' for Active; 'I' for Inactive)
REMARK    1  A    between atoms: C_1  and  O_2
REMARK    2  A    between atoms: O_2  and  C_3
REMARK    3  A    between atoms: C_3  and  C_5
REMARK    4  A    between atoms: C_5  and  N_6
REMARK    5  A    between atoms: C_10  and  C_11
REMARK    6  A    between atoms: C_16  and  S_17
REMARK    7  A    between atoms: S_17  and  N_20
REMARK                            x       y       z     vdW  Elec       q    Type
REMARK                         _______ _______ _______ _____ _____    ______ ____
ROOT
ATOM      1  N   UNL     1       0.049  12.583  18.301  0.00  0.00    +0.000 N 
ATOM      2  C   UNL     1      -1.025  11.820  18.580  0.00  0.00    +0.000 C 
ATOM      3  O   UNL     1      -2.191  11.947  18.261  0.00  0.00    +0.000 OA
ATOM      4  C   UNL     1      -0.514  10.747  19.388  0.00  0.00    +0.000 A 
ATOM      5  C   UNL     1      -0.725  10.681  20.746  0.00  0.00    +0.000 A 
ATOM      6  C   UNL     1      -1.548  11.681  21.493  0.00  0.00    +0.000 C 
ATOM      7  N   UNL     1       0.014   9.853  21.504  0.00  0.00    +0.000 NA
ATOM      8  C   UNL     1       0.903   9.081  20.880  0.00  0.00    +0.000 A 
ATOM      9  C   UNL     1       1.116   7.867  21.503  0.00  0.00    +0.000 A 
ATOM     10  C   UNL     1       1.729   6.818  20.839  0.00  0.00    +0.000 A 
ATOM     11  C   UNL     1       2.326   7.043  19.605  0.00  0.00    +0.000 A 
ATOM     12  C   UNL     1       2.203   8.320  18.980  0.00  0.00    +0.000 A 
ATOM     13  C   UNL     1       1.412   9.376  19.587  0.00  0.00    +0.000 A 
ATOM     14  C   UNL     1       0.768  10.450  18.963  0.00  0.00    +0.000 A 
ATOM     15  C   UNL     1       1.197  11.872  18.614  0.00  0.00    +0.000 C 
ATOM     16  O   UNL     1       2.308  12.341  18.806  0.00  0.00    +0.000 OA
ENDROOT
BRANCH  11  17
ATOM     17  S   UNL     1       3.030   5.601  18.786  0.00  0.00    +0.000 S 
ATOM     18  O   UNL     1       3.401   6.043  17.450  0.00  0.00    +0.000 OA
ATOM     19  O   UNL     1       4.003   5.040  19.685  0.00  0.00    +0.000 OA
BRANCH  17  20
ATOM     20  N   UNL     1       1.736   4.472  18.589  0.00  0.00    +0.000 NA
ATOM     21  C   UNL     1       1.308   3.679  19.776  0.00  0.00    +0.000 C 
ATOM     22  C   UNL     1       2.326   2.593  20.131  0.00  0.00    +0.000 C 
ATOM     23  O   UNL     1       2.602   1.717  19.029  0.00  0.00    +0.000 OA
ATOM     24  C   UNL     1       2.939   2.397  17.812  0.00  0.00    +0.000 C 
ATOM     25  C   UNL     1       1.921   3.489  17.450  0.00  0.00    +0.000 C 
ENDBRANCH  17  20
ENDBRANCH  11  17
BRANCH   1  26
ATOM     26  C   UNL     1      -0.169  13.989  17.988  0.00  0.00    +0.000 C 
BRANCH  26  27
ATOM     27  C   UNL     1       0.112  14.916  19.155  0.00  0.00    +0.000 C 
ATOM     28  O   UNL     1      -0.247  14.684  20.306  0.00  0.00    +0.000 OA
BRANCH  27  30
ATOM     29  C   UNL     1       2.232  15.891  18.982  0.00  0.00    +0.000 C 
ATOM     30  O   UNL     1       0.831  15.998  18.762  0.00  0.00    +0.000 OA
ENDBRANCH  27  30
ENDBRANCH  26  27
ENDBRANCH   1  26
TORSDOF 5
ENDMDL
