MODEL 1
REMARK VINA RESULT:      -8.3      0.000      0.000
REMARK  Name = 
REMARK  5 active torsions:
REMARK  status: ('A' for Active; 'I' for Inactive)
REMARK    1  A    between atoms: C_1  and  C_2
REMARK    2  A    between atoms: C_2  and  O_3
REMARK    3  A    between atoms: O_3  and  C_4
REMARK    4  A    between atoms: C_12  and  C_13
REMARK    5  A    between atoms: C_24  and  C_25
REMARK                            x       y       z     vdW  Elec       q    Type
REMARK                         _______ _______ _______ _____ _____    ______ ____
ROOT
ATOM      1  C   UNL     1       5.064   5.358  17.084  0.00  0.00    +0.000 A 
ATOM      2  C   UNL     1       4.691   4.657  15.906  0.00  0.00    +0.000 A 
ATOM      3  C   UNL     1       5.526   4.451  14.802  0.00  0.00    +0.000 A 
ATOM      4  N   UNL     1       5.151   3.627  13.810  0.00  0.00    +0.000 NA
ATOM      5  C   UNL     1       5.998   3.457  12.793  0.00  0.00    +0.000 A 
ATOM      6  N   UNL     1       5.667   2.525  11.832  0.00  0.00    +0.000 N 
ATOM      7  N   UNL     1       7.139   4.119  12.625  0.00  0.00    +0.000 NA
ATOM      8  C   UNL     1       7.502   4.939  13.616  0.00  0.00    +0.000 A 
ATOM      9  N   UNL     1       8.690   5.650  13.393  0.00  0.00    +0.000 N 
ATOM     10  C   UNL     1       6.747   5.108  14.779  0.00  0.00    +0.000 A 
ATOM     11  C   UNL     1       7.144   5.862  15.898  0.00  0.00    +0.000 A 
ATOM     12  C   UNL     1       6.365   5.916  17.071  0.00  0.00    +0.000 A 
ATOM     13  C   UNL     1       7.024   6.603  18.239  0.00  0.00    +0.000 C 
ATOM     14  H   UNL     1       4.670   2.374  11.829  0.00  0.00    +0.000 HD
ATOM     15  H   UNL     1       6.110   2.760  10.957  0.00  0.00    +0.000 HD
ATOM     16  H   UNL     1       9.073   5.323  12.512  0.00  0.00    +0.000 HD
ATOM     17  H   UNL     1       9.347   5.540  14.156  0.00  0.00    +0.000 HD
ENDROOT
BRANCH   1  26
ATOM     18  C   UNL     1       3.979   4.418  19.251  0.00  0.00    +0.000 A 
ATOM     19  C   UNL     1       2.998   4.491  20.250  0.00  0.00    +0.000 A 
ATOM     20  C   UNL     1       2.163   5.594  20.374  0.00  0.00    +0.000 A 
ATOM     21  C   UNL     1       2.357   6.643  19.484  0.00  0.00    +0.000 A 
ATOM     22  N   UNL     1       1.732   7.871  19.472  0.00  0.00    +0.000 N 
ATOM     23  C   UNL     1       2.207   8.631  18.447  0.00  0.00    +0.000 A 
ATOM     24  C   UNL     1       3.103   7.856  17.744  0.00  0.00    +0.000 A 
ATOM     25  C   UNL     1       3.272   6.599  18.424  0.00  0.00    +0.000 A 
ATOM     26  C   UNL     1       4.107   5.437  18.250  0.00  0.00    +0.000 A 
ATOM     27  H   UNL     1       1.046   8.170  20.152  0.00  0.00    +0.000 HD
BRANCH  18  28
ATOM     28  O   UNL     1       4.902   3.391  19.230  0.00  0.00    +0.000 OA
BRANCH  28  30
ATOM     29  C   UNL     1       3.689   1.463  18.445  0.00  0.00    +0.000 C 
ATOM     30  C   UNL     1       4.456   2.084  19.602  0.00  0.00    +0.000 C 
ENDBRANCH  28  30
ENDBRANCH  18  28
ENDBRANCH   1  26
TORSDOF 3
ENDMDL
MODEL 2
REMARK VINA RESULT:      -8.1      2.466      6.880
REMARK  Name = 
REMARK  5 active torsions:
REMARK  status: ('A' for Active; 'I' for Inactive)
REMARK    1  A    between atoms: C_1  and  C_2
REMARK    2  A    between atoms: C_2  and  O_3
REMARK    3  A    between atoms: O_3  and  C_4
REMARK    4  A    between atoms: C_12  and  C_13
REMARK    5  A    between atoms: C_24  and  C_25
REMARK                            x       y       z     vdW  Elec       q    Type
REMARK                         _______ _______ _______ _____ _____    ______ ____
ROOT
ATOM      1  C   UNL     1       3.177   6.566  18.433  0.00  0.00    +0.000 A 
ATOM      2  C   UNL     1       2.775   7.820  17.901  0.00  0.00    +0.000 A 
ATOM      3  C   UNL     1       1.989   8.760  18.579  0.00  0.00    +0.000 A 
ATOM      4  N   UNL     1       1.806   9.989  18.068  0.00  0.00    +0.000 NA
ATOM      5  C   UNL     1       1.061  10.845  18.769  0.00  0.00    +0.000 A 
ATOM      6  N   UNL     1       0.968  12.141  18.306  0.00  0.00    +0.000 N 
ATOM      7  N   UNL     1       0.393  10.551  19.880  0.00  0.00    +0.000 NA
ATOM      8  C   UNL     1       0.577   9.325  20.378  0.00  0.00    +0.000 A 
ATOM      9  N   UNL     1      -0.169   9.032  21.528  0.00  0.00    +0.000 N 
ATOM     10  C   UNL     1       1.425   8.383  19.788  0.00  0.00    +0.000 A 
ATOM     11  C   UNL     1       1.745   7.129  20.336  0.00  0.00    +0.000 A 
ATOM     12  C   UNL     1       2.677   6.267  19.724  0.00  0.00    +0.000 A 
ATOM     13  C   UNL     1       3.052   5.056  20.538  0.00  0.00    +0.000 C 
ATOM     14  H   UNL     1       1.164  12.167  17.317  0.00  0.00    +0.000 HD
ATOM     15  H   UNL     1       0.110  12.561  18.628  0.00  0.00    +0.000 HD
ATOM     16  H   UNL     1      -0.664   9.880  21.787  0.00  0.00    +0.000 HD
ATOM     17  H   UNL     1       0.414   8.689  22.282  0.00  0.00    +0.000 HD
ENDROOT
BRANCH   1  26
ATOM     18  C   UNL     1       3.740   4.378  17.149  0.00  0.00    +0.000 A 
ATOM     19  C   UNL     1       4.675   3.545  16.517  0.00  0.00    +0.000 A 
ATOM     20  C   UNL     1       5.972   3.968  16.258  0.00  0.00    +0.000 A 
ATOM     21  C   UNL     1       6.304   5.267  16.625  0.00  0.00    +0.000 A 
ATOM     22  N   UNL     1       7.481   5.941  16.383  0.00  0.00    +0.000 N 
ATOM     23  C   UNL     1       7.413   7.202  16.891  0.00  0.00    +0.000 A 
ATOM     24  C   UNL     1       6.199   7.321  17.532  0.00  0.00    +0.000 A 
ATOM     25  C   UNL     1       5.437   6.120  17.321  0.00  0.00    +0.000 A 
ATOM     26  C   UNL     1       4.104   5.673  17.644  0.00  0.00    +0.000 A 
ATOM     27  H   UNL     1       8.264   5.558  15.871  0.00  0.00    +0.000 HD
BRANCH  18  28
ATOM     28  O   UNL     1       2.415   4.006  17.262  0.00  0.00    +0.000 OA
BRANCH  28  30
ATOM     29  C   UNL     1       0.919   2.768  18.687  0.00  0.00    +0.000 C 
ATOM     30  C   UNL     1       2.127   2.699  17.767  0.00  0.00    +0.000 C 
ENDBRANCH  28  30
ENDBRANCH  18  28
ENDBRANCH   1  26
TORSDOF 3
ENDMDL
MODEL 3
REMARK VINA RESULT:      -7.9      1.503      3.276
REMARK  Name = 
REMARK  5 active torsions:
REMARK  status: ('A' for Active; 'I' for Inactive)
REMARK    1  A    between atoms: C_1  and  C_2
REMARK    2  A    between atoms: C_2  and  O_3
REMARK    3  A    between atoms: O_3  and  C_4
REMARK    4  A    between atoms: C_12  and  C_13
REMARK    5  A    between atoms: C_24  and  C_25
REMARK                            x       y       z     vdW  Elec       q    Type
REMARK                         _______ _______ _______ _____ _____    ______ ____
ROOT
ATOM      1  C   UNL     1       5.008   5.274  17.152  0.00  0.00    +0.000 A 
ATOM      2  C   UNL     1       4.665   4.600  15.949  0.00  0.00    +0.000 A 
ATOM      3  C   UNL     1       5.518   4.449  14.849  0.00  0.00    +0.000 A 
ATOM      4  N   UNL     1       5.174   3.647  13.828  0.00  0.00    +0.000 NA
ATOM      5  C   UNL     1       6.036   3.530  12.816  0.00  0.00    +0.000 A 
ATOM      6  N   UNL     1       5.739   2.620  11.823  0.00  0.00    +0.000 N 
ATOM      7  N   UNL     1       7.161   4.226  12.681  0.00  0.00    +0.000 NA
ATOM      8  C   UNL     1       7.492   5.025  13.700  0.00  0.00    +0.000 A 
ATOM      9  N   UNL     1       8.663   5.773  13.512  0.00  0.00    +0.000 N 
ATOM     10  C   UNL     1       6.721   5.138  14.860  0.00  0.00    +0.000 A 
ATOM     11  C   UNL     1       7.086   5.868  16.005  0.00  0.00    +0.000 A 
ATOM     12  C   UNL     1       6.294   5.865  17.171  0.00  0.00    +0.000 A 
ATOM     13  C   UNL     1       6.922   6.533  18.366  0.00  0.00    +0.000 C 
ATOM     14  H   UNL     1       4.747   2.443  11.805  0.00  0.00    +0.000 HD
ATOM     15  H   UNL     1       6.185   2.892  10.961  0.00  0.00    +0.000 HD
ATOM     16  H   UNL     1       9.064   5.483  12.626  0.00  0.00    +0.000 HD
ATOM     17  H   UNL     1       9.315   5.656  14.279  0.00  0.00    +0.000 HD
ENDROOT
BRANCH   1  26
ATOM     18  C   UNL     1       3.207   6.413  18.640  0.00  0.00    +0.000 A 
ATOM     19  C   UNL     1       2.405   6.417  19.790  0.00  0.00    +0.000 A 
ATOM     20  C   UNL     1       2.305   5.304  20.614  0.00  0.00    +0.000 A 
ATOM     21  C   UNL     1       3.011   4.168  20.239  0.00  0.00    +0.000 A 
ATOM     22  N   UNL     1       2.990   2.924  20.829  0.00  0.00    +0.000 N 
ATOM     23  C   UNL     1       3.812   2.070  20.157  0.00  0.00    +0.000 A 
ATOM     24  C   UNL     1       4.425   2.794  19.159  0.00  0.00    +0.000 A 
ATOM     25  C   UNL     1       3.882   4.126  19.142  0.00  0.00    +0.000 A 
ATOM     26  C   UNL     1       4.037   5.292  18.309  0.00  0.00    +0.000 A 
ATOM     27  H   UNL     1       2.417   2.678  21.626  0.00  0.00    +0.000 HD
BRANCH  18  28
ATOM     28  O   UNL     1       3.181   7.467  17.747  0.00  0.00    +0.000 OA
BRANCH  28  30
ATOM     29  C   UNL     1       2.163   9.641  17.945  0.00  0.00    +0.000 C 
ATOM     30  C   UNL     1       1.950   8.178  17.589  0.00  0.00    +0.000 C 
ENDBRANCH  28  30
ENDBRANCH  18  28
ENDBRANCH   1  26
TORSDOF 3
ENDMDL
MODEL 4
REMARK VINA RESULT:      -7.7      3.406      7.245
REMARK  Name = 
REMARK  5 active torsions:
REMARK  status: ('A' for Active; 'I' for Inactive)
REMARK    1  A    between atoms: C_1  and  C_2
REMARK    2  A    between atoms: C_2  and  O_3
REMARK    3  A    between atoms: O_3  and  C_4
REMARK    4  A    between atoms: C_12  and  C_13
REMARK    5  A    between atoms: C_24  and  C_25
REMARK                            x       y       z     vdW  Elec       q    Type
REMARK                         _______ _______ _______ _____ _____    ______ ____
ROOT
ATOM      1  C   UNL     1       2.489   6.584  18.876  0.00  0.00    +0.000 A 
ATOM      2  C   UNL     1       2.281   7.799  18.169  0.00  0.00    +0.000 A 
ATOM      3  C   UNL     1       1.767   8.973  18.734  0.00  0.00    +0.000 A 
ATOM      4  N   UNL     1       1.772  10.121  18.037  0.00  0.00    +0.000 NA
ATOM      5  C   UNL     1       1.284  11.209  18.636  0.00  0.00    +0.000 A 
ATOM      6  N   UNL     1       1.394  12.411  17.967  0.00  0.00    +0.000 N 
ATOM      7  N   UNL     1       0.694  11.232  19.827  0.00  0.00    +0.000 NA
ATOM      8  C   UNL     1       0.691  10.083  20.511  0.00  0.00    +0.000 A 
ATOM      9  N   UNL     1       0.029  10.129  21.745  0.00  0.00    +0.000 N 
ATOM     10  C   UNL     1       1.274   8.908  20.028  0.00  0.00    +0.000 A 
ATOM     11  C   UNL     1       1.403   7.713  20.756  0.00  0.00    +0.000 A 
ATOM     12  C   UNL     1       2.081   6.594  20.232  0.00  0.00    +0.000 A 
ATOM     13  C   UNL     1       2.301   5.469  21.209  0.00  0.00    +0.000 C 
ATOM     14  H   UNL     1       1.484  12.246  16.977  0.00  0.00    +0.000 HD
ATOM     15  H   UNL     1       0.671  13.044  18.276  0.00  0.00    +0.000 HD
ATOM     16  H   UNL     1      -0.263  11.091  21.892  0.00  0.00    +0.000 HD
ATOM     17  H   UNL     1       0.611   9.791  22.502  0.00  0.00    +0.000 HD
ENDROOT
BRANCH   1  26
ATOM     18  C   UNL     1       4.420   5.467  17.542  0.00  0.00    +0.000 A 
ATOM     19  C   UNL     1       4.927   4.378  16.818  0.00  0.00    +0.000 A 
ATOM     20  C   UNL     1       4.257   3.164  16.762  0.00  0.00    +0.000 A 
ATOM     21  C   UNL     1       3.071   3.056  17.479  0.00  0.00    +0.000 A 
ATOM     22  N   UNL     1       2.290   1.937  17.660  0.00  0.00    +0.000 N 
ATOM     23  C   UNL     1       1.213   2.236  18.438  0.00  0.00    +0.000 A 
ATOM     24  C   UNL     1       1.265   3.586  18.707  0.00  0.00    +0.000 A 
ATOM     25  C   UNL     1       2.481   4.128  18.162  0.00  0.00    +0.000 A 
ATOM     26  C   UNL     1       3.139   5.410  18.183  0.00  0.00    +0.000 A 
ATOM     27  H   UNL     1       2.509   1.020  17.294  0.00  0.00    +0.000 HD
BRANCH  18  28
ATOM     28  O   UNL     1       5.165   6.617  17.718  0.00  0.00    +0.000 OA
BRANCH  28  30
ATOM     29  C   UNL     1       7.482   7.274  17.685  0.00  0.00    +0.000 C 
ATOM     30  C   UNL     1       6.288   6.825  16.857  0.00  0.00    +0.000 C 
ENDBRANCH  28  30
ENDBRANCH  18  28
ENDBRANCH   1  26
TORSDOF 3
ENDMDL
MODEL 5
REMARK VINA RESULT:      -7.7      3.901      6.725
REMARK  Name = 
REMARK  5 active torsions:
REMARK  status: ('A' for Active; 'I' for Inactive)
REMARK    1  A    between atoms: C_1  and  C_2
REMARK    2  A    between atoms: C_2  and  O_3
REMARK    3  A    between atoms: O_3  and  C_4
REMARK    4  A    between atoms: C_12  and  C_13
REMARK    5  A    between atoms: C_24  and  C_25
REMARK                            x       y       z     vdW  Elec       q    Type
REMARK                         _______ _______ _______ _____ _____    ______ ____
ROOT
ATOM      1  C   UNL     1       3.061   6.380  18.825  0.00  0.00    +0.000 A 
ATOM      2  C   UNL     1       2.226   7.011  19.787  0.00  0.00    +0.000 A 
ATOM      3  C   UNL     1       1.703   8.303  19.665  0.00  0.00    +0.000 A 
ATOM      4  N   UNL     1       0.783   8.749  20.536  0.00  0.00    +0.000 NA
ATOM      5  C   UNL     1       0.309   9.983  20.356  0.00  0.00    +0.000 A 
ATOM      6  N   UNL     1      -0.718  10.401  21.177  0.00  0.00    +0.000 N 
ATOM      7  N   UNL     1       0.748  10.851  19.450  0.00  0.00    +0.000 NA
ATOM      8  C   UNL     1       1.667  10.399  18.590  0.00  0.00    +0.000 A 
ATOM      9  N   UNL     1       2.138  11.347  17.672  0.00  0.00    +0.000 N 
ATOM     10  C   UNL     1       2.152   9.089  18.615  0.00  0.00    +0.000 A 
ATOM     11  C   UNL     1       3.024   8.533  17.662  0.00  0.00    +0.000 A 
ATOM     12  C   UNL     1       3.403   7.176  17.705  0.00  0.00    +0.000 A 
ATOM     13  C   UNL     1       4.177   6.694  16.506  0.00  0.00    +0.000 C 
ATOM     14  H   UNL     1      -0.713   9.865  22.032  0.00  0.00    +0.000 HD
ATOM     15  H   UNL     1      -0.713  11.407  21.252  0.00  0.00    +0.000 HD
ATOM     16  H   UNL     1       1.605  12.199  17.821  0.00  0.00    +0.000 HD
ATOM     17  H   UNL     1       2.067  11.019  16.716  0.00  0.00    +0.000 HD
ENDROOT
BRANCH   1  26
ATOM     18  C   UNL     1       4.826   4.548  19.354  0.00  0.00    +0.000 A 
ATOM     19  C   UNL     1       5.195   3.197  19.418  0.00  0.00    +0.000 A 
ATOM     20  C   UNL     1       4.266   2.178  19.253  0.00  0.00    +0.000 A 
ATOM     21  C   UNL     1       2.942   2.549  19.050  0.00  0.00    +0.000 A 
ATOM     22  N   UNL     1       1.837   1.733  18.963  0.00  0.00    +0.000 N 
ATOM     23  C   UNL     1       0.714   2.479  18.773  0.00  0.00    +0.000 A 
ATOM     24  C   UNL     1       1.110   3.794  18.667  0.00  0.00    +0.000 A 
ATOM     25  C   UNL     1       2.526   3.880  18.908  0.00  0.00    +0.000 A 
ATOM     26  C   UNL     1       3.489   4.946  19.023  0.00  0.00    +0.000 A 
ATOM     27  H   UNL     1       1.860   0.726  19.063  0.00  0.00    +0.000 HD
BRANCH  18  28
ATOM     28  O   UNL     1       5.724   5.549  19.671  0.00  0.00    +0.000 OA
BRANCH  28  30
ATOM     29  C   UNL     1       7.438   6.462  18.246  0.00  0.00    +0.000 C 
ATOM     30  C   UNL     1       7.083   5.384  19.258  0.00  0.00    +0.000 C 
ENDBRANCH  28  30
ENDBRANCH  18  28
ENDBRANCH   1  26
TORSDOF 3
ENDMDL
MODEL 6
REMARK VINA RESULT:      -7.6      3.982      7.370
REMARK  Name = 
REMARK  5 active torsions:
REMARK  status: ('A' for Active; 'I' for Inactive)
REMARK    1  A    between atoms: C_1  and  C_2
REMARK    2  A    between atoms: C_2  and  O_3
REMARK    3  A    between atoms: O_3  and  C_4
REMARK    4  A    between atoms: C_12  and  C_13
REMARK    5  A    between atoms: C_24  and  C_25
REMARK                            x       y       z     vdW  Elec       q    Type
REMARK                         _______ _______ _______ _____ _____    ______ ____
ROOT
ATOM      1  C   UNL     1       2.606   6.347  19.405  0.00  0.00    +0.000 A 
ATOM      2  C   UNL     1       1.946   6.719  20.608  0.00  0.00    +0.000 A 
ATOM      3  C   UNL     1       1.318   7.951  20.826  0.00  0.00    +0.000 A 
ATOM      4  N   UNL     1       0.569   8.148  21.923  0.00  0.00    +0.000 NA
ATOM      5  C   UNL     1      -0.018   9.337  22.066  0.00  0.00    +0.000 A 
ATOM      6  N   UNL     1      -0.879   9.502  23.131  0.00  0.00    +0.000 N 
ATOM      7  N   UNL     1       0.163  10.385  21.267  0.00  0.00    +0.000 NA
ATOM      8  C   UNL     1       0.914  10.180  20.181  0.00  0.00    +0.000 A 
ATOM      9  N   UNL     1       1.118  11.312  19.378  0.00  0.00    +0.000 N 
ATOM     10  C   UNL     1       1.485   8.943  19.872  0.00  0.00    +0.000 A 
ATOM     11  C   UNL     1       2.178   8.647  18.685  0.00  0.00    +0.000 A 
ATOM     12  C   UNL     1       2.652   7.349  18.406  0.00  0.00    +0.000 A 
ATOM     13  C   UNL     1       3.195   7.157  17.013  0.00  0.00    +0.000 C 
ATOM     14  H   UNL     1      -0.661   8.837  23.856  0.00  0.00    +0.000 HD
ATOM     15  H   UNL     1      -0.929  10.477  23.385  0.00  0.00    +0.000 HD
ATOM     16  H   UNL     1       0.569  12.066  19.780  0.00  0.00    +0.000 HD
ATOM     17  H   UNL     1       0.874  11.140  18.410  0.00  0.00    +0.000 HD
ENDROOT
BRANCH   1  26
ATOM     18  C   UNL     1       4.566   4.645  19.286  0.00  0.00    +0.000 A 
ATOM     19  C   UNL     1       5.038   3.350  19.028  0.00  0.00    +0.000 A 
ATOM     20  C   UNL     1       4.171   2.286  18.817  0.00  0.00    +0.000 A 
ATOM     21  C   UNL     1       2.808   2.547  18.899  0.00  0.00    +0.000 A 
ATOM     22  N   UNL     1       1.767   1.648  18.830  0.00  0.00    +0.000 N 
ATOM     23  C   UNL     1       0.577   2.295  18.967  0.00  0.00    +0.000 A 
ATOM     24  C   UNL     1       0.852   3.642  19.057  0.00  0.00    +0.000 A 
ATOM     25  C   UNL     1       2.277   3.831  19.084  0.00  0.00    +0.000 A 
ATOM     26  C   UNL     1       3.166   4.954  19.252  0.00  0.00    +0.000 A 
ATOM     27  H   UNL     1       1.881   0.648  18.728  0.00  0.00    +0.000 HD
BRANCH  18  28
ATOM     28  O   UNL     1       5.429   5.661  19.647  0.00  0.00    +0.000 OA
BRANCH  28  30
ATOM     29  C   UNL     1       6.931   6.328  17.886  0.00  0.00    +0.000 C 
ATOM     30  C   UNL     1       6.785   5.577  19.200  0.00  0.00    +0.000 C 
ENDBRANCH  28  30
ENDBRANCH  18  28
ENDBRANCH   1  26
TORSDOF 3
ENDMDL
MODEL 7
REMARK VINA RESULT:      -7.1      4.367      7.280
REMARK  Name = 
REMARK  5 active torsions:
REMARK  status: ('A' for Active; 'I' for Inactive)
REMARK    1  A    between atoms: C_1  and  C_2
REMARK    2  A    between atoms: C_2  and  O_3
REMARK    3  A    between atoms: O_3  and  C_4
REMARK    4  A    between atoms: C_12  and  C_13
REMARK    5  A    between atoms: C_24  and  C_25
REMARK                            x       y       z     vdW  Elec       q    Type
REMARK                         _______ _______ _______ _____ _____    ______ ____
ROOT
ATOM      1  C   UNL     1       2.693   6.831  19.317  0.00  0.00    +0.000 A 
ATOM      2  C   UNL     1       1.998   7.429  20.404  0.00  0.00    +0.000 A 
ATOM      3  C   UNL     1       1.351   8.668  20.351  0.00  0.00    +0.000 A 
ATOM      4  N   UNL     1       0.572   9.072  21.368  0.00  0.00    +0.000 NA
ATOM      5  C   UNL     1      -0.033  10.256  21.251  0.00  0.00    +0.000 A 
ATOM      6  N   UNL     1      -0.923  10.620  22.240  0.00  0.00    +0.000 N 
ATOM      7  N   UNL     1       0.156  11.121  20.260  0.00  0.00    +0.000 NA
ATOM      8  C   UNL     1       0.936  10.712  19.254  0.00  0.00    +0.000 A 
ATOM      9  N   UNL     1       1.146  11.659  18.242  0.00  0.00    +0.000 N 
ATOM     10  C   UNL     1       1.530   9.447  19.218  0.00  0.00    +0.000 A 
ATOM     11  C   UNL     1       2.256   8.927  18.132  0.00  0.00    +0.000 A 
ATOM     12  C   UNL     1       2.752   7.608  18.135  0.00  0.00    +0.000 A 
ATOM     13  C   UNL     1       3.332   7.145  16.824  0.00  0.00    +0.000 C 
ATOM     14  H   UNL     1      -0.715  10.120  23.091  0.00  0.00    +0.000 HD
ATOM     15  H   UNL     1      -0.992  11.625  22.289  0.00  0.00    +0.000 HD
ATOM     16  H   UNL     1       0.578  12.469  18.469  0.00  0.00    +0.000 HD
ATOM     17  H   UNL     1       0.929  11.289  17.325  0.00  0.00    +0.000 HD
ENDROOT
BRANCH   1  26
ATOM     18  C   UNL     1       4.643   5.118  19.195  0.00  0.00    +0.000 A 
ATOM     19  C   UNL     1       5.104   3.794  19.241  0.00  0.00    +0.000 A 
ATOM     20  C   UNL     1       4.281   2.749  19.638  0.00  0.00    +0.000 A 
ATOM     21  C   UNL     1       2.983   3.067  20.018  0.00  0.00    +0.000 A 
ATOM     22  N   UNL     1       2.023   2.230  20.541  0.00  0.00    +0.000 N 
ATOM     23  C   UNL     1       0.881   2.925  20.797  0.00  0.00    +0.000 A 
ATOM     24  C   UNL     1       1.084   4.219  20.369  0.00  0.00    +0.000 A 
ATOM     25  C   UNL     1       2.446   4.359  19.927  0.00  0.00    +0.000 A 
ATOM     26  C   UNL     1       3.273   5.445  19.464  0.00  0.00    +0.000 A 
ATOM     27  H   UNL     1       2.165   1.248  20.736  0.00  0.00    +0.000 HD
BRANCH  18  28
ATOM     28  O   UNL     1       5.508   6.166  18.948  0.00  0.00    +0.000 OA
BRANCH  28  30
ATOM     29  C   UNL     1       7.390   6.928  17.653  0.00  0.00    +0.000 C 
ATOM     30  C   UNL     1       6.854   5.852  18.584  0.00  0.00    +0.000 C 
ENDBRANCH  28  30
ENDBRANCH  18  28
ENDBRANCH   1  26
TORSDOF 3
ENDMDL
MODEL 8
REMARK VINA RESULT:      -7.1      4.204      7.596
REMARK  Name = 
REMARK  5 active torsions:
REMARK  status: ('A' for Active; 'I' for Inactive)
REMARK    1  A    between atoms: C_1  and  C_2
REMARK    2  A    between atoms: C_2  and  O_3
REMARK    3  A    between atoms: O_3  and  C_4
REMARK    4  A    between atoms: C_12  and  C_13
REMARK    5  A    between atoms: C_24  and  C_25
REMARK                            x       y       z     vdW  Elec       q    Type
REMARK                         _______ _______ _______ _____ _____    ______ ____
ROOT
ATOM      1  C   UNL     1       0.818   9.522  19.504  0.00  0.00    +0.000 A 
ATOM      2  C   UNL     1       1.805   9.227  18.525  0.00  0.00    +0.000 A 
ATOM      3  C   UNL     1       2.550   8.043  18.476  0.00  0.00    +0.000 A 
ATOM      4  N   UNL     1       3.331   7.775  17.416  0.00  0.00    +0.000 NA
ATOM      5  C   UNL     1       4.003   6.623  17.419  0.00  0.00    +0.000 A 
ATOM      6  N   UNL     1       4.714   6.293  16.283  0.00  0.00    +0.000 N 
ATOM      7  N   UNL     1       4.050   5.763  18.432  0.00  0.00    +0.000 NA
ATOM      8  C   UNL     1       3.273   6.040  19.483  0.00  0.00    +0.000 A 
ATOM      9  N   UNL     1       3.372   5.136  20.550  0.00  0.00    +0.000 N 
ATOM     10  C   UNL     1       2.441   7.162  19.540  0.00  0.00    +0.000 A 
ATOM     11  C   UNL     1       1.518   7.432  20.566  0.00  0.00    +0.000 A 
ATOM     12  C   UNL     1       0.651   8.541  20.511  0.00  0.00    +0.000 A 
ATOM     13  C   UNL     1      -0.405   8.575  21.586  0.00  0.00    +0.000 C 
ATOM     14  H   UNL     1       4.931   7.127  15.760  0.00  0.00    +0.000 HD
ATOM     15  H   UNL     1       5.473   5.674  16.520  0.00  0.00    +0.000 HD
ATOM     16  H   UNL     1       3.995   4.391  20.253  0.00  0.00    +0.000 HD
ATOM     17  H   UNL     1       2.466   4.782  20.834  0.00  0.00    +0.000 HD
ENDROOT
BRANCH   1  26
ATOM     18  C   UNL     1       0.294  11.985  20.150  0.00  0.00    +0.000 A 
ATOM     19  C   UNL     1      -0.553  13.101  20.099  0.00  0.00    +0.000 A 
ATOM     20  C   UNL     1      -1.655  13.144  19.256  0.00  0.00    +0.000 A 
ATOM     21  C   UNL     1      -1.874  12.043  18.436  0.00  0.00    +0.000 A 
ATOM     22  N   UNL     1      -2.827  11.893  17.454  0.00  0.00    +0.000 N 
ATOM     23  C   UNL     1      -2.708  10.672  16.864  0.00  0.00    +0.000 A 
ATOM     24  C   UNL     1      -1.705   9.996  17.523  0.00  0.00    +0.000 A 
ATOM     25  C   UNL     1      -1.104  10.873  18.492  0.00  0.00    +0.000 A 
ATOM     26  C   UNL     1       0.011  10.794  19.402  0.00  0.00    +0.000 A 
ATOM     27  H   UNL     1      -3.494  12.607  17.191  0.00  0.00    +0.000 HD
BRANCH  18  28
ATOM     28  O   UNL     1       1.469  12.012  20.874  0.00  0.00    +0.000 OA
BRANCH  28  30
ATOM     29  C   UNL     1       2.703  13.347  19.294  0.00  0.00    +0.000 C 
ATOM     30  C   UNL     1       2.305  13.167  20.750  0.00  0.00    +0.000 C 
ENDBRANCH  28  30
ENDBRANCH  18  28
ENDBRANCH   1  26
TORSDOF 3
ENDMDL
MODEL 9
REMARK VINA RESULT:      -6.9      3.330      7.340
REMARK  Name = 
REMARK  5 active torsions:
REMARK  status: ('A' for Active; 'I' for Inactive)
REMARK    1  A    between atoms: C_1  and  C_2
REMARK    2  A    between atoms: C_2  and  O_3
REMARK    3  A    between atoms: O_3  and  C_4
REMARK    4  A    between atoms: C_12  and  C_13
REMARK    5  A    between atoms: C_24  and  C_25
REMARK                            x       y       z     vdW  Elec       q    Type
REMARK                         _______ _______ _______ _____ _____    ______ ____
ROOT
ATOM      1  C   UNL     1       2.678   6.660  19.297  0.00  0.00    +0.000 A 
ATOM      2  C   UNL     1       2.070   6.971  20.544  0.00  0.00    +0.000 A 
ATOM      3  C   UNL     1       1.341   8.136  20.808  0.00  0.00    +0.000 A 
ATOM      4  N   UNL     1       0.655   8.263  21.956  0.00  0.00    +0.000 NA
ATOM      5  C   UNL     1      -0.035   9.390  22.142  0.00  0.00    +0.000 A 
ATOM      6  N   UNL     1      -0.831   9.475  23.265  0.00  0.00    +0.000 N 
ATOM      7  N   UNL     1      -0.015  10.446  21.334  0.00  0.00    +0.000 NA
ATOM      8  C   UNL     1       0.674  10.311  20.197  0.00  0.00    +0.000 A 
ATOM      9  N   UNL     1       0.708  11.453  19.384  0.00  0.00    +0.000 N 
ATOM     10  C   UNL     1       1.342   9.135  19.846  0.00  0.00    +0.000 A 
ATOM     11  C   UNL     1       1.975   8.902  18.613  0.00  0.00    +0.000 A 
ATOM     12  C   UNL     1       2.554   7.656  18.299  0.00  0.00    +0.000 A 
ATOM     13  C   UNL     1       3.014   7.512  16.871  0.00  0.00    +0.000 C 
ATOM     14  H   UNL     1      -0.498   8.838  23.972  0.00  0.00    +0.000 HD
ATOM     15  H   UNL     1      -0.960  10.441  23.524  0.00  0.00    +0.000 HD
ATOM     16  H   UNL     1       0.117  12.151  19.825  0.00  0.00    +0.000 HD
ATOM     17  H   UNL     1       0.415  11.253  18.436  0.00  0.00    +0.000 HD
ENDROOT
BRANCH   1  26
ATOM     18  C   UNL     1       2.677   4.067  19.122  0.00  0.00    +0.000 A 
ATOM     19  C   UNL     1       3.375   2.853  19.045  0.00  0.00    +0.000 A 
ATOM     20  C   UNL     1       4.750   2.813  18.855  0.00  0.00    +0.000 A 
ATOM     21  C   UNL     1       5.410   4.028  18.714  0.00  0.00    +0.000 A 
ATOM     22  N   UNL     1       6.738   4.241  18.417  0.00  0.00    +0.000 N 
ATOM     23  C   UNL     1       6.997   5.576  18.351  0.00  0.00    +0.000 A 
ATOM     24  C   UNL     1       5.832   6.235  18.679  0.00  0.00    +0.000 A 
ATOM     25  C   UNL     1       4.779   5.272  18.850  0.00  0.00    +0.000 A 
ATOM     26  C   UNL     1       3.360   5.328  19.102  0.00  0.00    +0.000 A 
ATOM     27  H   UNL     1       7.410   3.506  18.240  0.00  0.00    +0.000 HD
BRANCH  18  28
ATOM     28  O   UNL     1       1.297   4.096  19.156  0.00  0.00    +0.000 OA
BRANCH  28  30
ATOM     29  C   UNL     1       1.236   3.095  21.346  0.00  0.00    +0.000 C 
ATOM     30  C   UNL     1       0.627   3.115  19.953  0.00  0.00    +0.000 C 
ENDBRANCH  28  30
ENDBRANCH  18  28
ENDBRANCH   1  26
TORSDOF 3
ENDMDL
