MODEL 1
REMARK VINA RESULT:      -8.5      0.000      0.000
REMARK  Name = 
REMARK  5 active torsions:
REMARK  status: ('A' for Active; 'I' for Inactive)
REMARK    1  A    between atoms: C_1  and  S_2
REMARK    2  A    between atoms: S_2  and  C_3
REMARK    3  A    between atoms: C_14  and  C_15
REMARK    4  A    between atoms: N_17  and  C_18
REMARK    5  A    between atoms: C_22  and  C_23
REMARK                            x       y       z     vdW  Elec       q    Type
REMARK                         _______ _______ _______ _____ _____    ______ ____
ROOT
ATOM      1  C   UNL     1      -4.872  14.277  23.526  0.00  0.00    +0.000 A 
ATOM      2  N   UNL     1      -4.837  13.081  24.135  0.00  0.00    +0.000 NA
ATOM      3  C   UNL     1      -3.731  12.345  23.935  0.00  0.00    +0.000 A 
ATOM      4  C   UNL     1      -2.662  12.750  23.162  0.00  0.00    +0.000 A 
ATOM      5  C   UNL     1      -2.795  13.994  22.575  0.00  0.00    +0.000 A 
ATOM      6  N   UNL     1      -3.892  14.766  22.746  0.00  0.00    +0.000 NA
ATOM      7  C   UNL     1      -1.726  14.521  21.660  0.00  0.00    +0.000 C 
ATOM      8  C   UNL     1      -0.371  13.910  21.990  0.00  0.00    +0.000 C 
ATOM      9  N   UNL     1      -0.438  12.451  22.119  0.00  0.00    +0.000 N 
ATOM     10  C   UNL     1      -0.006  11.671  21.056  0.00  0.00    +0.000 A 
ATOM     11  C   UNL     1       0.444  10.369  21.288  0.00  0.00    +0.000 A 
ATOM     12  C   UNL     1       0.909   9.604  20.224  0.00  0.00    +0.000 A 
ATOM     13  C   UNL     1       0.927  10.150  18.945  0.00  0.00    +0.000 A 
ATOM     14  C   UNL     1       0.471  11.442  18.794  0.00  0.00    +0.000 A 
ATOM     15  N   UNL     1       0.014  12.200  19.815  0.00  0.00    +0.000 NA
ATOM     16  C   UNL     1      -1.452  11.884  23.002  0.00  0.00    +0.000 C 
ENDROOT
BRANCH  12  17
ATOM     17  C   UNL     1       1.485   8.247  20.409  0.00  0.00    +0.000 C 
ATOM     18  O   UNL     1       1.406   7.762  21.536  0.00  0.00    +0.000 OA
ATOM     19  N   UNL     1       2.115   7.675  19.312  0.00  0.00    +0.000 N 
ATOM     20  H   UNL     1       2.290   8.264  18.509  0.00  0.00    +0.000 HD
BRANCH  19  21
ATOM     21  C   UNL     1       2.723   6.394  19.300  0.00  0.00    +0.000 A 
ATOM     22  C   UNL     1       3.873   6.110  18.560  0.00  0.00    +0.000 A 
ATOM     23  C   UNL     1       4.416   4.824  18.534  0.00  0.00    +0.000 A 
ATOM     24  C   UNL     1       3.812   3.799  19.253  0.00  0.00    +0.000 A 
ATOM     25  C   UNL     1       2.668   4.055  20.022  0.00  0.00    +0.000 A 
ATOM     26  C   UNL     1       2.141   5.366  20.054  0.00  0.00    +0.000 A 
BRANCH  25  27
ATOM     27  C   UNL     1       1.997   2.939  20.783  0.00  0.00    +0.000 C 
ATOM     28  F   UNL     1       0.788   3.283  21.307  0.00  0.00    +0.000 F 
ATOM     29  F   UNL     1       1.770   1.842  20.009  0.00  0.00    +0.000 F 
ATOM     30  F   UNL     1       2.747   2.506  21.834  0.00  0.00    +0.000 F 
ENDBRANCH  25  27
ENDBRANCH  19  21
ENDBRANCH  12  17
BRANCH   1  32
ATOM     31  C   UNL     1      -7.523  13.959  24.101  0.00  0.00    +0.000 C 
ATOM     32  S   UNL     1      -6.315  15.270  23.804  0.00  0.00    +0.000 S 
ENDBRANCH   1  32
TORSDOF 4
ENDMDL
MODEL 2
REMARK VINA RESULT:      -8.4      4.130      5.330
REMARK  Name = 
REMARK  5 active torsions:
REMARK  status: ('A' for Active; 'I' for Inactive)
REMARK    1  A    between atoms: C_1  and  S_2
REMARK    2  A    between atoms: S_2  and  C_3
REMARK    3  A    between atoms: C_14  and  C_15
REMARK    4  A    between atoms: N_17  and  C_18
REMARK    5  A    between atoms: C_22  and  C_23
REMARK                            x       y       z     vdW  Elec       q    Type
REMARK                         _______ _______ _______ _____ _____    ______ ____
ROOT
ATOM      1  C   UNL     1       1.448  16.247  19.337  0.00  0.00    +0.000 A 
ATOM      2  N   UNL     1       2.474  15.693  18.672  0.00  0.00    +0.000 NA
ATOM      3  C   UNL     1       2.394  14.369  18.455  0.00  0.00    +0.000 A 
ATOM      4  C   UNL     1       1.339  13.580  18.867  0.00  0.00    +0.000 A 
ATOM      5  C   UNL     1       0.335  14.243  19.546  0.00  0.00    +0.000 A 
ATOM      6  N   UNL     1       0.377  15.573  19.790  0.00  0.00    +0.000 NA
ATOM      7  C   UNL     1      -0.838  13.485  20.101  0.00  0.00    +0.000 C 
ATOM      8  C   UNL     1      -1.087  12.206  19.311  0.00  0.00    +0.000 C 
ATOM      9  N   UNL     1       0.140  11.429  19.114  0.00  0.00    +0.000 N 
ATOM     10  C   UNL     1       0.364  10.327  19.927  0.00  0.00    +0.000 A 
ATOM     11  C   UNL     1       1.181   9.287  19.476  0.00  0.00    +0.000 A 
ATOM     12  C   UNL     1       1.373   8.168  20.280  0.00  0.00    +0.000 A 
ATOM     13  C   UNL     1       0.743   8.099  21.517  0.00  0.00    +0.000 A 
ATOM     14  C   UNL     1      -0.050   9.162  21.893  0.00  0.00    +0.000 A 
ATOM     15  N   UNL     1      -0.248  10.257  21.127  0.00  0.00    +0.000 NA
ATOM     16  C   UNL     1       1.309  12.113  18.570  0.00  0.00    +0.000 C 
ENDROOT
BRANCH  12  17
ATOM     17  C   UNL     1       2.154   6.987  19.829  0.00  0.00    +0.000 C 
ATOM     18  O   UNL     1       2.345   6.101  20.660  0.00  0.00    +0.000 OA
ATOM     19  N   UNL     1       2.650   7.017  18.533  0.00  0.00    +0.000 N 
ATOM     20  H   UNL     1       2.596   7.891  18.028  0.00  0.00    +0.000 HD
BRANCH  19  21
ATOM     21  C   UNL     1       3.416   5.987  17.931  0.00  0.00    +0.000 A 
ATOM     22  C   UNL     1       2.889   4.729  17.631  0.00  0.00    +0.000 A 
ATOM     23  C   UNL     1       3.687   3.724  17.082  0.00  0.00    +0.000 A 
ATOM     24  C   UNL     1       5.031   3.966  16.824  0.00  0.00    +0.000 A 
ATOM     25  C   UNL     1       5.587   5.224  17.095  0.00  0.00    +0.000 A 
ATOM     26  C   UNL     1       4.763   6.238  17.633  0.00  0.00    +0.000 A 
BRANCH  25  27
ATOM     27  C   UNL     1       7.051   5.480  16.839  0.00  0.00    +0.000 C 
ATOM     28  F   UNL     1       7.497   6.664  17.344  0.00  0.00    +0.000 F 
ATOM     29  F   UNL     1       7.852   4.520  17.379  0.00  0.00    +0.000 F 
ATOM     30  F   UNL     1       7.347   5.509  15.510  0.00  0.00    +0.000 F 
ENDBRANCH  25  27
ENDBRANCH  19  21
ENDBRANCH  12  17
BRANCH   1  32
ATOM     31  C   UNL     1       0.928  18.063  21.310  0.00  0.00    +0.000 C 
ATOM     32  S   UNL     1       1.528  17.998  19.607  0.00  0.00    +0.000 S 
ENDBRANCH   1  32
TORSDOF 4
ENDMDL
MODEL 3
REMARK VINA RESULT:      -8.4      4.600      5.964
REMARK  Name = 
REMARK  5 active torsions:
REMARK  status: ('A' for Active; 'I' for Inactive)
REMARK    1  A    between atoms: C_1  and  S_2
REMARK    2  A    between atoms: S_2  and  C_3
REMARK    3  A    between atoms: C_14  and  C_15
REMARK    4  A    between atoms: N_17  and  C_18
REMARK    5  A    between atoms: C_22  and  C_23
REMARK                            x       y       z     vdW  Elec       q    Type
REMARK                         _______ _______ _______ _____ _____    ______ ____
ROOT
ATOM      1  C   UNL     1       1.301  15.491  18.997  0.00  0.00    +0.000 A 
ATOM      2  N   UNL     1       2.428  15.119  18.371  0.00  0.00    +0.000 NA
ATOM      3  C   UNL     1       2.549  13.810  18.092  0.00  0.00    +0.000 A 
ATOM      4  C   UNL     1       1.596  12.862  18.405  0.00  0.00    +0.000 A 
ATOM      5  C   UNL     1       0.474  13.343  19.052  0.00  0.00    +0.000 A 
ATOM      6  N   UNL     1       0.313  14.652  19.355  0.00  0.00    +0.000 NA
ATOM      7  C   UNL     1      -0.607  12.402  19.502  0.00  0.00    +0.000 C 
ATOM      8  C   UNL     1      -0.630  11.143  18.644  0.00  0.00    +0.000 C 
ATOM      9  N   UNL     1       0.703  10.555  18.487  0.00  0.00    +0.000 N 
ATOM     10  C   UNL     1       1.038   9.455  19.263  0.00  0.00    +0.000 A 
ATOM     11  C   UNL     1       2.017   8.563  18.818  0.00  0.00    +0.000 A 
ATOM     12  C   UNL     1       2.323   7.442  19.582  0.00  0.00    +0.000 A 
ATOM     13  C   UNL     1       1.644   7.223  20.775  0.00  0.00    +0.000 A 
ATOM     14  C   UNL     1       0.689   8.144  21.149  0.00  0.00    +0.000 A 
ATOM     15  N   UNL     1       0.379   9.239  20.421  0.00  0.00    +0.000 NA
ATOM     16  C   UNL     1       1.791  11.423  18.044  0.00  0.00    +0.000 C 
ENDROOT
BRANCH  12  17
ATOM     17  C   UNL     1       3.286   6.406  19.128  0.00  0.00    +0.000 C 
ATOM     18  O   UNL     1       3.146   5.278  19.597  0.00  0.00    +0.000 OA
ATOM     19  N   UNL     1       4.294   6.817  18.266  0.00  0.00    +0.000 N 
ATOM     20  H   UNL     1       4.416   7.811  18.124  0.00  0.00    +0.000 HD
BRANCH  19  21
ATOM     21  C   UNL     1       5.301   5.975  17.732  0.00  0.00    +0.000 A 
ATOM     22  C   UNL     1       6.399   5.541  18.479  0.00  0.00    +0.000 A 
ATOM     23  C   UNL     1       7.396   4.752  17.904  0.00  0.00    +0.000 A 
ATOM     24  C   UNL     1       7.308   4.382  16.567  0.00  0.00    +0.000 A 
ATOM     25  C   UNL     1       6.209   4.784  15.795  0.00  0.00    +0.000 A 
ATOM     26  C   UNL     1       5.197   5.567  16.395  0.00  0.00    +0.000 A 
BRANCH  25  27
ATOM     27  C   UNL     1       6.123   4.404  14.338  0.00  0.00    +0.000 C 
ATOM     28  F   UNL     1       6.992   5.087  13.542  0.00  0.00    +0.000 F 
ATOM     29  F   UNL     1       6.383   3.084  14.126  0.00  0.00    +0.000 F 
ATOM     30  F   UNL     1       4.886   4.629  13.816  0.00  0.00    +0.000 F 
ENDBRANCH  25  27
ENDBRANCH  19  21
ENDBRANCH  12  17
BRANCH   1  32
ATOM     31  C   UNL     1       1.338  17.883  17.679  0.00  0.00    +0.000 C 
ATOM     32  S   UNL     1       1.117  17.220  19.346  0.00  0.00    +0.000 S 
ENDBRANCH   1  32
TORSDOF 4
ENDMDL
MODEL 4
REMARK VINA RESULT:      -8.3      3.681      4.717
REMARK  Name = 
REMARK  5 active torsions:
REMARK  status: ('A' for Active; 'I' for Inactive)
REMARK    1  A    between atoms: C_1  and  S_2
REMARK    2  A    between atoms: S_2  and  C_3
REMARK    3  A    between atoms: C_14  and  C_15
REMARK    4  A    between atoms: N_17  and  C_18
REMARK    5  A    between atoms: C_22  and  C_23
REMARK                            x       y       z     vdW  Elec       q    Type
REMARK                         _______ _______ _______ _____ _____    ______ ____
ROOT
ATOM      1  C   UNL     1      -0.440  16.740  20.025  0.00  0.00    +0.000 A 
ATOM      2  N   UNL     1       0.350  16.552  18.957  0.00  0.00    +0.000 NA
ATOM      3  C   UNL     1       0.465  15.287  18.519  0.00  0.00    +0.000 A 
ATOM      4  C   UNL     1      -0.175  14.208  19.096  0.00  0.00    +0.000 A 
ATOM      5  C   UNL     1      -0.962  14.505  20.192  0.00  0.00    +0.000 A 
ATOM      6  N   UNL     1      -1.102  15.763  20.668  0.00  0.00    +0.000 NA
ATOM      7  C   UNL     1      -1.661  13.409  20.946  0.00  0.00    +0.000 C 
ATOM      8  C   UNL     1      -1.924  12.207  20.047  0.00  0.00    +0.000 C 
ATOM      9  N   UNL     1      -0.730  11.805  19.297  0.00  0.00    +0.000 N 
ATOM     10  C   UNL     1       0.000  10.715  19.749  0.00  0.00    +0.000 A 
ATOM     11  C   UNL     1       0.781   9.983  18.851  0.00  0.00    +0.000 A 
ATOM     12  C   UNL     1       1.483   8.870  19.302  0.00  0.00    +0.000 A 
ATOM     13  C   UNL     1       1.392   8.500  20.639  0.00  0.00    +0.000 A 
ATOM     14  C   UNL     1       0.600   9.269  21.465  0.00  0.00    +0.000 A 
ATOM     15  N   UNL     1      -0.088  10.353  21.045  0.00  0.00    +0.000 NA
ATOM     16  C   UNL     1      -0.016  12.828  18.539  0.00  0.00    +0.000 C 
ENDROOT
BRANCH  12  17
ATOM     17  C   UNL     1       2.260   7.993  18.388  0.00  0.00    +0.000 C 
ATOM     18  O   UNL     1       2.504   8.439  17.269  0.00  0.00    +0.000 OA
ATOM     19  N   UNL     1       2.585   6.727  18.855  0.00  0.00    +0.000 N 
ATOM     20  H   UNL     1       2.147   6.414  19.711  0.00  0.00    +0.000 HD
BRANCH  19  21
ATOM     21  C   UNL     1       3.316   5.754  18.128  0.00  0.00    +0.000 A 
ATOM     22  C   UNL     1       2.751   4.553  17.693  0.00  0.00    +0.000 A 
ATOM     23  C   UNL     1       3.516   3.598  17.021  0.00  0.00    +0.000 A 
ATOM     24  C   UNL     1       4.863   3.833  16.773  0.00  0.00    +0.000 A 
ATOM     25  C   UNL     1       5.456   5.036  17.179  0.00  0.00    +0.000 A 
ATOM     26  C   UNL     1       4.666   6.002  17.841  0.00  0.00    +0.000 A 
BRANCH  25  27
ATOM     27  C   UNL     1       6.924   5.283  16.933  0.00  0.00    +0.000 C 
ATOM     28  F   UNL     1       7.375   4.771  15.755  0.00  0.00    +0.000 F 
ATOM     29  F   UNL     1       7.232   6.608  16.906  0.00  0.00    +0.000 F 
ATOM     30  F   UNL     1       7.710   4.735  17.901  0.00  0.00    +0.000 F 
ENDBRANCH  25  27
ENDBRANCH  19  21
ENDBRANCH  12  17
BRANCH   1  32
ATOM     31  C   UNL     1      -2.278  18.300  21.309  0.00  0.00    +0.000 C 
ATOM     32  S   UNL     1      -0.621  18.410  20.596  0.00  0.00    +0.000 S 
ENDBRANCH   1  32
TORSDOF 4
ENDMDL
MODEL 5
REMARK VINA RESULT:      -8.2      0.766      1.119
REMARK  Name = 
REMARK  5 active torsions:
REMARK  status: ('A' for Active; 'I' for Inactive)
REMARK    1  A    between atoms: C_1  and  S_2
REMARK    2  A    between atoms: S_2  and  C_3
REMARK    3  A    between atoms: C_14  and  C_15
REMARK    4  A    between atoms: N_17  and  C_18
REMARK    5  A    between atoms: C_22  and  C_23
REMARK                            x       y       z     vdW  Elec       q    Type
REMARK                         _______ _______ _______ _____ _____    ______ ____
ROOT
ATOM      1  C   UNL     1      -4.412  14.568  23.006  0.00  0.00    +0.000 A 
ATOM      2  N   UNL     1      -4.561  13.353  23.555  0.00  0.00    +0.000 NA
ATOM      3  C   UNL     1      -3.525  12.508  23.418  0.00  0.00    +0.000 A 
ATOM      4  C   UNL     1      -2.351  12.823  22.763  0.00  0.00    +0.000 A 
ATOM      5  C   UNL     1      -2.297  14.096  22.229  0.00  0.00    +0.000 A 
ATOM      6  N   UNL     1      -3.317  14.977  22.340  0.00  0.00    +0.000 NA
ATOM      7  C   UNL     1      -1.098  14.539  21.439  0.00  0.00    +0.000 C 
ATOM      8  C   UNL     1       0.149  13.770  21.857  0.00  0.00    +0.000 C 
ATOM      9  N   UNL     1      -0.084  12.323  21.908  0.00  0.00    +0.000 N 
ATOM     10  C   UNL     1       0.361  11.543  20.850  0.00  0.00    +0.000 A 
ATOM     11  C   UNL     1       0.646  10.191  21.056  0.00  0.00    +0.000 A 
ATOM     12  C   UNL     1       1.125   9.422  20.001  0.00  0.00    +0.000 A 
ATOM     13  C   UNL     1       1.320  10.013  18.758  0.00  0.00    +0.000 A 
ATOM     14  C   UNL     1       1.020  11.352  18.630  0.00  0.00    +0.000 A 
ATOM     15  N   UNL     1       0.552  12.115  19.643  0.00  0.00    +0.000 NA
ATOM     16  C   UNL     1      -1.230  11.836  22.669  0.00  0.00    +0.000 C 
ENDROOT
BRANCH  12  17
ATOM     17  C   UNL     1       1.534   8.004  20.169  0.00  0.00    +0.000 C 
ATOM     18  O   UNL     1       1.185   7.448  21.209  0.00  0.00    +0.000 OA
ATOM     19  N   UNL     1       2.325   7.453  19.170  0.00  0.00    +0.000 N 
ATOM     20  H   UNL     1       2.710   8.080  18.476  0.00  0.00    +0.000 HD
BRANCH  19  21
ATOM     21  C   UNL     1       2.813   6.122  19.159  0.00  0.00    +0.000 A 
ATOM     22  C   UNL     1       4.155   5.810  18.929  0.00  0.00    +0.000 A 
ATOM     23  C   UNL     1       4.589   4.485  18.878  0.00  0.00    +0.000 A 
ATOM     24  C   UNL     1       3.681   3.448  19.057  0.00  0.00    +0.000 A 
ATOM     25  C   UNL     1       2.331   3.727  19.309  0.00  0.00    +0.000 A 
ATOM     26  C   UNL     1       1.909   5.073  19.378  0.00  0.00    +0.000 A 
BRANCH  25  27
ATOM     27  C   UNL     1       1.340   2.602  19.480  0.00  0.00    +0.000 C 
ATOM     28  F   UNL     1       1.887   1.364  19.334  0.00  0.00    +0.000 F 
ATOM     29  F   UNL     1       0.752   2.607  20.708  0.00  0.00    +0.000 F 
ATOM     30  F   UNL     1       0.323   2.667  18.578  0.00  0.00    +0.000 F 
ENDBRANCH  25  27
ENDBRANCH  19  21
ENDBRANCH  12  17
BRANCH   1  32
ATOM     31  C   UNL     1      -7.007  14.567  23.858  0.00  0.00    +0.000 C 
ATOM     32  S   UNL     1      -5.761  15.702  23.204  0.00  0.00    +0.000 S 
ENDBRANCH   1  32
TORSDOF 4
ENDMDL
MODEL 6
REMARK VINA RESULT:      -8.1      1.339      1.437
REMARK  Name = 
REMARK  5 active torsions:
REMARK  status: ('A' for Active; 'I' for Inactive)
REMARK    1  A    between atoms: C_1  and  S_2
REMARK    2  A    between atoms: S_2  and  C_3
REMARK    3  A    between atoms: C_14  and  C_15
REMARK    4  A    between atoms: N_17  and  C_18
REMARK    5  A    between atoms: C_22  and  C_23
REMARK                            x       y       z     vdW  Elec       q    Type
REMARK                         _______ _______ _______ _____ _____    ______ ____
ROOT
ATOM      1  C   UNL     1      -4.267  14.042  23.248  0.00  0.00    +0.000 A 
ATOM      2  N   UNL     1      -4.249  12.859  23.881  0.00  0.00    +0.000 NA
ATOM      3  C   UNL     1      -3.174  12.084  23.659  0.00  0.00    +0.000 A 
ATOM      4  C   UNL     1      -2.119  12.438  22.842  0.00  0.00    +0.000 A 
ATOM      5  C   UNL     1      -2.234  13.673  22.233  0.00  0.00    +0.000 A 
ATOM      6  N   UNL     1      -3.300  14.483  22.424  0.00  0.00    +0.000 NA
ATOM      7  C   UNL     1      -1.182  14.147  21.270  0.00  0.00    +0.000 C 
ATOM      8  C   UNL     1       0.164  13.499  21.567  0.00  0.00    +0.000 C 
ATOM      9  N   UNL     1       0.056  12.046  21.730  0.00  0.00    +0.000 N 
ATOM     10  C   UNL     1       0.427  11.231  20.670  0.00  0.00    +0.000 A 
ATOM     11  C   UNL     1       0.843   9.920  20.915  0.00  0.00    +0.000 A 
ATOM     12  C   UNL     1       1.247   9.119  19.853  0.00  0.00    +0.000 A 
ATOM     13  C   UNL     1       1.238   9.638  18.563  0.00  0.00    +0.000 A 
ATOM     14  C   UNL     1       0.817  10.940  18.399  0.00  0.00    +0.000 A 
ATOM     15  N   UNL     1       0.420  11.733  19.418  0.00  0.00    +0.000 NA
ATOM     16  C   UNL     1      -0.944  11.530  22.660  0.00  0.00    +0.000 C 
ENDROOT
BRANCH  12  17
ATOM     17  C   UNL     1       1.786   7.748  20.048  0.00  0.00    +0.000 C 
ATOM     18  O   UNL     1       1.508   7.191  21.108  0.00  0.00    +0.000 OA
ATOM     19  N   UNL     1       2.605   7.244  19.046  0.00  0.00    +0.000 N 
ATOM     20  H   UNL     1       2.918   7.884  18.328  0.00  0.00    +0.000 HD
BRANCH  19  21
ATOM     21  C   UNL     1       3.210   5.963  19.058  0.00  0.00    +0.000 A 
ATOM     22  C   UNL     1       4.561   5.767  19.355  0.00  0.00    +0.000 A 
ATOM     23  C   UNL     1       5.133   4.495  19.310  0.00  0.00    +0.000 A 
ATOM     24  C   UNL     1       4.357   3.395  18.965  0.00  0.00    +0.000 A 
ATOM     25  C   UNL     1       2.995   3.554  18.680  0.00  0.00    +0.000 A 
ATOM     26  C   UNL     1       2.424   4.844  18.749  0.00  0.00    +0.000 A 
BRANCH  25  27
ATOM     27  C   UNL     1       2.156   2.364  18.282  0.00  0.00    +0.000 C 
ATOM     28  F   UNL     1       0.854   2.458  18.669  0.00  0.00    +0.000 F 
ATOM     29  F   UNL     1       2.132   2.171  16.934  0.00  0.00    +0.000 F 
ATOM     30  F   UNL     1       2.620   1.201  18.817  0.00  0.00    +0.000 F 
ENDBRANCH  25  27
ENDBRANCH  19  21
ENDBRANCH  12  17
BRANCH   1  32
ATOM     31  C   UNL     1      -5.823  15.856  21.925  0.00  0.00    +0.000 C 
ATOM     32  S   UNL     1      -5.667  15.087  23.553  0.00  0.00    +0.000 S 
ENDBRANCH   1  32
TORSDOF 4
ENDMDL
MODEL 7
REMARK VINA RESULT:      -7.9      2.064      2.562
REMARK  Name = 
REMARK  5 active torsions:
REMARK  status: ('A' for Active; 'I' for Inactive)
REMARK    1  A    between atoms: C_1  and  S_2
REMARK    2  A    between atoms: S_2  and  C_3
REMARK    3  A    between atoms: C_14  and  C_15
REMARK    4  A    between atoms: N_17  and  C_18
REMARK    5  A    between atoms: C_22  and  C_23
REMARK                            x       y       z     vdW  Elec       q    Type
REMARK                         _______ _______ _______ _____ _____    ______ ____
ROOT
ATOM      1  C   UNL     1      -4.554  14.305  23.489  0.00  0.00    +0.000 A 
ATOM      2  N   UNL     1      -4.608  13.066  24.001  0.00  0.00    +0.000 NA
ATOM      3  C   UNL     1      -3.539  12.284  23.777  0.00  0.00    +0.000 A 
ATOM      4  C   UNL     1      -2.422  12.684  23.072  0.00  0.00    +0.000 A 
ATOM      5  C   UNL     1      -2.464  13.975  22.582  0.00  0.00    +0.000 A 
ATOM      6  N   UNL     1      -3.522  14.795  22.780  0.00  0.00    +0.000 NA
ATOM      7  C   UNL     1      -1.336  14.508  21.744  0.00  0.00    +0.000 C 
ATOM      8  C   UNL     1      -0.030  13.793  22.066  0.00  0.00    +0.000 C 
ATOM      9  N   UNL     1      -0.184  12.336  22.076  0.00  0.00    +0.000 N 
ATOM     10  C   UNL     1       0.241  11.617  20.968  0.00  0.00    +0.000 A 
ATOM     11  C   UNL     1       0.607  10.276  21.109  0.00  0.00    +0.000 A 
ATOM     12  C   UNL     1       1.066   9.570  20.002  0.00  0.00    +0.000 A 
ATOM     13  C   UNL     1       1.159  10.212  18.773  0.00  0.00    +0.000 A 
ATOM     14  C   UNL     1       0.783  11.536  18.710  0.00  0.00    +0.000 A 
ATOM     15  N   UNL     1       0.333  12.238  19.774  0.00  0.00    +0.000 NA
ATOM     16  C   UNL     1      -1.258  11.762  22.880  0.00  0.00    +0.000 C 
ENDROOT
BRANCH  12  17
ATOM     17  C   UNL     1       1.557   8.171  20.096  0.00  0.00    +0.000 C 
ATOM     18  O   UNL     1       1.409   7.604  21.177  0.00  0.00    +0.000 OA
ATOM     19  N   UNL     1       2.194   7.650  18.978  0.00  0.00    +0.000 N 
ATOM     20  H   UNL     1       2.432   8.289  18.232  0.00  0.00    +0.000 HD
BRANCH  19  21
ATOM     21  C   UNL     1       2.730   6.341  18.883  0.00  0.00    +0.000 A 
ATOM     22  C   UNL     1       2.291   5.284  19.684  0.00  0.00    +0.000 A 
ATOM     23  C   UNL     1       2.876   4.020  19.594  0.00  0.00    +0.000 A 
ATOM     24  C   UNL     1       3.912   3.794  18.696  0.00  0.00    +0.000 A 
ATOM     25  C   UNL     1       4.362   4.828  17.863  0.00  0.00    +0.000 A 
ATOM     26  C   UNL     1       3.748   6.097  17.951  0.00  0.00    +0.000 A 
BRANCH  25  27
ATOM     27  C   UNL     1       5.503   4.591  16.905  0.00  0.00    +0.000 C 
ATOM     28  F   UNL     1       6.698   4.374  17.520  0.00  0.00    +0.000 F 
ATOM     29  F   UNL     1       5.295   3.511  16.103  0.00  0.00    +0.000 F 
ATOM     30  F   UNL     1       5.702   5.646  16.067  0.00  0.00    +0.000 F 
ENDBRANCH  25  27
ENDBRANCH  19  21
ENDBRANCH  12  17
BRANCH   1  32
ATOM     31  C   UNL     1      -5.104  16.728  24.624  0.00  0.00    +0.000 C 
ATOM     32  S   UNL     1      -5.947  15.357  23.801  0.00  0.00    +0.000 S 
ENDBRANCH   1  32
TORSDOF 4
ENDMDL
MODEL 8
REMARK VINA RESULT:      -7.9      3.551      4.744
REMARK  Name = 
REMARK  5 active torsions:
REMARK  status: ('A' for Active; 'I' for Inactive)
REMARK    1  A    between atoms: C_1  and  S_2
REMARK    2  A    between atoms: S_2  and  C_3
REMARK    3  A    between atoms: C_14  and  C_15
REMARK    4  A    between atoms: N_17  and  C_18
REMARK    5  A    between atoms: C_22  and  C_23
REMARK                            x       y       z     vdW  Elec       q    Type
REMARK                         _______ _______ _______ _____ _____    ______ ____
ROOT
ATOM      1  C   UNL     1       0.241  16.348  22.264  0.00  0.00    +0.000 A 
ATOM      2  N   UNL     1       1.058  16.317  21.200  0.00  0.00    +0.000 NA
ATOM      3  C   UNL     1       1.077  15.170  20.500  0.00  0.00    +0.000 A 
ATOM      4  C   UNL     1       0.317  14.060  20.811  0.00  0.00    +0.000 A 
ATOM      5  C   UNL     1      -0.488  14.191  21.926  0.00  0.00    +0.000 A 
ATOM      6  N   UNL     1      -0.535  15.325  22.662  0.00  0.00    +0.000 NA
ATOM      7  C   UNL     1      -1.317  13.032  22.406  0.00  0.00    +0.000 C 
ATOM      8  C   UNL     1      -1.646  12.083  21.261  0.00  0.00    +0.000 C 
ATOM      9  N   UNL     1      -0.461  11.737  20.470  0.00  0.00    +0.000 N 
ATOM     10  C   UNL     1       0.147  10.509  20.691  0.00  0.00    +0.000 A 
ATOM     11  C   UNL     1       0.897   9.913  19.675  0.00  0.00    +0.000 A 
ATOM     12  C   UNL     1       1.475   8.667  19.889  0.00  0.00    +0.000 A 
ATOM     13  C   UNL     1       1.291   8.029  21.110  0.00  0.00    +0.000 A 
ATOM     14  C   UNL     1       0.535   8.676  22.064  0.00  0.00    +0.000 A 
ATOM     15  N   UNL     1      -0.033   9.888  21.875  0.00  0.00    +0.000 NA
ATOM     16  C   UNL     1       0.376  12.823  19.971  0.00  0.00    +0.000 C 
ENDROOT
BRANCH  12  17
ATOM     17  C   UNL     1       2.209   7.934  18.825  0.00  0.00    +0.000 C 
ATOM     18  O   UNL     1       2.286   8.484  17.728  0.00  0.00    +0.000 OA
ATOM     19  N   UNL     1       2.688   6.671  19.144  0.00  0.00    +0.000 N 
ATOM     20  H   UNL     1       2.378   6.256  20.013  0.00  0.00    +0.000 HD
BRANCH  19  21
ATOM     21  C   UNL     1       3.406   5.826  18.262  0.00  0.00    +0.000 A 
ATOM     22  C   UNL     1       2.862   4.657  17.724  0.00  0.00    +0.000 A 
ATOM     23  C   UNL     1       3.617   3.825  16.896  0.00  0.00    +0.000 A 
ATOM     24  C   UNL     1       4.933   4.152  16.593  0.00  0.00    +0.000 A 
ATOM     25  C   UNL     1       5.503   5.327  17.101  0.00  0.00    +0.000 A 
ATOM     26  C   UNL     1       4.722   6.171  17.922  0.00  0.00    +0.000 A 
BRANCH  25  27
ATOM     27  C   UNL     1       6.939   5.671  16.793  0.00  0.00    +0.000 C 
ATOM     28  F   UNL     1       7.241   6.985  16.987  0.00  0.00    +0.000 F 
ATOM     29  F   UNL     1       7.819   4.969  17.560  0.00  0.00    +0.000 F 
ATOM     30  F   UNL     1       7.271   5.401  15.501  0.00  0.00    +0.000 F 
ENDBRANCH  25  27
ENDBRANCH  19  21
ENDBRANCH  12  17
BRANCH   1  32
ATOM     31  C   UNL     1       1.928  17.994  23.644  0.00  0.00    +0.000 C 
ATOM     32  S   UNL     1       0.186  17.865  23.180  0.00  0.00    +0.000 S 
ENDBRANCH   1  32
TORSDOF 4
ENDMDL
MODEL 9
REMARK VINA RESULT:      -7.8      4.419      5.792
REMARK  Name = 
REMARK  5 active torsions:
REMARK  status: ('A' for Active; 'I' for Inactive)
REMARK    1  A    between atoms: C_1  and  S_2
REMARK    2  A    between atoms: S_2  and  C_3
REMARK    3  A    between atoms: C_14  and  C_15
REMARK    4  A    between atoms: N_17  and  C_18
REMARK    5  A    between atoms: C_22  and  C_23
REMARK                            x       y       z     vdW  Elec       q    Type
REMARK                         _______ _______ _______ _____ _____    ______ ____
ROOT
ATOM      1  C   UNL     1       1.391  15.435  19.999  0.00  0.00    +0.000 A 
ATOM      2  N   UNL     1       2.586  15.117  19.476  0.00  0.00    +0.000 NA
ATOM      3  C   UNL     1       2.730  13.849  19.055  0.00  0.00    +0.000 A 
ATOM      4  C   UNL     1       1.738  12.892  19.128  0.00  0.00    +0.000 A 
ATOM      5  C   UNL     1       0.547  13.317  19.685  0.00  0.00    +0.000 A 
ATOM      6  N   UNL     1       0.360  14.582  20.126  0.00  0.00    +0.000 NA
ATOM      7  C   UNL     1      -0.590  12.353  19.878  0.00  0.00    +0.000 C 
ATOM      8  C   UNL     1      -0.514  11.209  18.875  0.00  0.00    +0.000 C 
ATOM      9  N   UNL     1       0.824  10.614  18.813  0.00  0.00    +0.000 N 
ATOM     10  C   UNL     1       1.049   9.420  19.482  0.00  0.00    +0.000 A 
ATOM     11  C   UNL     1       2.069   8.566  19.055  0.00  0.00    +0.000 A 
ATOM     12  C   UNL     1       2.268   7.354  19.707  0.00  0.00    +0.000 A 
ATOM     13  C   UNL     1       1.443   7.006  20.770  0.00  0.00    +0.000 A 
ATOM     14  C   UNL     1       0.456   7.898  21.134  0.00  0.00    +0.000 A 
ATOM     15  N   UNL     1       0.248   9.080  20.514  0.00  0.00    +0.000 NA
ATOM     16  C   UNL     1       1.965  11.503  18.618  0.00  0.00    +0.000 C 
ENDROOT
BRANCH  12  17
ATOM     17  C   UNL     1       3.272   6.359  19.251  0.00  0.00    +0.000 C 
ATOM     18  O   UNL     1       3.244   5.256  19.794  0.00  0.00    +0.000 OA
ATOM     19  N   UNL     1       4.190   6.780  18.299  0.00  0.00    +0.000 N 
ATOM     20  H   UNL     1       4.231   7.769  18.089  0.00  0.00    +0.000 HD
BRANCH  19  21
ATOM     21  C   UNL     1       5.220   5.976  17.749  0.00  0.00    +0.000 A 
ATOM     22  C   UNL     1       6.358   5.606  18.469  0.00  0.00    +0.000 A 
ATOM     23  C   UNL     1       7.373   4.853  17.877  0.00  0.00    +0.000 A 
ATOM     24  C   UNL     1       7.263   4.456  16.550  0.00  0.00    +0.000 A 
ATOM     25  C   UNL     1       6.125   4.794  15.805  0.00  0.00    +0.000 A 
ATOM     26  C   UNL     1       5.096   5.540  16.422  0.00  0.00    +0.000 A 
BRANCH  25  27
ATOM     27  C   UNL     1       6.014   4.385  14.357  0.00  0.00    +0.000 C 
ATOM     28  F   UNL     1       6.289   3.070  14.137  0.00  0.00    +0.000 F 
ATOM     29  F   UNL     1       4.768   4.595  13.850  0.00  0.00    +0.000 F 
ATOM     30  F   UNL     1       6.866   5.082  13.556  0.00  0.00    +0.000 F 
ENDBRANCH  25  27
ENDBRANCH  19  21
ENDBRANCH  12  17
BRANCH   1  32
ATOM     31  C   UNL     1       2.911  17.627  20.589  0.00  0.00    +0.000 C 
ATOM     32  S   UNL     1       1.179  17.113  20.534  0.00  0.00    +0.000 S 
ENDBRANCH   1  32
TORSDOF 4
ENDMDL
