MODEL 1
REMARK VINA RESULT:      -8.7      0.000      0.000
REMARK  Name = 
REMARK  6 active torsions:
REMARK  status: ('A' for Active; 'I' for Inactive)
REMARK    1  A    between atoms: C_2  and  C_3
REMARK    2  A    between atoms: C_2  and  O_11
REMARK    3  A    between atoms: O_11  and  C_12
REMARK    4  A    between atoms: C_15  and  C_16
REMARK    5  A    between atoms: N_17  and  N_18
REMARK    6  A    between atoms: C_19  and  C_21
REMARK                            x       y       z     vdW  Elec       q    Type
REMARK                         _______ _______ _______ _____ _____    ______ ____
ROOT
ATOM      1  C   UNL     1       3.326   5.895  19.100  0.00  0.00    +0.000 A 
ATOM      2  C   UNL     1       2.590   5.924  20.290  0.00  0.00    +0.000 A 
ATOM      3  C   UNL     1       1.765   7.020  20.581  0.00  0.00    +0.000 A 
ATOM      4  C   UNL     1       1.699   8.109  19.703  0.00  0.00    +0.000 A 
ATOM      5  C   UNL     1       2.410   8.071  18.501  0.00  0.00    +0.000 A 
ATOM      6  C   UNL     1       3.219   6.958  18.195  0.00  0.00    +0.000 A 
ENDROOT
BRANCH   4   7
ATOM      7  C   UNL     1       0.892   9.310  20.049  0.00  0.00    +0.000 C 
ATOM      8  N   UNL     1       0.034   9.266  21.015  0.00  0.00    +0.000 NA
BRANCH   8   9
ATOM      9  N   UNL     1      -0.685  10.393  21.292  0.00  0.00    +0.000 N 
ATOM     10  C   UNL     1      -0.712  10.836  22.610  0.00  0.00    +0.000 C 
ATOM     11  O   UNL     1      -0.118  10.301  23.543  0.00  0.00    +0.000 OA
ATOM     12  H   UNL     1      -1.134  10.901  20.540  0.00  0.00    +0.000 HD
BRANCH  10  13
ATOM     13  C   UNL     1      -1.512  12.056  22.900  0.00  0.00    +0.000 A 
ATOM     14  C   UNL     1      -0.843  13.291  22.904  0.00  0.00    +0.000 A 
ATOM     15  C   UNL     1      -1.514  14.461  23.261  0.00  0.00    +0.000 A 
ATOM     16  C   UNL     1      -2.859  14.402  23.622  0.00  0.00    +0.000 A 
ATOM     17  C   UNL     1      -3.523  13.174  23.619  0.00  0.00    +0.000 A 
ATOM     18 CL   UNL     1      -5.175  13.106  24.101  0.00  0.00    +0.000 Cl
ATOM     19  C   UNL     1      -2.862  11.999  23.258  0.00  0.00    +0.000 A 
ENDBRANCH  10  13
ENDBRANCH   8   9
ENDBRANCH   4   7
BRANCH   1  20
ATOM     20  O   UNL     1       4.202   4.777  18.944  0.00  0.00    +0.000 OA
BRANCH  20  22
ATOM     21  O   UNL     1       3.446   2.588  18.785  0.00  0.00    +0.000 OA
ATOM     22  C   UNL     1       3.832   3.618  18.264  0.00  0.00    +0.000 C 
BRANCH  22  23
ATOM     23  C   UNL     1       4.093   3.776  16.807  0.00  0.00    +0.000 C 
ATOM     24  C   UNL     1       5.258   4.227  16.311  0.00  0.00    +0.000 C 
ATOM     25  S   UNL     1       5.519   4.538  14.617  0.00  0.00    +0.000 S 
ATOM     26  C   UNL     1       7.170   5.088  14.876  0.00  0.00    +0.000 C 
ATOM     27  O   UNL     1       7.959   5.347  13.986  0.00  0.00    +0.000 OA
ATOM     28  N   UNL     1       7.431   5.119  16.199  0.00  0.00    +0.000 N 
ATOM     29  C   UNL     1       6.533   4.529  17.044  0.00  0.00    +0.000 C 
ATOM     30  O   UNL     1       6.820   4.215  18.174  0.00  0.00    +0.000 OA
ATOM     31  H   UNL     1       8.367   5.299  16.527  0.00  0.00    +0.000 HD
ENDBRANCH  22  23
ENDBRANCH  20  22
ENDBRANCH   1  20
TORSDOF 6
ENDMDL
MODEL 2
REMARK VINA RESULT:      -8.6      7.337      9.368
REMARK  Name = 
REMARK  6 active torsions:
REMARK  status: ('A' for Active; 'I' for Inactive)
REMARK    1  A    between atoms: C_2  and  C_3
REMARK    2  A    between atoms: C_2  and  O_11
REMARK    3  A    between atoms: O_11  and  C_12
REMARK    4  A    between atoms: C_15  and  C_16
REMARK    5  A    between atoms: N_17  and  N_18
REMARK    6  A    between atoms: C_19  and  C_21
REMARK                            x       y       z     vdW  Elec       q    Type
REMARK                         _______ _______ _______ _____ _____    ______ ____
ROOT
ATOM      1  C   UNL     1       6.139   5.363  17.518  0.00  0.00    +0.000 A 
ATOM      2  C   UNL     1       7.076   5.226  18.549  0.00  0.00    +0.000 A 
ATOM      3  C   UNL     1       7.906   6.304  18.893  0.00  0.00    +0.000 A 
ATOM      4  C   UNL     1       7.830   7.509  18.185  0.00  0.00    +0.000 A 
ATOM      5  C   UNL     1       6.876   7.658  17.175  0.00  0.00    +0.000 A 
ATOM      6  C   UNL     1       6.024   6.585  16.845  0.00  0.00    +0.000 A 
ENDROOT
BRANCH   4   7
ATOM      7  C   UNL     1       8.766   8.624  18.491  0.00  0.00    +0.000 C 
ATOM      8  N   UNL     1       8.452   9.843  18.193  0.00  0.00    +0.000 NA
BRANCH   8   9
ATOM      9  N   UNL     1       9.346  10.831  18.491  0.00  0.00    +0.000 N 
ATOM     10  C   UNL     1       9.106  12.098  17.972  0.00  0.00    +0.000 C 
ATOM     11  O   UNL     1       8.136  12.403  17.283  0.00  0.00    +0.000 OA
ATOM     12  H   UNL     1      10.123  10.637  19.112  0.00  0.00    +0.000 HD
BRANCH  10  13
ATOM     13  C   UNL     1      10.096  13.161  18.292  0.00  0.00    +0.000 A 
ATOM     14  C   UNL     1      10.900  12.987  19.431  0.00  0.00    +0.000 A 
ATOM     15  C   UNL     1      11.781  13.989  19.839  0.00  0.00    +0.000 A 
ATOM     16  C   UNL     1      11.860  15.175  19.113  0.00  0.00    +0.000 A 
ATOM     17  C   UNL     1      11.061  15.349  17.981  0.00  0.00    +0.000 A 
ATOM     18 CL   UNL     1      11.139  16.833  17.111  0.00  0.00    +0.000 Cl
ATOM     19  C   UNL     1      10.180  14.351  17.562  0.00  0.00    +0.000 A 
ENDBRANCH  10  13
ENDBRANCH   8   9
ENDBRANCH   4   7
BRANCH   1  20
ATOM     20  O   UNL     1       5.409   4.179  17.188  0.00  0.00    +0.000 OA
BRANCH  20  22
ATOM     21  O   UNL     1       3.291   3.794  16.320  0.00  0.00    +0.000 OA
ATOM     22  C   UNL     1       4.018   4.112  17.243  0.00  0.00    +0.000 C 
BRANCH  22  23
ATOM     23  C   UNL     1       3.535   4.607  18.562  0.00  0.00    +0.000 C 
ATOM     24  C   UNL     1       2.912   3.825  19.460  0.00  0.00    +0.000 C 
ATOM     25  S   UNL     1       2.231   4.431  20.944  0.00  0.00    +0.000 S 
ATOM     26  C   UNL     1       1.638   2.847  21.429  0.00  0.00    +0.000 C 
ATOM     27  O   UNL     1       1.144   2.596  22.513  0.00  0.00    +0.000 OA
ATOM     28  N   UNL     1       1.873   1.958  20.442  0.00  0.00    +0.000 N 
ATOM     29  C   UNL     1       2.688   2.341  19.414  0.00  0.00    +0.000 C 
ATOM     30  O   UNL     1       3.216   1.544  18.676  0.00  0.00    +0.000 OA
ATOM     31  H   UNL     1       1.705   0.976  20.593  0.00  0.00    +0.000 HD
ENDBRANCH  22  23
ENDBRANCH  20  22
ENDBRANCH   1  20
TORSDOF 6
ENDMDL
MODEL 3
REMARK VINA RESULT:      -8.5      1.288      1.816
REMARK  Name = 
REMARK  6 active torsions:
REMARK  status: ('A' for Active; 'I' for Inactive)
REMARK    1  A    between atoms: C_2  and  C_3
REMARK    2  A    between atoms: C_2  and  O_11
REMARK    3  A    between atoms: O_11  and  C_12
REMARK    4  A    between atoms: C_15  and  C_16
REMARK    5  A    between atoms: N_17  and  N_18
REMARK    6  A    between atoms: C_19  and  C_21
REMARK                            x       y       z     vdW  Elec       q    Type
REMARK                         _______ _______ _______ _____ _____    ______ ____
ROOT
ATOM      1  C   UNL     1       2.592   5.328  19.106  0.00  0.00    +0.000 A 
ATOM      2  C   UNL     1       2.730   6.479  18.322  0.00  0.00    +0.000 A 
ATOM      3  C   UNL     1       2.313   7.723  18.818  0.00  0.00    +0.000 A 
ATOM      4  C   UNL     1       1.722   7.817  20.084  0.00  0.00    +0.000 A 
ATOM      5  C   UNL     1       1.609   6.676  20.881  0.00  0.00    +0.000 A 
ATOM      6  C   UNL     1       2.052   5.429  20.394  0.00  0.00    +0.000 A 
ENDROOT
BRANCH   4   7
ATOM      7  C   UNL     1       1.201   9.120  20.578  0.00  0.00    +0.000 C 
ATOM      8  N   UNL     1      -0.067   9.371  20.551  0.00  0.00    +0.000 NA
BRANCH   8   9
ATOM      9  N   UNL     1      -0.496  10.583  21.013  0.00  0.00    +0.000 N 
ATOM     10  C   UNL     1      -0.870  10.669  22.349  0.00  0.00    +0.000 C 
ATOM     11  O   UNL     1      -0.822   9.742  23.154  0.00  0.00    +0.000 OA
ATOM     12  H   UNL     1      -0.487  11.388  20.398  0.00  0.00    +0.000 HD
BRANCH  10  13
ATOM     13  C   UNL     1      -1.350  11.990  22.835  0.00  0.00    +0.000 A 
ATOM     14  C   UNL     1      -2.646  12.058  23.374  0.00  0.00    +0.000 A 
ATOM     15  C   UNL     1      -3.190  13.283  23.761  0.00  0.00    +0.000 A 
ATOM     16  C   UNL     1      -2.445  14.449  23.606  0.00  0.00    +0.000 A 
ATOM     17  C   UNL     1      -1.158  14.383  23.069  0.00  0.00    +0.000 A 
ATOM     18 CL   UNL     1      -0.258  15.834  22.848  0.00  0.00    +0.000 Cl
ATOM     19  C   UNL     1      -0.602  13.161  22.684  0.00  0.00    +0.000 A 
ENDBRANCH  10  13
ENDBRANCH   8   9
ENDBRANCH   4   7
BRANCH   1  20
ATOM     20  O   UNL     1       2.964   4.102  18.472  0.00  0.00    +0.000 OA
BRANCH  20  22
ATOM     21  O   UNL     1       4.981   3.513  19.457  0.00  0.00    +0.000 OA
ATOM     22  C   UNL     1       4.271   3.619  18.475  0.00  0.00    +0.000 C 
BRANCH  22  23
ATOM     23  C   UNL     1       4.723   3.364  17.079  0.00  0.00    +0.000 C 
ATOM     24  C   UNL     1       5.631   4.127  16.447  0.00  0.00    +0.000 C 
ATOM     25  S   UNL     1       6.062   3.910  14.773  0.00  0.00    +0.000 S 
ATOM     26  C   UNL     1       7.192   5.257  14.792  0.00  0.00    +0.000 C 
ATOM     27  O   UNL     1       7.942   5.543  13.876  0.00  0.00    +0.000 OA
ATOM     28  N   UNL     1       7.136   5.875  15.990  0.00  0.00    +0.000 N 
ATOM     29  C   UNL     1       6.452   5.256  16.999  0.00  0.00    +0.000 C 
ATOM     30  O   UNL     1       6.613   5.545  18.160  0.00  0.00    +0.000 OA
ATOM     31  H   UNL     1       7.800   6.597  16.220  0.00  0.00    +0.000 HD
ENDBRANCH  22  23
ENDBRANCH  20  22
ENDBRANCH   1  20
TORSDOF 6
ENDMDL
MODEL 4
REMARK VINA RESULT:      -8.3      3.461      3.867
REMARK  Name = 
REMARK  6 active torsions:
REMARK  status: ('A' for Active; 'I' for Inactive)
REMARK    1  A    between atoms: C_2  and  C_3
REMARK    2  A    between atoms: C_2  and  O_11
REMARK    3  A    between atoms: O_11  and  C_12
REMARK    4  A    between atoms: C_15  and  C_16
REMARK    5  A    between atoms: N_17  and  N_18
REMARK    6  A    between atoms: C_19  and  C_21
REMARK                            x       y       z     vdW  Elec       q    Type
REMARK                         _______ _______ _______ _____ _____    ______ ____
ROOT
ATOM      1  C   UNL     1       2.182   7.178  19.717  0.00  0.00    +0.000 A 
ATOM      2  C   UNL     1       1.453   7.604  20.834  0.00  0.00    +0.000 A 
ATOM      3  C   UNL     1       0.781   8.835  20.807  0.00  0.00    +0.000 A 
ATOM      4  C   UNL     1       0.863   9.661  19.681  0.00  0.00    +0.000 A 
ATOM      5  C   UNL     1       1.566   9.227  18.554  0.00  0.00    +0.000 A 
ATOM      6  C   UNL     1       2.221   7.979  18.569  0.00  0.00    +0.000 A 
ENDROOT
BRANCH   4   7
ATOM      7  C   UNL     1       0.222  11.004  19.682  0.00  0.00    +0.000 C 
ATOM      8  N   UNL     1       0.255  11.746  18.623  0.00  0.00    +0.000 NA
BRANCH   8   9
ATOM      9  N   UNL     1      -0.345  12.972  18.674  0.00  0.00    +0.000 N 
ATOM     10  C   UNL     1       0.413  14.045  19.126  0.00  0.00    +0.000 C 
ATOM     11  O   UNL     1       1.593  13.980  19.463  0.00  0.00    +0.000 OA
ATOM     12  H   UNL     1      -1.296  13.080  18.343  0.00  0.00    +0.000 HD
BRANCH  10  13
ATOM     13  C   UNL     1      -0.258  15.371  19.192  0.00  0.00    +0.000 A 
ATOM     14  C   UNL     1      -1.088  15.631  20.295  0.00  0.00    +0.000 A 
ATOM     15  C   UNL     1      -1.820  16.816  20.370  0.00  0.00    +0.000 A 
ATOM     16  C   UNL     1      -1.731  17.748  19.338  0.00  0.00    +0.000 A 
ATOM     17  C   UNL     1      -0.908  17.490  18.240  0.00  0.00    +0.000 A 
ATOM     18 CL   UNL     1      -0.832  18.631  16.953  0.00  0.00    +0.000 Cl
ATOM     19  C   UNL     1      -0.167  16.309  18.159  0.00  0.00    +0.000 A 
ENDBRANCH  10  13
ENDBRANCH   8   9
ENDBRANCH   4   7
BRANCH   1  20
ATOM     20  O   UNL     1       2.903   5.955  19.882  0.00  0.00    +0.000 OA
BRANCH  20  22
ATOM     21  O   UNL     1       2.039   3.824  19.561  0.00  0.00    +0.000 OA
ATOM     22  C   UNL     1       2.619   4.808  19.141  0.00  0.00    +0.000 C 
BRANCH  22  23
ATOM     23  C   UNL     1       3.239   4.907  17.791  0.00  0.00    +0.000 C 
ATOM     24  C   UNL     1       4.551   4.723  17.567  0.00  0.00    +0.000 C 
ATOM     25  S   UNL     1       5.298   4.968  16.012  0.00  0.00    +0.000 S 
ATOM     26  C   UNL     1       6.901   4.568  16.614  0.00  0.00    +0.000 C 
ATOM     27  O   UNL     1       7.890   4.440  15.915  0.00  0.00    +0.000 OA
ATOM     28  N   UNL     1       6.844   4.369  17.947  0.00  0.00    +0.000 N 
ATOM     29  C   UNL     1       5.612   4.272  18.529  0.00  0.00    +0.000 C 
ATOM     30  O   UNL     1       5.449   3.779  19.619  0.00  0.00    +0.000 OA
ATOM     31  H   UNL     1       7.648   4.016  18.442  0.00  0.00    +0.000 HD
ENDBRANCH  22  23
ENDBRANCH  20  22
ENDBRANCH   1  20
TORSDOF 6
ENDMDL
MODEL 5
REMARK VINA RESULT:      -8.3      1.171      1.576
REMARK  Name = 
REMARK  6 active torsions:
REMARK  status: ('A' for Active; 'I' for Inactive)
REMARK    1  A    between atoms: C_2  and  C_3
REMARK    2  A    between atoms: C_2  and  O_11
REMARK    3  A    between atoms: O_11  and  C_12
REMARK    4  A    between atoms: C_15  and  C_16
REMARK    5  A    between atoms: N_17  and  N_18
REMARK    6  A    between atoms: C_19  and  C_21
REMARK                            x       y       z     vdW  Elec       q    Type
REMARK                         _______ _______ _______ _____ _____    ______ ____
ROOT
ATOM      1  C   UNL     1       2.590   5.515  19.304  0.00  0.00    +0.000 A 
ATOM      2  C   UNL     1       2.707   6.547  18.365  0.00  0.00    +0.000 A 
ATOM      3  C   UNL     1       2.204   7.823  18.656  0.00  0.00    +0.000 A 
ATOM      4  C   UNL     1       1.549   8.066  19.869  0.00  0.00    +0.000 A 
ATOM      5  C   UNL     1       1.456   7.047  20.820  0.00  0.00    +0.000 A 
ATOM      6  C   UNL     1       1.984   5.770  20.540  0.00  0.00    +0.000 A 
ENDROOT
BRANCH   4   7
ATOM      7  C   UNL     1       0.940   9.395  20.146  0.00  0.00    +0.000 C 
ATOM      8  N   UNL     1       0.039   9.524  21.065  0.00  0.00    +0.000 NA
BRANCH   8   9
ATOM      9  N   UNL     1      -0.492  10.763  21.279  0.00  0.00    +0.000 N 
ATOM     10  C   UNL     1      -0.855  11.096  22.579  0.00  0.00    +0.000 C 
ATOM     11  O   UNL     1      -0.713  10.365  23.557  0.00  0.00    +0.000 OA
ATOM     12  H   UNL     1      -0.564  11.420  20.511  0.00  0.00    +0.000 HD
BRANCH  10  13
ATOM     13  C   UNL     1      -1.447  12.443  22.795  0.00  0.00    +0.000 A 
ATOM     14  C   UNL     1      -0.589  13.553  22.730  0.00  0.00    +0.000 A 
ATOM     15  C   UNL     1      -1.062  14.834  23.016  0.00  0.00    +0.000 A 
ATOM     16  C   UNL     1      -2.396  15.013  23.375  0.00  0.00    +0.000 A 
ATOM     17  C   UNL     1      -3.249  13.909  23.441  0.00  0.00    +0.000 A 
ATOM     18 CL   UNL     1      -4.888  14.135  23.920  0.00  0.00    +0.000 Cl
ATOM     19  C   UNL     1      -2.787  12.624  23.151  0.00  0.00    +0.000 A 
ENDBRANCH  10  13
ENDBRANCH   8   9
ENDBRANCH   4   7
BRANCH   1  20
ATOM     20  O   UNL     1       3.053   4.234  18.872  0.00  0.00    +0.000 OA
BRANCH  20  22
ATOM     21  O   UNL     1       4.337   2.694  20.041  0.00  0.00    +0.000 OA
ATOM     22  C   UNL     1       4.246   3.673  19.324  0.00  0.00    +0.000 C 
BRANCH  22  23
ATOM     23  C   UNL     1       5.398   4.517  18.903  0.00  0.00    +0.000 C 
ATOM     24  C   UNL     1       5.841   4.583  17.636  0.00  0.00    +0.000 C 
ATOM     25  S   UNL     1       7.267   5.466  17.167  0.00  0.00    +0.000 S 
ATOM     26  C   UNL     1       7.113   5.002  15.477  0.00  0.00    +0.000 C 
ATOM     27  O   UNL     1       7.802   5.442  14.574  0.00  0.00    +0.000 OA
ATOM     28  N   UNL     1       6.085   4.139  15.340  0.00  0.00    +0.000 N 
ATOM     29  C   UNL     1       5.242   3.972  16.402  0.00  0.00    +0.000 C 
ATOM     30  O   UNL     1       4.138   3.497  16.282  0.00  0.00    +0.000 OA
ATOM     31  H   UNL     1       5.778   3.859  14.422  0.00  0.00    +0.000 HD
ENDBRANCH  22  23
ENDBRANCH  20  22
ENDBRANCH   1  20
TORSDOF 6
ENDMDL
MODEL 6
REMARK VINA RESULT:      -8.2      8.460     11.838
REMARK  Name = 
REMARK  6 active torsions:
REMARK  status: ('A' for Active; 'I' for Inactive)
REMARK    1  A    between atoms: C_2  and  C_3
REMARK    2  A    between atoms: C_2  and  O_11
REMARK    3  A    between atoms: O_11  and  C_12
REMARK    4  A    between atoms: C_15  and  C_16
REMARK    5  A    between atoms: N_17  and  N_18
REMARK    6  A    between atoms: C_19  and  C_21
REMARK                            x       y       z     vdW  Elec       q    Type
REMARK                         _______ _______ _______ _____ _____    ______ ____
ROOT
ATOM      1  C   UNL     1      11.111  12.666  19.318  0.00  0.00    +0.000 A 
ATOM      2  C   UNL     1      10.555  11.755  20.223  0.00  0.00    +0.000 A 
ATOM      3  C   UNL     1       9.679  10.758  19.771  0.00  0.00    +0.000 A 
ATOM      4  C   UNL     1       9.324  10.690  18.418  0.00  0.00    +0.000 A 
ATOM      5  C   UNL     1       9.899  11.578  17.507  0.00  0.00    +0.000 A 
ATOM      6  C   UNL     1      10.801  12.565  17.956  0.00  0.00    +0.000 A 
ENDROOT
BRANCH   4   7
ATOM      7  C   UNL     1       8.329   9.688  17.949  0.00  0.00    +0.000 C 
ATOM      8  N   UNL     1       8.459   8.440  18.262  0.00  0.00    +0.000 NA
BRANCH   8   9
ATOM      9  N   UNL     1       7.521   7.558  17.805  0.00  0.00    +0.000 N 
ATOM     10  C   UNL     1       7.454   6.312  18.414  0.00  0.00    +0.000 C 
ATOM     11  O   UNL     1       8.161   5.949  19.352  0.00  0.00    +0.000 OA
ATOM     12  H   UNL     1       6.875   7.843  17.078  0.00  0.00    +0.000 HD
BRANCH  10  13
ATOM     13  C   UNL     1       6.439   5.356  17.896  0.00  0.00    +0.000 A 
ATOM     14  C   UNL     1       6.411   5.117  16.512  0.00  0.00    +0.000 A 
ATOM     15  C   UNL     1       5.425   4.305  15.951  0.00  0.00    +0.000 A 
ATOM     16  C   UNL     1       4.456   3.731  16.770  0.00  0.00    +0.000 A 
ATOM     17  C   UNL     1       4.483   3.969  18.146  0.00  0.00    +0.000 A 
ATOM     18 CL   UNL     1       3.260   3.284  19.146  0.00  0.00    +0.000 Cl
ATOM     19  C   UNL     1       5.469   4.775  18.718  0.00  0.00    +0.000 A 
ENDBRANCH  10  13
ENDBRANCH   8   9
ENDBRANCH   4   7
BRANCH   1  20
ATOM     20  O   UNL     1      11.918  13.695  19.895  0.00  0.00    +0.000 OA
BRANCH  20  22
ATOM     21  O   UNL     1      12.333  15.925  19.402  0.00  0.00    +0.000 OA
ATOM     22  C   UNL     1      11.592  15.047  19.805  0.00  0.00    +0.000 C 
BRANCH  22  23
ATOM     23  C   UNL     1      10.244  15.287  20.391  0.00  0.00    +0.000 C 
ATOM     24  C   UNL     1       9.253  15.908  19.729  0.00  0.00    +0.000 C 
ATOM     25  S   UNL     1       7.722  16.306  20.458  0.00  0.00    +0.000 S 
ATOM     26  C   UNL     1       7.115  17.066  18.993  0.00  0.00    +0.000 C 
ATOM     27  O   UNL     1       5.972  17.458  18.840  0.00  0.00    +0.000 OA
ATOM     28  N   UNL     1       8.090  17.088  18.061  0.00  0.00    +0.000 N 
ATOM     29  C   UNL     1       9.219  16.355  18.297  0.00  0.00    +0.000 C 
ATOM     30  O   UNL     1       9.984  16.046  17.415  0.00  0.00    +0.000 OA
ATOM     31  H   UNL     1       7.885  17.382  17.119  0.00  0.00    +0.000 HD
ENDBRANCH  22  23
ENDBRANCH  20  22
ENDBRANCH   1  20
TORSDOF 6
ENDMDL
MODEL 7
REMARK VINA RESULT:      -8.2      2.115      3.097
REMARK  Name = 
REMARK  6 active torsions:
REMARK  status: ('A' for Active; 'I' for Inactive)
REMARK    1  A    between atoms: C_2  and  C_3
REMARK    2  A    between atoms: C_2  and  O_11
REMARK    3  A    between atoms: O_11  and  C_12
REMARK    4  A    between atoms: C_15  and  C_16
REMARK    5  A    between atoms: N_17  and  N_18
REMARK    6  A    between atoms: C_19  and  C_21
REMARK                            x       y       z     vdW  Elec       q    Type
REMARK                         _______ _______ _______ _____ _____    ______ ____
ROOT
ATOM      1  C   UNL     1       1.692   7.986  20.028  0.00  0.00    +0.000 A 
ATOM      2  C   UNL     1       1.131   8.067  21.308  0.00  0.00    +0.000 A 
ATOM      3  C   UNL     1       0.359   9.181  21.669  0.00  0.00    +0.000 A 
ATOM      4  C   UNL     1       0.175  10.236  20.767  0.00  0.00    +0.000 A 
ATOM      5  C   UNL     1       0.709  10.146  19.480  0.00  0.00    +0.000 A 
ATOM      6  C   UNL     1       1.463   9.015  19.106  0.00  0.00    +0.000 A 
ENDROOT
BRANCH   4   7
ATOM      7  C   UNL     1      -0.571  11.457  21.176  0.00  0.00    +0.000 C 
ATOM      8  N   UNL     1      -0.978  11.598  22.395  0.00  0.00    +0.000 NA
BRANCH   8   9
ATOM      9  N   UNL     1      -1.661  12.735  22.721  0.00  0.00    +0.000 N 
ATOM     10  C   UNL     1      -2.828  12.598  23.463  0.00  0.00    +0.000 C 
ATOM     11  O   UNL     1      -3.282  11.531  23.869  0.00  0.00    +0.000 OA
ATOM     12  H   UNL     1      -1.284  13.639  22.462  0.00  0.00    +0.000 HD
BRANCH  10  13
ATOM     13  C   UNL     1      -3.570  13.843  23.797  0.00  0.00    +0.000 A 
ATOM     14  C   UNL     1      -4.884  13.971  23.316  0.00  0.00    +0.000 A 
ATOM     15  C   UNL     1      -5.600  15.152  23.514  0.00  0.00    +0.000 A 
ATOM     16  C   UNL     1      -5.005  16.216  24.189  0.00  0.00    +0.000 A 
ATOM     17  C   UNL     1      -3.699  16.089  24.666  0.00  0.00    +0.000 A 
ATOM     18 CL   UNL     1      -2.958  17.422  25.467  0.00  0.00    +0.000 Cl
ATOM     19  C   UNL     1      -2.975  14.910  24.478  0.00  0.00    +0.000 A 
ENDBRANCH  10  13
ENDBRANCH   8   9
ENDBRANCH   4   7
BRANCH   1  20
ATOM     20  O   UNL     1       2.533   6.855  19.794  0.00  0.00    +0.000 OA
BRANCH  20  22
ATOM     21  O   UNL     1       1.620   5.288  18.345  0.00  0.00    +0.000 OA
ATOM     22  C   UNL     1       2.479   6.105  18.620  0.00  0.00    +0.000 C 
BRANCH  22  23
ATOM     23  C   UNL     1       3.695   6.356  17.799  0.00  0.00    +0.000 C 
ATOM     24  C   UNL     1       4.810   5.610  17.884  0.00  0.00    +0.000 C 
ATOM     25  S   UNL     1       6.276   5.983  17.021  0.00  0.00    +0.000 S 
ATOM     26  C   UNL     1       7.139   4.612  17.707  0.00  0.00    +0.000 C 
ATOM     27  O   UNL     1       8.252   4.255  17.365  0.00  0.00    +0.000 OA
ATOM     28  N   UNL     1       6.354   3.995  18.615  0.00  0.00    +0.000 N 
ATOM     29  C   UNL     1       5.036   4.352  18.670  0.00  0.00    +0.000 C 
ATOM     30  O   UNL     1       4.200   3.655  19.194  0.00  0.00    +0.000 OA
ATOM     31  H   UNL     1       6.642   3.120  19.022  0.00  0.00    +0.000 HD
ENDBRANCH  22  23
ENDBRANCH  20  22
ENDBRANCH   1  20
TORSDOF 6
ENDMDL
MODEL 8
REMARK VINA RESULT:      -8.1      3.576      3.961
REMARK  Name = 
REMARK  6 active torsions:
REMARK  status: ('A' for Active; 'I' for Inactive)
REMARK    1  A    between atoms: C_2  and  C_3
REMARK    2  A    between atoms: C_2  and  O_11
REMARK    3  A    between atoms: O_11  and  C_12
REMARK    4  A    between atoms: C_15  and  C_16
REMARK    5  A    between atoms: N_17  and  N_18
REMARK    6  A    between atoms: C_19  and  C_21
REMARK                            x       y       z     vdW  Elec       q    Type
REMARK                         _______ _______ _______ _____ _____    ______ ____
ROOT
ATOM      1  C   UNL     1       2.302   7.102  19.451  0.00  0.00    +0.000 A 
ATOM      2  C   UNL     1       1.550   7.703  20.467  0.00  0.00    +0.000 A 
ATOM      3  C   UNL     1       0.978   8.968  20.266  0.00  0.00    +0.000 A 
ATOM      4  C   UNL     1       1.186   9.655  19.063  0.00  0.00    +0.000 A 
ATOM      5  C   UNL     1       1.911   9.046  18.036  0.00  0.00    +0.000 A 
ATOM      6  C   UNL     1       2.465   7.764  18.228  0.00  0.00    +0.000 A 
ENDROOT
BRANCH   4   7
ATOM      7  C   UNL     1       0.653  11.031  18.878  0.00  0.00    +0.000 C 
ATOM      8  N   UNL     1       1.100  12.009  19.597  0.00  0.00    +0.000 NA
BRANCH   8   9
ATOM      9  N   UNL     1       0.577  13.254  19.392  0.00  0.00    +0.000 N 
ATOM     10  C   UNL     1       1.442  14.257  18.970  0.00  0.00    +0.000 C 
ATOM     11  O   UNL     1       2.640  14.103  18.745  0.00  0.00    +0.000 OA
ATOM     12  H   UNL     1      -0.418  13.406  19.502  0.00  0.00    +0.000 HD
BRANCH  10  13
ATOM     13  C   UNL     1       0.862  15.611  18.766  0.00  0.00    +0.000 A 
ATOM     14  C   UNL     1       1.713  16.622  18.290  0.00  0.00    +0.000 A 
ATOM     15  C   UNL     1       1.257  17.935  18.166  0.00  0.00    +0.000 A 
ATOM     16  C   UNL     1      -0.053  18.246  18.524  0.00  0.00    +0.000 A 
ATOM     17  C   UNL     1      -0.899  17.242  18.998  0.00  0.00    +0.000 A 
ATOM     18 CL   UNL     1      -2.506  17.643  19.470  0.00  0.00    +0.000 Cl
ATOM     19  C   UNL     1      -0.454  15.924  19.120  0.00  0.00    +0.000 A 
ENDBRANCH  10  13
ENDBRANCH   8   9
ENDBRANCH   4   7
BRANCH   1  20
ATOM     20  O   UNL     1       2.914   5.857  19.792  0.00  0.00    +0.000 OA
BRANCH  20  22
ATOM     21  O   UNL     1       2.084   3.698  19.604  0.00  0.00    +0.000 OA
ATOM     22  C   UNL     1       2.632   4.669  19.118  0.00  0.00    +0.000 C 
BRANCH  22  23
ATOM     23  C   UNL     1       3.210   4.712  17.747  0.00  0.00    +0.000 C 
ATOM     24  C   UNL     1       4.527   4.619  17.498  0.00  0.00    +0.000 C 
ATOM     25  S   UNL     1       5.214   4.801  15.908  0.00  0.00    +0.000 S 
ATOM     26  C   UNL     1       6.859   4.582  16.491  0.00  0.00    +0.000 C 
ATOM     27  O   UNL     1       7.838   4.481  15.774  0.00  0.00    +0.000 OA
ATOM     28  N   UNL     1       6.850   4.485  17.837  0.00  0.00    +0.000 N 
ATOM     29  C   UNL     1       5.644   4.334  18.460  0.00  0.00    +0.000 C 
ATOM     30  O   UNL     1       5.548   3.917  19.590  0.00  0.00    +0.000 OA
ATOM     31  H   UNL     1       7.692   4.240  18.333  0.00  0.00    +0.000 HD
ENDBRANCH  22  23
ENDBRANCH  20  22
ENDBRANCH   1  20
TORSDOF 6
ENDMDL
MODEL 9
REMARK VINA RESULT:      -8.1      7.188      9.181
REMARK  Name = 
REMARK  6 active torsions:
REMARK  status: ('A' for Active; 'I' for Inactive)
REMARK    1  A    between atoms: C_2  and  C_3
REMARK    2  A    between atoms: C_2  and  O_11
REMARK    3  A    between atoms: O_11  and  C_12
REMARK    4  A    between atoms: C_15  and  C_16
REMARK    5  A    between atoms: N_17  and  N_18
REMARK    6  A    between atoms: C_19  and  C_21
REMARK                            x       y       z     vdW  Elec       q    Type
REMARK                         _______ _______ _______ _____ _____    ______ ____
ROOT
ATOM      1  C   UNL     1       5.102   5.464  16.866  0.00  0.00    +0.000 A 
ATOM      2  C   UNL     1       6.440   5.053  16.886  0.00  0.00    +0.000 A 
ATOM      3  C   UNL     1       7.444   5.943  17.295  0.00  0.00    +0.000 A 
ATOM      4  C   UNL     1       7.121   7.258  17.649  0.00  0.00    +0.000 A 
ATOM      5  C   UNL     1       5.784   7.664  17.658  0.00  0.00    +0.000 A 
ATOM      6  C   UNL     1       4.771   6.763  17.273  0.00  0.00    +0.000 A 
ENDROOT
BRANCH   4   7
ATOM      7  C   UNL     1       8.192   8.230  18.001  0.00  0.00    +0.000 C 
ATOM      8  N   UNL     1       7.969   9.502  17.937  0.00  0.00    +0.000 NA
BRANCH   8   9
ATOM      9  N   UNL     1       8.985  10.353  18.267  0.00  0.00    +0.000 N 
ATOM     10  C   UNL     1       8.876  11.677  17.860  0.00  0.00    +0.000 C 
ATOM     11  O   UNL     1       7.923  12.148  17.244  0.00  0.00    +0.000 OA
ATOM     12  H   UNL     1       9.757  10.020  18.832  0.00  0.00    +0.000 HD
BRANCH  10  13
ATOM     13  C   UNL     1       9.997  12.590  18.213  0.00  0.00    +0.000 A 
ATOM     14  C   UNL     1      11.175  12.503  17.454  0.00  0.00    +0.000 A 
ATOM     15  C   UNL     1      12.295  13.264  17.792  0.00  0.00    +0.000 A 
ATOM     16  C   UNL     1      12.246  14.111  18.896  0.00  0.00    +0.000 A 
ATOM     17  C   UNL     1      11.075  14.197  19.652  0.00  0.00    +0.000 A 
ATOM     18 CL   UNL     1      11.035  15.221  21.036  0.00  0.00    +0.000 Cl
ATOM     19  C   UNL     1       9.947  13.444  19.318  0.00  0.00    +0.000 A 
ENDBRANCH  10  13
ENDBRANCH   8   9
ENDBRANCH   4   7
BRANCH   1  20
ATOM     20  O   UNL     1       4.172   4.511  16.348  0.00  0.00    +0.000 OA
BRANCH  20  22
ATOM     21  O   UNL     1       4.513   2.275  16.869  0.00  0.00    +0.000 OA
ATOM     22  C   UNL     1       3.885   3.310  16.995  0.00  0.00    +0.000 C 
BRANCH  22  23
ATOM     23  C   UNL     1       2.620   3.438  17.770  0.00  0.00    +0.000 C 
ATOM     24  C   UNL     1       2.528   3.159  19.082  0.00  0.00    +0.000 C 
ATOM     25  S   UNL     1       1.024   3.182  19.959  0.00  0.00    +0.000 S 
ATOM     26  C   UNL     1       1.787   2.697  21.467  0.00  0.00    +0.000 C 
ATOM     27  O   UNL     1       1.223   2.656  22.546  0.00  0.00    +0.000 OA
ATOM     28  N   UNL     1       3.093   2.440  21.248  0.00  0.00    +0.000 N 
ATOM     29  C   UNL     1       3.625   2.808  20.044  0.00  0.00    +0.000 C 
ATOM     30  O   UNL     1       4.815   2.926  19.873  0.00  0.00    +0.000 OA
ATOM     31  H   UNL     1       3.712   2.262  22.023  0.00  0.00    +0.000 HD
ENDBRANCH  22  23
ENDBRANCH  20  22
ENDBRANCH   1  20
TORSDOF 6
ENDMDL
