MODEL 1
REMARK VINA RESULT:      -7.0      0.000      0.000
REMARK  Name = 
REMARK  3 active torsions:
REMARK  status: ('A' for Active; 'I' for Inactive)
REMARK    1  A    between atoms: N_2  and  C_4
REMARK    2  A    between atoms: C_12  and  O_13
REMARK    3  A    between atoms: C_14  and  O_15
REMARK                            x       y       z     vdW  Elec       q    Type
REMARK                         _______ _______ _______ _____ _____    ______ ____
ROOT
ATOM      1  C   UNL     1       4.039   3.450  19.534  0.00  0.00    +0.000 A 
ATOM      2  C   UNL     1       2.857   3.865  20.131  0.00  0.00    +0.000 A 
ATOM      3  F   UNL     1       2.096   3.021  20.840  0.00  0.00    +0.000 F 
ATOM      4  C   UNL     1       2.475   5.184  19.993  0.00  0.00    +0.000 A 
ATOM      5  F   UNL     1       1.341   5.620  20.553  0.00  0.00    +0.000 F 
ATOM      6  C   UNL     1       3.267   6.075  19.280  0.00  0.00    +0.000 A 
ATOM      7  C   UNL     1       4.452   5.658  18.689  0.00  0.00    +0.000 A 
ATOM      8  N   UNL     1       5.176   6.575  18.017  0.00  0.00    +0.000 NA
ATOM      9  C   UNL     1       6.310   6.121  17.464  0.00  0.00    +0.000 A 
ATOM     10  C   UNL     1       6.727   4.807  17.549  0.00  0.00    +0.000 A 
ATOM     11  N   UNL     1       6.013   3.881  18.209  0.00  0.00    +0.000 NA
ATOM     12  C   UNL     1       4.866   4.299  18.802  0.00  0.00    +0.000 A 
ENDROOT
BRANCH   1  14
ATOM     13  O   UNL     1       3.936   1.268  18.895  0.00  0.00    +0.000 OA
ATOM     14  N   UNL     1       4.415   2.079  19.700  0.00  0.00    +0.000 N 
ATOM     15  O   UNL     1       5.135   1.804  20.668  0.00  0.00    +0.000 OA
ENDBRANCH   1  14
BRANCH   9  16
ATOM     16  O   UNL     1       7.040   7.055  16.800  0.00  0.00    +0.000 OA
ATOM     17  H   UNL     1       6.950   6.740  15.881  0.00  0.00    +0.000 HD
ENDBRANCH   9  16
BRANCH  10  18
ATOM     18  O   UNL     1       7.886   4.382  16.971  0.00  0.00    +0.000 OA
ATOM     19  H   UNL     1       7.835   4.669  16.042  0.00  0.00    +0.000 HD
ENDBRANCH  10  18
TORSDOF 3
ENDMDL
MODEL 2
REMARK VINA RESULT:      -6.9      2.475      4.508
REMARK  Name = 
REMARK  3 active torsions:
REMARK  status: ('A' for Active; 'I' for Inactive)
REMARK    1  A    between atoms: N_2  and  C_4
REMARK    2  A    between atoms: C_12  and  O_13
REMARK    3  A    between atoms: C_14  and  O_15
REMARK                            x       y       z     vdW  Elec       q    Type
REMARK                         _______ _______ _______ _____ _____    ______ ____
ROOT
ATOM      1  C   UNL     1       5.186   5.093  17.723  0.00  0.00    +0.000 A 
ATOM      2  C   UNL     1       4.887   6.443  17.614  0.00  0.00    +0.000 A 
ATOM      3  F   UNL     1       5.835   7.354  17.360  0.00  0.00    +0.000 F 
ATOM      4  C   UNL     1       3.573   6.842  17.761  0.00  0.00    +0.000 A 
ATOM      5  F   UNL     1       3.246   8.136  17.664  0.00  0.00    +0.000 F 
ATOM      6  C   UNL     1       2.576   5.905  18.002  0.00  0.00    +0.000 A 
ATOM      7  C   UNL     1       2.879   4.554  18.105  0.00  0.00    +0.000 A 
ATOM      8  N   UNL     1       1.863   3.698  18.332  0.00  0.00    +0.000 NA
ATOM      9  C   UNL     1       2.209   2.406  18.425  0.00  0.00    +0.000 A 
ATOM     10  C   UNL     1       3.509   1.955  18.312  0.00  0.00    +0.000 A 
ATOM     11  N   UNL     1       4.533   2.797  18.091  0.00  0.00    +0.000 NA
ATOM     12  C   UNL     1       4.228   4.113  17.972  0.00  0.00    +0.000 A 
ENDROOT
BRANCH   1  14
ATOM     13  O   UNL     1       7.256   4.687  18.580  0.00  0.00    +0.000 OA
ATOM     14  N   UNL     1       6.555   4.706  17.558  0.00  0.00    +0.000 N 
ATOM     15  O   UNL     1       6.944   4.485  16.404  0.00  0.00    +0.000 OA
ENDBRANCH   1  14
BRANCH   9  16
ATOM     16  O   UNL     1       1.177   1.549  18.641  0.00  0.00    +0.000 OA
ATOM     17  H   UNL     1       1.253   0.969  17.860  0.00  0.00    +0.000 HD
ENDBRANCH   9  16
BRANCH  10  18
ATOM     18  O   UNL     1       3.823   0.632  18.413  0.00  0.00    +0.000 OA
ATOM     19  H   UNL     1       3.593   0.379  19.325  0.00  0.00    +0.000 HD
ENDBRANCH  10  18
TORSDOF 3
ENDMDL
MODEL 3
REMARK VINA RESULT:      -6.8      1.175      1.175
REMARK  Name = 
REMARK  3 active torsions:
REMARK  status: ('A' for Active; 'I' for Inactive)
REMARK    1  A    between atoms: N_2  and  C_4
REMARK    2  A    between atoms: C_12  and  O_13
REMARK    3  A    between atoms: C_14  and  O_15
REMARK                            x       y       z     vdW  Elec       q    Type
REMARK                         _______ _______ _______ _____ _____    ______ ____
ROOT
ATOM      1  C   UNL     1       3.614   3.645  19.280  0.00  0.00    +0.000 A 
ATOM      2  C   UNL     1       2.734   4.189  20.203  0.00  0.00    +0.000 A 
ATOM      3  F   UNL     1       2.254   3.467  21.224  0.00  0.00    +0.000 F 
ATOM      4  C   UNL     1       2.361   5.511  20.063  0.00  0.00    +0.000 A 
ATOM      5  F   UNL     1       1.512   6.069  20.933  0.00  0.00    +0.000 F 
ATOM      6  C   UNL     1       2.870   6.278  19.022  0.00  0.00    +0.000 A 
ATOM      7  C   UNL     1       3.755   5.732  18.102  0.00  0.00    +0.000 A 
ATOM      8  N   UNL     1       4.215   6.533  17.121  0.00  0.00    +0.000 NA
ATOM      9  C   UNL     1       5.065   5.957  16.259  0.00  0.00    +0.000 A 
ATOM     10  C   UNL     1       5.451   4.634  16.338  0.00  0.00    +0.000 A 
ATOM     11  N   UNL     1       4.996   3.822  17.306  0.00  0.00    +0.000 NA
ATOM     12  C   UNL     1       4.147   4.366  18.213  0.00  0.00    +0.000 A 
ENDROOT
BRANCH   1  14
ATOM     13  O   UNL     1       3.332   1.432  18.828  0.00  0.00    +0.000 OA
ATOM     14  N   UNL     1       3.989   2.275  19.455  0.00  0.00    +0.000 N 
ATOM     15  O   UNL     1       4.896   2.037  20.262  0.00  0.00    +0.000 OA
ENDBRANCH   1  14
BRANCH   9  16
ATOM     16  O   UNL     1       5.534   6.776  15.280  0.00  0.00    +0.000 OA
ATOM     17  H   UNL     1       6.497   6.699  15.422  0.00  0.00    +0.000 HD
ENDBRANCH   9  16
BRANCH  10  18
ATOM     18  O   UNL     1       6.318   4.083  15.441  0.00  0.00    +0.000 OA
ATOM     19  H   UNL     1       6.790   4.834  15.039  0.00  0.00    +0.000 HD
ENDBRANCH  10  18
TORSDOF 3
ENDMDL
MODEL 4
REMARK VINA RESULT:      -6.8      3.192      5.302
REMARK  Name = 
REMARK  3 active torsions:
REMARK  status: ('A' for Active; 'I' for Inactive)
REMARK    1  A    between atoms: N_2  and  C_4
REMARK    2  A    between atoms: C_12  and  O_13
REMARK    3  A    between atoms: C_14  and  O_15
REMARK                            x       y       z     vdW  Elec       q    Type
REMARK                         _______ _______ _______ _____ _____    ______ ____
ROOT
ATOM      1  C   UNL     1       6.067   5.719  16.751  0.00  0.00    +0.000 A 
ATOM      2  C   UNL     1       7.161   6.354  17.322  0.00  0.00    +0.000 A 
ATOM      3  F   UNL     1       7.902   7.230  16.631  0.00  0.00    +0.000 F 
ATOM      4  C   UNL     1       7.473   6.078  18.638  0.00  0.00    +0.000 A 
ATOM      5  F   UNL     1       8.521   6.670  19.222  0.00  0.00    +0.000 F 
ATOM      6  C   UNL     1       6.697   5.190  19.373  0.00  0.00    +0.000 A 
ATOM      7  C   UNL     1       5.600   4.560  18.800  0.00  0.00    +0.000 A 
ATOM      8  N   UNL     1       4.887   3.715  19.571  0.00  0.00    +0.000 NA
ATOM      9  C   UNL     1       3.841   3.132  18.970  0.00  0.00    +0.000 A 
ATOM     10  C   UNL     1       3.499   3.352  17.650  0.00  0.00    +0.000 A 
ATOM     11  N   UNL     1       4.203   4.187  16.868  0.00  0.00    +0.000 NA
ATOM     12  C   UNL     1       5.262   4.814  17.439  0.00  0.00    +0.000 A 
ENDROOT
BRANCH   1  14
ATOM     13  O   UNL     1       6.343   5.363  14.520  0.00  0.00    +0.000 OA
ATOM     14  N   UNL     1       5.762   6.031  15.387  0.00  0.00    +0.000 N 
ATOM     15  O   UNL     1       4.994   6.979  15.184  0.00  0.00    +0.000 OA
ENDBRANCH   1  14
BRANCH   9  16
ATOM     16  O   UNL     1       3.119   2.292  19.758  0.00  0.00    +0.000 OA
ATOM     17  H   UNL     1       3.805   1.993  20.384  0.00  0.00    +0.000 HD
ENDBRANCH   9  16
BRANCH  10  18
ATOM     18  O   UNL     1       2.427   2.740  17.073  0.00  0.00    +0.000 OA
ATOM     19  H   UNL     1       2.204   1.995  17.661  0.00  0.00    +0.000 HD
ENDBRANCH  10  18
TORSDOF 3
ENDMDL
MODEL 5
REMARK VINA RESULT:      -6.7      3.049      3.703
REMARK  Name = 
REMARK  3 active torsions:
REMARK  status: ('A' for Active; 'I' for Inactive)
REMARK    1  A    between atoms: N_2  and  C_4
REMARK    2  A    between atoms: C_12  and  O_13
REMARK    3  A    between atoms: C_14  and  O_15
REMARK                            x       y       z     vdW  Elec       q    Type
REMARK                         _______ _______ _______ _____ _____    ______ ____
ROOT
ATOM      1  C   UNL     1       4.989   4.131  17.552  0.00  0.00    +0.000 A 
ATOM      2  C   UNL     1       5.457   4.565  18.784  0.00  0.00    +0.000 A 
ATOM      3  F   UNL     1       4.804   4.286  19.920  0.00  0.00    +0.000 F 
ATOM      4  C   UNL     1       6.631   5.290  18.827  0.00  0.00    +0.000 A 
ATOM      5  F   UNL     1       7.112   5.726  19.997  0.00  0.00    +0.000 F 
ATOM      6  C   UNL     1       7.330   5.566  17.659  0.00  0.00    +0.000 A 
ATOM      7  C   UNL     1       6.862   5.126  16.428  0.00  0.00    +0.000 A 
ATOM      8  N   UNL     1       7.593   5.423  15.335  0.00  0.00    +0.000 NA
ATOM      9  C   UNL     1       7.096   4.977  14.173  0.00  0.00    +0.000 A 
ATOM     10  C   UNL     1       5.915   4.270  14.069  0.00  0.00    +0.000 A 
ATOM     11  N   UNL     1       5.173   3.972  15.148  0.00  0.00    +0.000 NA
ATOM     12  C   UNL     1       5.645   4.388  16.350  0.00  0.00    +0.000 A 
ENDROOT
BRANCH   1  14
ATOM     13  O   UNL     1       2.722   4.013  17.393  0.00  0.00    +0.000 OA
ATOM     14  N   UNL     1       3.774   3.375  17.538  0.00  0.00    +0.000 N 
ATOM     15  O   UNL     1       3.866   2.156  17.733  0.00  0.00    +0.000 OA
ENDBRANCH   1  14
BRANCH   9  16
ATOM     16  O   UNL     1       7.846   5.269  13.077  0.00  0.00    +0.000 OA
ATOM     17  H   UNL     1       7.427   6.100  12.784  0.00  0.00    +0.000 HD
ENDBRANCH   9  16
BRANCH  10  18
ATOM     18  O   UNL     1       5.441   3.833  12.868  0.00  0.00    +0.000 OA
ATOM     19  H   UNL     1       4.479   3.738  12.987  0.00  0.00    +0.000 HD
ENDBRANCH  10  18
TORSDOF 3
ENDMDL
MODEL 6
REMARK VINA RESULT:      -6.7      2.430      4.486
REMARK  Name = 
REMARK  3 active torsions:
REMARK  status: ('A' for Active; 'I' for Inactive)
REMARK    1  A    between atoms: N_2  and  C_4
REMARK    2  A    between atoms: C_12  and  O_13
REMARK    3  A    between atoms: C_14  and  O_15
REMARK                            x       y       z     vdW  Elec       q    Type
REMARK                         _______ _______ _______ _____ _____    ______ ____
ROOT
ATOM      1  C   UNL     1       5.914   5.413  18.093  0.00  0.00    +0.000 A 
ATOM      2  C   UNL     1       5.488   6.577  17.469  0.00  0.00    +0.000 A 
ATOM      3  F   UNL     1       6.353   7.417  16.886  0.00  0.00    +0.000 F 
ATOM      4  C   UNL     1       4.136   6.857  17.445  0.00  0.00    +0.000 A 
ATOM      5  F   UNL     1       3.688   7.970  16.854  0.00  0.00    +0.000 F 
ATOM      6  C   UNL     1       3.226   5.982  18.025  0.00  0.00    +0.000 A 
ATOM      7  C   UNL     1       3.655   4.815  18.644  0.00  0.00    +0.000 A 
ATOM      8  N   UNL     1       2.720   4.008  19.180  0.00  0.00    +0.000 NA
ATOM      9  C   UNL     1       3.187   2.896  19.767  0.00  0.00    +0.000 A 
ATOM     10  C   UNL     1       4.529   2.580  19.843  0.00  0.00    +0.000 A 
ATOM     11  N   UNL     1       5.473   3.378  19.318  0.00  0.00    +0.000 NA
ATOM     12  C   UNL     1       5.046   4.506  18.697  0.00  0.00    +0.000 A 
ENDROOT
BRANCH   1  14
ATOM     13  O   UNL     1       7.784   4.589  17.091  0.00  0.00    +0.000 OA
ATOM     14  N   UNL     1       7.320   5.144  18.096  0.00  0.00    +0.000 N 
ATOM     15  O   UNL     1       7.946   5.431  19.125  0.00  0.00    +0.000 OA
ENDBRANCH   1  14
BRANCH   9  16
ATOM     16  O   UNL     1       2.236   2.081  20.294  0.00  0.00    +0.000 OA
ATOM     17  H   UNL     1       1.914   1.630  19.491  0.00  0.00    +0.000 HD
ENDBRANCH   9  16
BRANCH  10  18
ATOM     18  O   UNL     1       4.966   1.440  20.449  0.00  0.00    +0.000 OA
ATOM     19  H   UNL     1       5.853   1.652  20.792  0.00  0.00    +0.000 HD
ENDBRANCH  10  18
TORSDOF 3
ENDMDL
MODEL 7
REMARK VINA RESULT:      -6.7      1.458      1.656
REMARK  Name = 
REMARK  3 active torsions:
REMARK  status: ('A' for Active; 'I' for Inactive)
REMARK    1  A    between atoms: N_2  and  C_4
REMARK    2  A    between atoms: C_12  and  O_13
REMARK    3  A    between atoms: C_14  and  O_15
REMARK                            x       y       z     vdW  Elec       q    Type
REMARK                         _______ _______ _______ _____ _____    ______ ____
ROOT
ATOM      1  C   UNL     1       3.097   3.980  19.453  0.00  0.00    +0.000 A 
ATOM      2  C   UNL     1       2.309   4.789  20.259  0.00  0.00    +0.000 A 
ATOM      3  F   UNL     1       1.649   4.297  21.316  0.00  0.00    +0.000 F 
ATOM      4  C   UNL     1       2.223   6.135  19.962  0.00  0.00    +0.000 A 
ATOM      5  F   UNL     1       1.473   6.946  20.716  0.00  0.00    +0.000 F 
ATOM      6  C   UNL     1       2.922   6.662  18.883  0.00  0.00    +0.000 A 
ATOM      7  C   UNL     1       3.713   5.851  18.082  0.00  0.00    +0.000 A 
ATOM      8  N   UNL     1       4.369   6.428  17.056  0.00  0.00    +0.000 NA
ATOM      9  C   UNL     1       5.117   5.601  16.312  0.00  0.00    +0.000 A 
ATOM     10  C   UNL     1       5.219   4.244  16.549  0.00  0.00    +0.000 A 
ATOM     11  N   UNL     1       4.566   3.653  17.564  0.00  0.00    +0.000 NA
ATOM     12  C   UNL     1       3.810   4.455  18.355  0.00  0.00    +0.000 A 
ENDROOT
BRANCH   1  14
ATOM     13  O   UNL     1       4.119   2.243  20.511  0.00  0.00    +0.000 OA
ATOM     14  N   UNL     1       3.174   2.590  19.789  0.00  0.00    +0.000 N 
ATOM     15  O   UNL     1       2.329   1.840  19.283  0.00  0.00    +0.000 OA
ENDBRANCH   1  14
BRANCH   9  16
ATOM     16  O   UNL     1       5.785   6.193  15.288  0.00  0.00    +0.000 OA
ATOM     17  H   UNL     1       6.703   5.929  15.489  0.00  0.00    +0.000 HD
ENDBRANCH   9  16
BRANCH  10  18
ATOM     18  O   UNL     1       5.989   3.433  15.769  0.00  0.00    +0.000 OA
ATOM     19  H   UNL     1       5.736   3.638  14.851  0.00  0.00    +0.000 HD
ENDBRANCH  10  18
TORSDOF 3
ENDMDL
MODEL 8
REMARK VINA RESULT:      -6.7      3.253      4.478
REMARK  Name = 
REMARK  3 active torsions:
REMARK  status: ('A' for Active; 'I' for Inactive)
REMARK    1  A    between atoms: N_2  and  C_4
REMARK    2  A    between atoms: C_12  and  O_13
REMARK    3  A    between atoms: C_14  and  O_15
REMARK                            x       y       z     vdW  Elec       q    Type
REMARK                         _______ _______ _______ _____ _____    ______ ____
ROOT
ATOM      1  C   UNL     1       6.464   5.633  17.537  0.00  0.00    +0.000 A 
ATOM      2  C   UNL     1       5.537   5.143  18.445  0.00  0.00    +0.000 A 
ATOM      3  F   UNL     1       5.469   5.609  19.699  0.00  0.00    +0.000 F 
ATOM      4  C   UNL     1       4.661   4.160  18.030  0.00  0.00    +0.000 A 
ATOM      5  F   UNL     1       3.754   3.662  18.878  0.00  0.00    +0.000 F 
ATOM      6  C   UNL     1       4.705   3.684  16.725  0.00  0.00    +0.000 A 
ATOM      7  C   UNL     1       5.631   4.180  15.817  0.00  0.00    +0.000 A 
ATOM      8  N   UNL     1       5.615   3.680  14.566  0.00  0.00    +0.000 NA
ATOM      9  C   UNL     1       6.530   4.191  13.730  0.00  0.00    +0.000 A 
ATOM     10  C   UNL     1       7.446   5.156  14.099  0.00  0.00    +0.000 A 
ATOM     11  N   UNL     1       7.478   5.660  15.344  0.00  0.00    +0.000 NA
ATOM     12  C   UNL     1       6.558   5.185  16.221  0.00  0.00    +0.000 A 
ENDROOT
BRANCH   1  14
ATOM     13  O   UNL     1       8.171   6.337  18.868  0.00  0.00    +0.000 OA
ATOM     14  N   UNL     1       7.355   6.657  17.993  0.00  0.00    +0.000 N 
ATOM     15  O   UNL     1       7.199   7.791  17.522  0.00  0.00    +0.000 OA
ENDBRANCH   1  14
BRANCH   9  16
ATOM     16  O   UNL     1       6.498   3.690  12.467  0.00  0.00    +0.000 OA
ATOM     17  H   UNL     1       7.349   3.212  12.437  0.00  0.00    +0.000 HD
ENDBRANCH   9  16
BRANCH  10  18
ATOM     18  O   UNL     1       8.363   5.651  13.221  0.00  0.00    +0.000 OA
ATOM     19  H   UNL     1       9.193   5.180  13.417  0.00  0.00    +0.000 HD
ENDBRANCH  10  18
TORSDOF 3
ENDMDL
MODEL 9
REMARK VINA RESULT:      -6.7      1.685      1.744
REMARK  Name = 
REMARK  3 active torsions:
REMARK  status: ('A' for Active; 'I' for Inactive)
REMARK    1  A    between atoms: N_2  and  C_4
REMARK    2  A    between atoms: C_12  and  O_13
REMARK    3  A    between atoms: C_14  and  O_15
REMARK                            x       y       z     vdW  Elec       q    Type
REMARK                         _______ _______ _______ _____ _____    ______ ____
ROOT
ATOM      1  C   UNL     1       3.822   3.523  19.449  0.00  0.00    +0.000 A 
ATOM      2  C   UNL     1       2.563   3.495  18.866  0.00  0.00    +0.000 A 
ATOM      3  F   UNL     1       1.635   2.607  19.245  0.00  0.00    +0.000 F 
ATOM      4  C   UNL     1       2.270   4.417  17.882  0.00  0.00    +0.000 A 
ATOM      5  F   UNL     1       1.067   4.420  17.296  0.00  0.00    +0.000 F 
ATOM      6  C   UNL     1       3.216   5.358  17.496  0.00  0.00    +0.000 A 
ATOM      7  C   UNL     1       4.473   5.388  18.085  0.00  0.00    +0.000 A 
ATOM      8  N   UNL     1       5.340   6.331  17.669  0.00  0.00    +0.000 NA
ATOM      9  C   UNL     1       6.540   6.314  18.268  0.00  0.00    +0.000 A 
ATOM     10  C   UNL     1       6.895   5.399  19.239  0.00  0.00    +0.000 A 
ATOM     11  N   UNL     1       6.043   4.450  19.659  0.00  0.00    +0.000 NA
ATOM     12  C   UNL     1       4.810   4.439  19.094  0.00  0.00    +0.000 A 
ENDROOT
BRANCH   1  14
ATOM     13  O   UNL     1       4.965   1.713  20.223  0.00  0.00    +0.000 OA
ATOM     14  N   UNL     1       4.096   2.560  20.472  0.00  0.00    +0.000 N 
ATOM     15  O   UNL     1       3.401   2.611  21.496  0.00  0.00    +0.000 OA
ENDBRANCH   1  14
BRANCH   9  16
ATOM     16  O   UNL     1       7.404   7.277  17.851  0.00  0.00    +0.000 OA
ATOM     17  H   UNL     1       8.222   6.756  17.742  0.00  0.00    +0.000 HD
ENDBRANCH   9  16
BRANCH  10  18
ATOM     18  O   UNL     1       8.125   5.413  19.825  0.00  0.00    +0.000 OA
ATOM     19  H   UNL     1       8.454   4.498  19.762  0.00  0.00    +0.000 HD
ENDBRANCH  10  18
TORSDOF 3
ENDMDL
